28
0 1 BrC12FH10N4
C                     3.266297129964    -2.490152782780    -4.822672649346
C                     1.995830596397    -2.691934969554     1.290467071999
C                     0.922217826447    -2.002101256384     1.854029947938
C                     3.015698721220    -0.596290237416     0.642177495274
C                     3.332036068705    -2.933651477490    -3.480351285511
C                     3.050564471930    -1.994705332809     0.687372758677
C                     0.905745370687    -0.610837027890     1.806445878062
C                     1.943497309225     0.100033712533     1.201890712841
C                     2.755281027159    -4.102034371844    -2.882890307017
C                     4.044511343224    -2.310601780426    -2.449381641945
C                     1.904555248252    -5.134304447238    -3.550602221988
C                     4.189338308524    -2.749622794542     0.033122349930
N                     3.230827688600    -2.102405833564    -5.924538354619
N                     3.091012063235    -4.188289098285    -1.604475526455
N                     3.890098565589    -3.092144015623    -1.353818299665
N                     4.727639386282    -1.098866471721    -2.432619922046
F                    -0.133916246694     0.048936604492     2.355546462544
Br                    1.889806539630     2.003741663402     1.140043528518
H                     2.007857794251    -3.777739559096     1.306388056313
H                     0.094890517512    -2.520763456581     2.328794247332
H                     3.812655232384    -0.043497932792     0.155223175490
H                     2.443772670435    -5.613982315787    -4.374098991724
H                     1.612002648935    -5.898479197508    -2.827853178304
H                     1.002233505948    -4.679790336209    -3.972432258236
H                     5.108957821949    -2.160272885581     0.055866370570
H                     4.382844264268    -3.691555594232     0.549173716773
H                     4.777885307487    -0.684183804511    -3.359306697663
H                     5.656755831436    -1.152066291867    -2.024804456293
