
  -OEChem-05262117483D

 31 33  0     0  0  0  0  0  0999 V2000
   -2.3342    5.6026   -0.9631 C   0  0  0  0  0  0  0  0  0  0  0  0
   -2.3465    3.1906   -0.3838 C   0  0  0  0  0  0  0  0  0  0  0  0
   -0.8585   -1.8188    1.7978 C   0  0  0  0  0  0  0  0  0  0  0  0
   -0.5372   -0.5437    1.3204 C   0  0  0  0  0  0  0  0  0  0  0  0
   -1.6510    2.0060   -0.2271 C   0  0  0  0  0  0  0  0  0  0  0  0
    0.6008   -1.5333   -0.5881 C   0  0  0  0  0  0  0  0  0  0  0  0
   -0.2823    4.2370   -1.0450 C   0  0  0  0  0  0  0  0  0  0  0  0
   -1.6607    4.3530   -0.7932 C   0  0  0  0  0  0  0  0  0  0  0  0
   -0.4443   -2.9466    1.0901 C   0  0  0  0  0  0  0  0  0  0  0  0
    0.2932   -2.7984   -0.0944 C   0  0  0  0  0  0  0  0  0  0  0  0
    0.1787   -0.3959    0.1211 C   0  0  0  0  0  0  0  0  0  0  0  0
   -0.2578    2.0026   -0.4849 C   0  0  0  0  0  0  0  0  0  0  0  0
   -0.6390   -4.4138    1.4120 C   0  0  0  0  0  0  0  0  0  0  0  0
    0.6532   -4.1550   -0.6643 C   0  0  0  0  0  0  0  0  0  0  0  0
   -0.3271   -5.1097    0.0629 C   0  0  0  0  0  0  0  0  0  0  0  0
   -2.8819    6.6234   -1.1031 N   0  0  0  0  0  0  0  0  0  0  0  0
    0.4022    3.1067   -0.8985 N   0  0  0  0  0  0  0  0  0  0  0  0
    0.5304    0.8845   -0.3711 N   0  0  0  0  0  0  0  0  0  0  0  0
   -3.4166    3.2269   -0.2024 H   0  0  0  0  0  0  0  0  0  0  0  0
   -1.4169   -1.9186    2.7259 H   0  0  0  0  0  0  0  0  0  0  0  0
   -0.8221    0.3375    1.8867 H   0  0  0  0  0  0  0  0  0  0  0  0
   -2.1632    1.0964    0.0613 H   0  0  0  0  0  0  0  0  0  0  0  0
    1.1465   -1.4119   -1.5216 H   0  0  0  0  0  0  0  0  0  0  0  0
    0.2821    5.1050   -1.3806 H   0  0  0  0  0  0  0  0  0  0  0  0
    0.0737   -4.7267    2.1873 H   0  0  0  0  0  0  0  0  0  0  0  0
   -1.6414   -4.6436    1.7868 H   0  0  0  0  0  0  0  0  0  0  0  0
    0.5650   -4.2019   -1.7542 H   0  0  0  0  0  0  0  0  0  0  0  0
    1.6947   -4.3987   -0.4146 H   0  0  0  0  0  0  0  0  0  0  0  0
    0.0757   -6.1185    0.1871 H   0  0  0  0  0  0  0  0  0  0  0  0
   -1.2498   -5.1902   -0.5217 H   0  0  0  0  0  0  0  0  0  0  0  0
    1.4628    1.0100   -0.7487 H   0  0  0  0  0  0  0  0  0  0  0  0
  1  8  1  0  0  0  0
  1 16  3  0  0  0  0
  2  5  1  0  0  0  0
  2  8  2  0  0  0  0
  2 19  1  0  0  0  0
  3  4  2  0  0  0  0
  3  9  1  0  0  0  0
  3 20  1  0  0  0  0
  4 11  1  0  0  0  0
  4 21  1  0  0  0  0
  5 12  2  0  0  0  0
  5 22  1  0  0  0  0
  6 10  1  0  0  0  0
  6 11  2  0  0  0  0
  6 23  1  0  0  0  0
  7  8  1  0  0  0  0
  7 17  2  0  0  0  0
  7 24  1  0  0  0  0
  9 10  2  0  0  0  0
  9 13  1  0  0  0  0
 10 14  1  0  0  0  0
 11 18  1  0  0  0  0
 12 17  1  0  0  0  0
 12 18  1  0  0  0  0
 13 15  1  0  0  0  0
 13 25  1  0  0  0  0
 13 26  1  0  0  0  0
 14 15  1  0  0  0  0
 14 27  1  0  0  0  0
 14 28  1  0  0  0  0
 15 29  1  0  0  0  0
 15 30  1  0  0  0  0
 18 31  1  0  0  0  0
M  END
$$$$
