
  -OEChem-05262117483D

 27 28  0     0  0  0  0  0  0999 V2000
    1.0747    2.8611    1.8826 C   0  0  0  0  0  0  0  0  0  0  0  0
    1.2634    1.6810    1.6736 C   0  0  0  0  0  0  0  0  0  0  0  0
    0.9489   -1.7622    0.2602 C   0  0  0  0  0  0  0  0  0  0  0  0
    0.7104   -0.4073    0.4811 C   0  0  0  0  0  0  0  0  0  0  0  0
    1.9445   -2.4532    0.9564 C   0  0  0  0  0  0  0  0  0  0  0  0
    6.2654   -4.9492    3.2120 C   0  0  0  0  0  0  0  0  0  0  0  0
    2.4883   -0.3977    2.1317 C   0  0  0  0  0  0  0  0  0  0  0  0
    5.4120   -3.3895    4.8315 C   0  0  0  0  0  0  0  0  0  0  0  0
    7.2690   -5.2651    4.1240 C   0  0  0  0  0  0  0  0  0  0  0  0
    1.4871    0.2879    1.4273 C   0  0  0  0  0  0  0  0  0  0  0  0
    5.3206   -3.9771    3.5667 C   0  0  0  0  0  0  0  0  0  0  0  0
    2.7197   -1.7610    1.9016 C   0  0  0  0  0  0  0  0  0  0  0  0
    6.4610   -3.8005    5.6637 C   0  0  0  0  0  0  0  0  0  0  0  0
    4.2311   -3.6518    2.5756 C   0  0  0  0  0  0  0  0  0  0  0  0
    7.3727   -4.6987    5.3392 N   0  0  0  0  0  0  0  0  0  0  0  0
    3.7405   -2.3714    2.6661 N   0  0  0  0  0  0  0  0  0  0  0  0
    3.8504   -4.4901    1.7632 O   0  0  0  0  0  0  0  0  0  0  0  0
    6.5836   -3.0810    7.2640 Cl  0  0  0  0  0  0  0  0  0  0  0  0
    0.9054    3.9015    2.0640 H   0  0  0  0  0  0  0  0  0  0  0  0
    0.3508   -2.3000   -0.4703 H   0  0  0  0  0  0  0  0  0  0  0  0
   -0.0648    0.1202   -0.0656 H   0  0  0  0  0  0  0  0  0  0  0  0
    2.1266   -3.5028    0.7742 H   0  0  0  0  0  0  0  0  0  0  0  0
    6.2014   -5.4402    2.2471 H   0  0  0  0  0  0  0  0  0  0  0  0
    3.0840    0.1454    2.8618 H   0  0  0  0  0  0  0  0  0  0  0  0
    4.6856   -2.6718    5.1982 H   0  0  0  0  0  0  0  0  0  0  0  0
    8.0278   -6.0056    3.8810 H   0  0  0  0  0  0  0  0  0  0  0  0
    4.2269   -1.7495    3.2990 H   0  0  0  0  0  0  0  0  0  0  0  0
  1  2  3  0  0  0  0
  1 19  1  0  0  0  0
  2 10  1  0  0  0  0
  3  4  2  0  0  0  0
  3  5  1  0  0  0  0
  3 20  1  0  0  0  0
  4 10  1  0  0  0  0
  4 21  1  0  0  0  0
  5 12  2  0  0  0  0
  5 22  1  0  0  0  0
  6  9  2  0  0  0  0
  6 11  1  0  0  0  0
  6 23  1  0  0  0  0
  7 10  2  0  0  0  0
  7 12  1  0  0  0  0
  7 24  1  0  0  0  0
  8 11  2  0  0  0  0
  8 13  1  0  0  0  0
  8 25  1  0  0  0  0
  9 15  1  0  0  0  0
  9 26  1  0  0  0  0
 11 14  1  0  0  0  0
 12 16  1  0  0  0  0
 13 15  2  0  0  0  0
 13 18  1  0  0  0  0
 14 16  1  0  0  0  0
 14 17  2  0  0  0  0
 16 27  1  0  0  0  0
M  END
$$$$
