31
0 1 C15H13N3
C                     2.729568258866     2.155009805462    -4.692714230138
C                     1.613210204871     2.630259423860    -2.525812426308
C                    -0.992037398830    -2.337605598234     2.202776711356
C                    -0.661167204691    -1.102122171008     1.644126859519
C                     1.006249156628     2.147627709289    -1.387009484967
C                     0.312162282170    -2.200812114503    -0.298942255383
C                     1.916676549689     0.348985824515    -3.228742582220
C                     2.091382596006     1.714767333925    -3.491567826212
C                    -0.677376077282    -3.507948935401     1.512489678528
C                    -0.030319763921    -3.425089023645     0.272588309523
C                    -0.010538918699    -1.020992298306     0.396260114051
C                     0.877668519081     0.740830304000    -1.214588611058
C                    -0.905869632080    -4.953959451522     1.900527669918
C                     0.231122898771    -4.813284871000    -0.275713804758
C                    -0.725306954026    -5.704154493492     0.556185060809
N                     3.250609555134     2.513417365624    -5.673291804336
N                     1.331531620430    -0.132472450175    -2.131495265762
N                     0.270379047586     0.282008378262    -0.072616591447
H                     1.725252011960     3.698570330294    -2.684253909424
H                    -1.496496546194    -2.373565846169     3.165665764689
H                    -0.914349400542    -0.186911635100     2.177311926088
H                     0.630102073501     2.830455888789    -0.629456884770
H                     0.808774541141    -2.141362007693    -1.256981637709
H                     2.270533693850    -0.388625346343    -3.946717849494
H                    -0.150232367630    -5.274213863972     2.631152219899
H                    -1.886023398833    -5.129581450673     2.355743374676
H                     0.056766014162    -4.889242766732    -1.353549800440
H                     1.279055619456    -5.091562576386    -0.099345157730
H                    -0.353840332201    -6.724744834081     0.684224238942
H                    -1.693147793691    -5.764729668094     0.046664079420
H                    -0.037475049451     1.013931973627     0.554128207201
