
  -OEChem-05262117483D

 27 28  0     0  0  0  0  0  0999 V2000
   -0.9996    0.9942    3.4269 C   0  0  0  0  0  0  0  0  0  0  0  0
   -0.4288    0.3617    2.5632 C   0  0  0  0  0  0  0  0  0  0  0  0
    0.3000   -1.3659   -0.6674 C   0  0  0  0  0  0  0  0  0  0  0  0
   -0.3780   -0.6365    0.3073 C   0  0  0  0  0  0  0  0  0  0  0  0
    1.5900   -1.8572   -0.4484 C   0  0  0  0  0  0  0  0  0  0  0  0
    6.3457   -4.3207    0.6910 C   0  0  0  0  0  0  0  0  0  0  0  0
    1.5411   -0.8736    1.7725 C   0  0  0  0  0  0  0  0  0  0  0  0
    6.3383   -2.2070    1.8391 C   0  0  0  0  0  0  0  0  0  0  0  0
    7.5914   -4.5658    1.2625 C   0  0  0  0  0  0  0  0  0  0  0  0
    0.2459   -0.3849    1.5439 C   0  0  0  0  0  0  0  0  0  0  0  0
    5.6948   -3.1181    0.9969 C   0  0  0  0  0  0  0  0  0  0  0  0
    2.2142   -1.6062    0.7849 C   0  0  0  0  0  0  0  0  0  0  0  0
    7.5958   -2.5646    2.3417 C   0  0  0  0  0  0  0  0  0  0  0  0
    4.3514   -2.8577    0.3626 C   0  0  0  0  0  0  0  0  0  0  0  0
    8.2154   -3.7014    2.0822 N   0  0  0  0  0  0  0  0  0  0  0  0
    3.5204   -2.0476    1.0985 N   0  0  0  0  0  0  0  0  0  0  0  0
    4.0605   -3.3578   -0.7204 O   0  0  0  0  0  0  0  0  0  0  0  0
    8.4263   -1.4247    3.3925 Cl  0  0  0  0  0  0  0  0  0  0  0  0
   -1.5060    1.5517    4.1862 H   0  0  0  0  0  0  0  0  0  0  0  0
   -0.1803   -1.5616   -1.6221 H   0  0  0  0  0  0  0  0  0  0  0  0
   -1.3799   -0.2600    0.1274 H   0  0  0  0  0  0  0  0  0  0  0  0
    2.1060   -2.4274   -1.2078 H   0  0  0  0  0  0  0  0  0  0  0  0
    5.8802   -5.0331    0.0187 H   0  0  0  0  0  0  0  0  0  0  0  0
    2.0172   -0.6750    2.7299 H   0  0  0  0  0  0  0  0  0  0  0  0
    5.9227   -1.2330    2.0759 H   0  0  0  0  0  0  0  0  0  0  0  0
    8.1233   -5.4927    1.0593 H   0  0  0  0  0  0  0  0  0  0  0  0
    3.8400   -1.8038    2.0271 H   0  0  0  0  0  0  0  0  0  0  0  0
  1  2  3  0  0  0  0
  1 19  1  0  0  0  0
  2 10  1  0  0  0  0
  3  4  2  0  0  0  0
  3  5  1  0  0  0  0
  3 20  1  0  0  0  0
  4 10  1  0  0  0  0
  4 21  1  0  0  0  0
  5 12  2  0  0  0  0
  5 22  1  0  0  0  0
  6  9  2  0  0  0  0
  6 11  1  0  0  0  0
  6 23  1  0  0  0  0
  7 10  2  0  0  0  0
  7 12  1  0  0  0  0
  7 24  1  0  0  0  0
  8 11  2  0  0  0  0
  8 13  1  0  0  0  0
  8 25  1  0  0  0  0
  9 15  1  0  0  0  0
  9 26  1  0  0  0  0
 11 14  1  0  0  0  0
 12 16  1  0  0  0  0
 13 15  2  0  0  0  0
 13 18  1  0  0  0  0
 14 16  1  0  0  0  0
 14 17  2  0  0  0  0
 16 27  1  0  0  0  0
M  END
$$$$
