28
0 1 BrC12FH10N4
C                     2.379627751037    -4.553666472656    -4.280803869418
C                     2.019916785071    -0.961593892110    -0.024130539016
C                     0.890753304049    -0.614303704839     0.714357758944
C                     2.762012214196    -2.402299242648     1.771847726976
C                     3.043615422635    -3.621561927839    -3.448610066933
C                     2.965657427550    -1.854713427932     0.501958769168
C                     0.704995439314    -1.164024231007     1.981990892512
C                     1.630644530172    -2.057843386728     2.518653918089
C                     3.697653636612    -2.397830065932    -3.805160024582
C                     3.163245451005    -3.707428444586    -2.054906246829
C                     3.858463351790    -1.822349743493    -5.175993054353
C                     4.193233671932    -2.229122915353    -0.308698097646
N                     1.821325166453    -5.334867182173    -4.947065579535
N                     4.171793707985    -1.785651848986    -2.728373773607
N                     3.858382557014    -2.612047657861    -1.668456480293
N                     2.769460102972    -4.696136228656    -1.168189845216
F                    -0.392280997766    -0.823963414076     2.685669987639
Br                    1.345930691086    -2.812022715044     4.243790262495
H                     2.169133624592    -0.544446169283    -1.016192534003
H                     0.146225252579     0.075624350045     0.328657672471
H                     3.480036171065    -3.101962787639     2.190659892050
H                     2.886413891684    -1.691494596459    -5.662469236069
H                     4.358864038039    -0.853836245508    -5.115889752362
H                     4.453185981096    -2.487953633419    -5.810328376203
H                     4.877756419739    -1.383225164105    -0.399556364189
H                     4.731210088887    -3.052401240737     0.172321034045
H                     2.192523760022    -5.405672934497    -1.609878055352
H                     2.332716175436    -4.346674864333    -0.319253225043
