28
0 1 BrC12FH10N4
C                     2.879553548365    -4.549429345439    -3.806624924687
C                     2.184679835021    -2.749395041962     1.320498413174
C                     1.091701830338    -2.627979469140     2.176529796879
C                     2.653185248622    -0.389418836987     1.569956513821
C                     3.112225655755    -3.445156502995    -2.952878342965
C                     2.972779697714    -1.630258812903     1.013109891538
C                     0.791061355326    -1.385550194140     2.730467860124
C                     1.563741094644    -0.263064659637     2.436262513376
C                     2.828328670487    -2.056015619226    -3.164034406600
C                     3.728901370982    -3.504804231034    -1.697943324577
C                     2.184269193505    -1.434790371723    -4.361813190260
C                     4.163499246799    -1.761424174201     0.082970065285
N                     2.703233696768    -5.481470214363    -4.489345247288
N                     3.238894910508    -1.332869687341    -2.133547160980
N                     3.793841559058    -2.229936493564    -1.245414358353
N                     4.127054023826    -4.610310500888    -0.951594167946
F                    -0.265425213338    -1.280292528852     3.561540410185
Br                    1.128133315871     1.423869297117     3.207929846729
H                     2.423047063971    -3.715977572305     0.885844867914
H                     0.465510789182    -3.478859048111     2.427344549141
H                     3.243159491440     0.489400944158     1.327925769874
H                     1.199158777281    -1.875408178072    -4.545782684736
H                     2.069031817535    -0.360538286909    -4.205600326383
H                     2.788362021890    -1.598915683757    -5.260369275782
H                     4.661110756389    -0.798700552248    -0.045169476598
H                     4.897085162411    -2.458894364322     0.498058288617
H                     5.043629297177    -4.517651544840    -0.523314033011
H                     4.083394766070    -5.465799350950    -1.499207886176
