
  -OEChem-05262117483D

 42 43  0     1  0  0  0  0  0999 V2000
    5.7356   -0.0931    5.6255 C   0  0  0  0  0  0  0  0  0  0  0  0
    5.1947    0.5383    4.4980 C   0  0  0  0  0  0  0  0  0  0  0  0
    3.6109   -1.1241    6.0637 C   0  0  0  0  0  0  0  0  0  0  0  0
    4.9548   -0.9307    6.4237 C   0  0  0  0  0  0  0  0  0  0  0  0
    3.8581    0.3350    4.1409 C   0  0  0  0  0  0  0  0  0  0  0  0
    3.0603   -0.5109    4.9419 C   0  0  0  0  0  0  0  0  0  0  0  0
   -0.1802   -1.0406    2.4582 C   0  0  0  0  0  0  0  0  0  0  0  0
    1.1187   -1.4106    1.6865 C   0  0  0  0  0  0  0  0  0  0  0  0
   -0.1291   -1.8711    3.7567 C   0  0  0  0  0  0  0  0  0  0  0  0
    2.0026   -2.1954    2.6922 C   0  0  0  0  0  0  0  0  0  0  0  0
    1.3631   -1.9604    4.0671 C   0  0  0  0  0  0  0  0  0  0  0  0
    4.7645   -1.2365    8.9164 C   0  0  0  0  0  0  0  0  0  0  0  0
    4.0194    1.7545    2.2293 C   0  0  0  0  0  0  0  0  0  0  0  0
    5.4931   -3.1742    7.4034 C   0  0  0  0  0  0  0  0  0  0  0  0
    5.5283   -1.6363    7.6441 C   0  0  1  0  0  0  0  0  0  0  0  0
    6.1392   -4.0192    8.4076 N   0  0  0  0  0  0  0  0  0  0  0  0
    6.9015   -1.2195    7.7720 O   0  0  0  0  0  0  0  0  0  0  0  0
    1.7313   -0.6738    4.6277 O   0  0  0  0  0  0  0  0  0  0  0  0
    3.2432    0.8938    3.0536 O   0  0  0  0  0  0  0  0  0  0  0  0
    6.7735    0.0737    5.8876 H   0  0  0  0  0  0  0  0  0  0  0  0
    5.8312    1.1848    3.9040 H   0  0  0  0  0  0  0  0  0  0  0  0
    2.9535   -1.7505    6.6606 H   0  0  0  0  0  0  0  0  0  0  0  0
   -0.1731    0.0229    2.7103 H   0  0  0  0  0  0  0  0  0  0  0  0
   -1.0863   -1.2372    1.8771 H   0  0  0  0  0  0  0  0  0  0  0  0
    0.9015   -2.0201    0.8037 H   0  0  0  0  0  0  0  0  0  0  0  0
    1.6320   -0.5099    1.3440 H   0  0  0  0  0  0  0  0  0  0  0  0
   -0.6913   -1.4281    4.5833 H   0  0  0  0  0  0  0  0  0  0  0  0
   -0.5119   -2.8847    3.5871 H   0  0  0  0  0  0  0  0  0  0  0  0
    1.9733   -3.2711    2.4824 H   0  0  0  0  0  0  0  0  0  0  0  0
    3.0523   -1.8932    2.6715 H   0  0  0  0  0  0  0  0  0  0  0  0
    1.6140   -2.7460    4.7909 H   0  0  0  0  0  0  0  0  0  0  0  0
    5.1920   -1.7256    9.8015 H   0  0  0  0  0  0  0  0  0  0  0  0
    3.7089   -1.5162    8.8601 H   0  0  0  0  0  0  0  0  0  0  0  0
    4.8269   -0.1548    9.0608 H   0  0  0  0  0  0  0  0  0  0  0  0
    3.3506    2.0885    1.4346 H   0  0  0  0  0  0  0  0  0  0  0  0
    4.8734    1.2260    1.7868 H   0  0  0  0  0  0  0  0  0  0  0  0
    4.3816    2.6263    2.7885 H   0  0  0  0  0  0  0  0  0  0  0  0
    5.9797   -3.3655    6.4424 H   0  0  0  0  0  0  0  0  0  0  0  0
    4.4520   -3.4985    7.3031 H   0  0  0  0  0  0  0  0  0  0  0  0
    5.7378   -3.8851    9.3329 H   0  0  0  0  0  0  0  0  0  0  0  0
    7.1366   -3.8243    8.4597 H   0  0  0  0  0  0  0  0  0  0  0  0
    7.2158   -1.5277    8.6362 H   0  0  0  0  0  0  0  0  0  0  0  0
  1  2  1  0  0  0  0
  1  4  2  0  0  0  0
  1 20  1  0  0  0  0
  2  5  2  0  0  0  0
  2 21  1  0  0  0  0
  3  4  1  0  0  0  0
  3  6  2  0  0  0  0
  3 22  1  0  0  0  0
  4 15  1  0  0  0  0
  5  6  1  0  0  0  0
  5 19  1  0  0  0  0
  6 18  1  0  0  0  0
  7  8  1  0  0  0  0
  7  9  1  0  0  0  0
  7 23  1  0  0  0  0
  7 24  1  0  0  0  0
  8 10  1  0  0  0  0
  8 25  1  0  0  0  0
  8 26  1  0  0  0  0
  9 11  1  0  0  0  0
  9 27  1  0  0  0  0
  9 28  1  0  0  0  0
 10 11  1  0  0  0  0
 10 29  1  0  0  0  0
 10 30  1  0  0  0  0
 11 18  1  0  0  0  0
 11 31  1  0  0  0  0
 12 15  1  0  0  0  0
 12 32  1  0  0  0  0
 12 33  1  0  0  0  0
 12 34  1  0  0  0  0
 13 19  1  0  0  0  0
 13 35  1  0  0  0  0
 13 36  1  0  0  0  0
 13 37  1  0  0  0  0
 14 15  1  0  0  0  0
 14 16  1  0  0  0  0
 14 38  1  0  0  0  0
 14 39  1  0  0  0  0
 15 17  1  0  0  0  0
 16 40  1  0  0  0  0
 16 41  1  0  0  0  0
 17 42  1  0  0  0  0
M  END
$$$$
