
  -OEChem-05262117483D

 43 44  0     1  0  0  0  0  0999 V2000
    5.5136   -0.5616    5.7477 C   0  0  0  0  0  0  0  0  0  0  0  0
    5.1439    0.0869    4.5669 C   0  0  0  0  0  0  0  0  0  0  0  0
    3.2824   -1.4518    5.9632 C   0  0  0  0  0  0  0  0  0  0  0  0
    4.5889   -1.3314    6.4654 C   0  0  0  0  0  0  0  0  0  0  0  0
    3.8376   -0.0295    4.0712 C   0  0  0  0  0  0  0  0  0  0  0  0
    2.8978   -0.8160    4.7850 C   0  0  0  0  0  0  0  0  0  0  0  0
    0.1422    1.6026    3.4885 C   0  0  0  0  0  0  0  0  0  0  0  0
   -0.6030    0.3466    2.9535 C   0  0  0  0  0  0  0  0  0  0  0  0
    0.6802    1.2143    4.8913 C   0  0  0  0  0  0  0  0  0  0  0  0
   -0.7051   -0.6112    4.1585 C   0  0  0  0  0  0  0  0  0  0  0  0
    0.5518   -0.3107    4.9683 C   0  0  0  0  0  0  0  0  0  0  0  0
    3.8915   -2.4321    8.6722 C   0  0  0  0  0  0  0  0  0  0  0  0
    4.2825    1.3709    2.1857 C   0  0  0  0  0  0  0  0  0  0  0  0
    5.8278   -3.3145    7.2792 C   0  0  0  0  0  0  0  0  0  0  0  0
    5.0381   -2.0676    7.7190 C   0  0  1  0  0  0  0  0  0  0  0  0
    6.6025   -3.8528    8.4783 N   0  3  0  0  0  0  0  0  0  0  0  0
    6.0478   -1.3255    8.4457 O   0  0  0  0  0  0  0  0  0  0  0  0
    1.6481   -0.9804    4.2696 O   0  0  0  0  0  0  0  0  0  0  0  0
    3.3797    0.5626    2.9460 O   0  0  0  0  0  0  0  0  0  0  0  0
    6.5307   -0.4487    6.1126 H   0  0  0  0  0  0  0  0  0  0  0  0
    5.8793    0.6867    4.0434 H   0  0  0  0  0  0  0  0  0  0  0  0
    2.5307   -2.0504    6.4669 H   0  0  0  0  0  0  0  0  0  0  0  0
    0.9625    1.8760    2.8218 H   0  0  0  0  0  0  0  0  0  0  0  0
   -0.5231    2.4677    3.5570 H   0  0  0  0  0  0  0  0  0  0  0  0
   -1.5852    0.5867    2.5383 H   0  0  0  0  0  0  0  0  0  0  0  0
   -0.0182   -0.1271    2.1610 H   0  0  0  0  0  0  0  0  0  0  0  0
    1.7028    1.5563    5.0733 H   0  0  0  0  0  0  0  0  0  0  0  0
    0.0552    1.6446    5.6821 H   0  0  0  0  0  0  0  0  0  0  0  0
   -1.5776   -0.3703    4.7765 H   0  0  0  0  0  0  0  0  0  0  0  0
   -0.7696   -1.6658    3.8780 H   0  0  0  0  0  0  0  0  0  0  0  0
    0.5148   -0.6903    5.9968 H   0  0  0  0  0  0  0  0  0  0  0  0
    4.2782   -2.8351    9.6148 H   0  0  0  0  0  0  0  0  0  0  0  0
    3.2085   -3.1651    8.2361 H   0  0  0  0  0  0  0  0  0  0  0  0
    3.3129   -1.5394    8.9217 H   0  0  0  0  0  0  0  0  0  0  0  0
    3.7038    1.7379    1.3387 H   0  0  0  0  0  0  0  0  0  0  0  0
    5.1292    0.7791    1.8202 H   0  0  0  0  0  0  0  0  0  0  0  0
    4.6459    2.2198    2.7759 H   0  0  0  0  0  0  0  0  0  0  0  0
    5.1856   -4.1069    6.8953 H   0  0  0  0  0  0  0  0  0  0  0  0
    6.5747   -3.0440    6.5333 H   0  0  0  0  0  0  0  0  0  0  0  0
    5.9914   -4.3258    9.1526 H   0  0  0  0  0  0  0  0  0  0  0  0
    7.0173   -3.0314    8.9515 H   0  0  0  0  0  0  0  0  0  0  0  0
    7.3458   -4.5066    8.2086 H   0  0  0  0  0  0  0  0  0  0  0  0
    5.7396   -0.4137    8.5842 H   0  0  0  0  0  0  0  0  0  0  0  0
  1  2  1  0  0  0  0
  1  4  2  0  0  0  0
  1 20  1  0  0  0  0
  2  5  2  0  0  0  0
  2 21  1  0  0  0  0
  3  4  1  0  0  0  0
  3  6  2  0  0  0  0
  3 22  1  0  0  0  0
  4 15  1  0  0  0  0
  5  6  1  0  0  0  0
  5 19  1  0  0  0  0
  6 18  1  0  0  0  0
  7  8  1  0  0  0  0
  7  9  1  0  0  0  0
  7 23  1  0  0  0  0
  7 24  1  0  0  0  0
  8 10  1  0  0  0  0
  8 25  1  0  0  0  0
  8 26  1  0  0  0  0
  9 11  1  0  0  0  0
  9 27  1  0  0  0  0
  9 28  1  0  0  0  0
 10 11  1  0  0  0  0
 10 29  1  0  0  0  0
 10 30  1  0  0  0  0
 11 18  1  0  0  0  0
 11 31  1  0  0  0  0
 12 15  1  0  0  0  0
 12 32  1  0  0  0  0
 12 33  1  0  0  0  0
 12 34  1  0  0  0  0
 13 19  1  0  0  0  0
 13 35  1  0  0  0  0
 13 36  1  0  0  0  0
 13 37  1  0  0  0  0
 14 15  1  0  0  0  0
 14 16  1  0  0  0  0
 14 38  1  0  0  0  0
 14 39  1  0  0  0  0
 15 17  1  0  0  0  0
 16 40  1  0  0  0  0
 16 41  1  0  0  0  0
 16 42  1  0  0  0  0
 17 43  1  0  0  0  0
M  CHG  1  16   1
M  END
$$$$
