
  -OEChem-05262117483D

 42 43  0     1  0  0  0  0  0999 V2000
    3.9551   -0.7508    2.6924 C   0  0  0  0  0  0  0  0  0  0  0  0
    4.6398   -0.5463    3.8914 C   0  0  0  0  0  0  0  0  0  0  0  0
    2.5557   -0.6773    5.0791 C   0  0  0  0  0  0  0  0  0  0  0  0
    2.5692   -0.9180    2.6481 C   0  0  0  0  0  0  0  0  0  0  0  0
    3.9485   -0.5111    5.1108 C   0  0  0  0  0  0  0  0  0  0  0  0
    1.8711   -0.8681    3.8717 C   0  0  0  0  0  0  0  0  0  0  0  0
   -0.2122   -2.3519    1.2741 C   0  0  0  0  0  0  0  0  0  0  0  0
   -0.5719   -0.9022    0.9692 C   0  0  0  0  0  0  0  0  0  0  0  0
    0.7640   -0.1379    0.9345 C   0  0  0  0  0  0  0  0  0  0  0  0
    1.8724   -1.1707    1.3249 C   0  0  2  0  0  0  0  0  0  0  0  0
   -1.6763   -1.5203    4.5930 C   0  0  0  0  0  0  0  0  0  0  0  0
    5.4567    1.0609    6.3629 C   0  0  0  0  0  0  0  0  0  0  0  0
    5.7446   -1.4343    6.6060 C   0  0  0  0  0  0  0  0  0  0  0  0
    3.7916   -0.2815    7.6527 C   0  0  0  0  0  0  0  0  0  0  0  0
   -0.2379   -1.2414    4.9946 C   0  0  0  0  0  0  0  0  0  0  0  0
    4.7166   -0.2947    6.4230 C   0  0  0  0  0  0  0  0  0  0  0  0
    1.1547   -2.4464    1.2911 N   0  0  0  0  0  0  0  0  0  0  0  0
   -0.9940   -3.2789    1.4600 O   0  0  0  0  0  0  0  0  0  0  0  0
    0.5113   -1.0039    3.7938 O   0  0  0  0  0  0  0  0  0  0  0  0
    4.5144   -0.7889    1.7594 H   0  0  0  0  0  0  0  0  0  0  0  0
    5.7183   -0.4231    3.8667 H   0  0  0  0  0  0  0  0  0  0  0  0
    1.9929   -0.6495    6.0015 H   0  0  0  0  0  0  0  0  0  0  0  0
   -1.1156   -0.8649    0.0210 H   0  0  0  0  0  0  0  0  0  0  0  0
   -1.2460   -0.5500    1.7509 H   0  0  0  0  0  0  0  0  0  0  0  0
    0.9717    0.2529   -0.0645 H   0  0  0  0  0  0  0  0  0  0  0  0
    0.7722    0.7052    1.6261 H   0  0  0  0  0  0  0  0  0  0  0  0
    2.6504   -1.1780    0.5541 H   0  0  0  0  0  0  0  0  0  0  0  0
   -2.1197   -0.6454    4.1079 H   0  0  0  0  0  0  0  0  0  0  0  0
   -1.7302   -2.3653    3.9019 H   0  0  0  0  0  0  0  0  0  0  0  0
   -2.2684   -1.7515    5.4848 H   0  0  0  0  0  0  0  0  0  0  0  0
    6.0086    1.2353    7.2936 H   0  0  0  0  0  0  0  0  0  0  0  0
    6.1738    1.0957    5.5377 H   0  0  0  0  0  0  0  0  0  0  0  0
    4.7488    1.8850    6.2251 H   0  0  0  0  0  0  0  0  0  0  0  0
    6.3044   -1.2964    7.5381 H   0  0  0  0  0  0  0  0  0  0  0  0
    5.2437   -2.4072    6.6485 H   0  0  0  0  0  0  0  0  0  0  0  0
    6.4659   -1.4658    5.7844 H   0  0  0  0  0  0  0  0  0  0  0  0
    4.3857   -0.1226    8.5585 H   0  0  0  0  0  0  0  0  0  0  0  0
    3.0530    0.5254    7.5994 H   0  0  0  0  0  0  0  0  0  0  0  0
    3.2585   -1.2307    7.7727 H   0  0  0  0  0  0  0  0  0  0  0  0
    0.1961   -2.0982    5.5258 H   0  0  0  0  0  0  0  0  0  0  0  0
   -0.1765   -0.3624    5.6497 H   0  0  0  0  0  0  0  0  0  0  0  0
    1.5780   -3.2935    1.6523 H   0  0  0  0  0  0  0  0  0  0  0  0
  1  2  1  0  0  0  0
  1  4  2  0  0  0  0
  1 20  1  0  0  0  0
  2  5  2  0  0  0  0
  2 21  1  0  0  0  0
  3  5  1  0  0  0  0
  3  6  2  0  0  0  0
  3 22  1  0  0  0  0
  4  6  1  0  0  0  0
  4 10  1  0  0  0  0
  5 16  1  0  0  0  0
  6 19  1  0  0  0  0
  7  8  1  0  0  0  0
  7 17  1  0  0  0  0
  7 18  2  0  0  0  0
  8  9  1  0  0  0  0
  8 23  1  0  0  0  0
  8 24  1  0  0  0  0
  9 10  1  0  0  0  0
  9 25  1  0  0  0  0
  9 26  1  0  0  0  0
 10 17  1  0  0  0  0
 10 27  1  0  0  0  0
 11 15  1  0  0  0  0
 11 28  1  0  0  0  0
 11 29  1  0  0  0  0
 11 30  1  0  0  0  0
 12 16  1  0  0  0  0
 12 31  1  0  0  0  0
 12 32  1  0  0  0  0
 12 33  1  0  0  0  0
 13 16  1  0  0  0  0
 13 34  1  0  0  0  0
 13 35  1  0  0  0  0
 13 36  1  0  0  0  0
 14 16  1  0  0  0  0
 14 37  1  0  0  0  0
 14 38  1  0  0  0  0
 14 39  1  0  0  0  0
 15 19  1  0  0  0  0
 15 40  1  0  0  0  0
 15 41  1  0  0  0  0
 17 42  1  0  0  0  0
M  END
$$$$
