42
0 1 C16H23NO2
C                     3.955128772001    -0.750793504353     2.692357406430
C                     4.639789179967    -0.546339713513     3.891400748994
C                     2.555692925518    -0.677326308165     5.079111417627
C                     2.569157008836    -0.917958039861     2.648122419744
C                     3.948477273760    -0.511104507150     5.110764221276
C                     1.871063590838    -0.868085019252     3.871661296013
C                    -0.212158351731    -2.351876470419     1.274087423338
C                    -0.571913948503    -0.902202396967     0.969196316507
C                     0.763979684966    -0.137889764284     0.934504093588
C                     1.872408589971    -1.170690112285     1.324890472895
C                    -1.676279629797    -1.520342700085     4.593034632411
C                     5.456746917494     1.060945955602     6.362851864096
C                     5.744618865006    -1.434312223071     6.606012930565
C                     3.791557053414    -0.281548375096     7.652742402816
C                    -0.237943516758    -1.241367840767     4.994574067030
C                     4.716636463837    -0.294656433278     6.423036410665
N                     1.154699482959    -2.446424181642     1.291072101471
O                    -0.993957714134    -3.278914614412     1.460014143230
O                     0.511298313011    -1.003894974220     3.793839585227
H                     4.514428072445    -0.788944958698     1.759355768654
H                     5.718251314000    -0.423124319037     3.866657089386
H                     1.992912872011    -0.649488745203     6.001549185998
H                    -1.115631874693    -0.864910463999     0.021000117142
H                    -1.245989161223    -0.550016659027     1.750876322990
H                     0.971652122106     0.252918178757    -0.064479618691
H                     0.772184175443     0.705215841622     1.626100480172
H                     2.650381789470    -1.178012422017     0.554087942107
H                    -2.119684078046    -0.645428638345     4.107883362262
H                    -1.730212868390    -2.365276523294     3.901865429422
H                    -2.268352721727    -1.751478103314     5.484803660366
H                     6.008563339965     1.235255298931     7.293563598620
H                     6.173799559009     1.095658271380     5.537738457981
H                     4.748811306096     1.885003965396     6.225141363884
H                     6.304370061621    -1.296351543749     7.538127810213
H                     5.243729420103    -2.407194814486     6.648542844777
H                     6.465854911669    -1.465802421147     5.784416198062
H                     4.385728015477    -0.122555902085     8.558505924281
H                     3.053034914571     0.525397001515     7.599433376369
H                     3.258530390751    -1.230722202899     7.772719296264
H                     0.196068681598    -2.098181798190     5.525782836637
H                    -0.176535734732    -0.362398381847     5.649697358877
H                     1.578009770743    -3.293501034967     1.652293355072
