
  -OEChem-05262117483D

 24 24  0     1  0  0  0  0  0999 V2000
    0.7920    0.5243   -0.0459 C   0  0  0  0  0  0  0  0  0  0  0  0
    0.0600   -0.4185   -0.7065 C   0  0  0  0  0  0  0  0  0  0  0  0
    1.4959    1.5620   -0.7722 C   0  0  0  0  0  0  0  0  0  0  0  0
   -0.0065   -1.3196    1.5363 C   0  0  0  0  0  0  0  0  0  0  0  0
   -0.7183   -1.3660    0.1696 C   0  0  1  0  0  0  0  0  0  0  0  0
   -2.1928   -0.9230    0.2359 C   0  0  0  0  0  0  0  0  0  0  0  0
    4.2552    3.0343   -1.0530 C   0  0  0  0  0  0  0  0  0  0  0  0
    2.8670    3.5094   -0.6495 C   0  0  0  0  0  0  0  0  0  0  0  0
    1.5043    1.6237   -2.0128 O   0  0  0  0  0  0  0  0  0  0  0  0
   -0.0771   -0.5216   -2.0341 O   0  0  0  0  0  0  0  0  0  0  0  0
    2.1220    2.4529    0.0156 O   0  0  0  0  0  0  0  0  0  0  0  0
    0.7169    0.3739    1.7344 S   0  0  0  0  0  0  0  0  0  0  0  0
   -0.6882   -1.5107    2.3675 H   0  0  0  0  0  0  0  0  0  0  0  0
    0.8126   -2.0430    1.5710 H   0  0  0  0  0  0  0  0  0  0  0  0
   -0.6658   -2.3782   -0.2456 H   0  0  0  0  0  0  0  0  0  0  0  0
   -2.2751    0.0674    0.6942 H   0  0  0  0  0  0  0  0  0  0  0  0
   -2.7754   -1.6310    0.8340 H   0  0  0  0  0  0  0  0  0  0  0  0
   -2.6273   -0.8799   -0.7666 H   0  0  0  0  0  0  0  0  0  0  0  0
    4.8016    2.6544   -0.1846 H   0  0  0  0  0  0  0  0  0  0  0  0
    4.1919    2.2463   -1.8072 H   0  0  0  0  0  0  0  0  0  0  0  0
    4.8198    3.8720   -1.4767 H   0  0  0  0  0  0  0  0  0  0  0  0
    2.2953    3.8549   -1.5131 H   0  0  0  0  0  0  0  0  0  0  0  0
    2.9166    4.3050    0.0962 H   0  0  0  0  0  0  0  0  0  0  0  0
    0.4531    0.2224   -2.4255 H   0  0  0  0  0  0  0  0  0  0  0  0
  1  2  2  0  0  0  0
  1  3  1  0  0  0  0
  1 12  1  0  0  0  0
  2  5  1  0  0  0  0
  2 10  1  0  0  0  0
  3  9  2  0  0  0  0
  3 11  1  0  0  0  0
  4  5  1  0  0  0  0
  4 12  1  0  0  0  0
  4 13  1  0  0  0  0
  4 14  1  0  0  0  0
  5  6  1  0  0  0  0
  5 15  1  0  0  0  0
  6 16  1  0  0  0  0
  6 17  1  0  0  0  0
  6 18  1  0  0  0  0
  7  8  1  0  0  0  0
  7 19  1  0  0  0  0
  7 20  1  0  0  0  0
  7 21  1  0  0  0  0
  8 11  1  0  0  0  0
  8 22  1  0  0  0  0
  8 23  1  0  0  0  0
 10 24  1  0  0  0  0
M  END
$$$$
