43
1 1 C15H24NO3
C                     4.686846295176     1.189869753986     6.994465156583
C                     5.330306510717     1.614491887951     5.827131170837
C                     2.584383067053     1.168654071216     5.789317416221
C                     3.309638198755     0.958301928308     6.977872821018
C                     4.626050379592     1.819188195415     4.643326851331
C                     3.222931031090     1.595122155212     4.620069243042
C                    -0.107152188496     3.766081668726     2.934981474448
C                     0.665357452099     3.343116224564     1.671894597549
C                     0.418290412220     2.831534785869     4.058600532996
C                     0.819036509656     1.827032099249     1.858791960739
C                     1.160826868215     1.671580065198     3.343109207674
C                     3.406936366739    -0.140213296747     9.292074842721
C                     5.332624751409     1.479630536051     2.379051778686
C                     1.873422594050     1.827502437245     8.793022457672
C                     2.544745942397     0.559913616976     8.232934291593
N                     0.815761146143     1.412750352569     9.811069207454
O                     1.394962727396    -0.266850779701     7.926562441090
O                     2.599335651779     1.831372691194     3.441404202646
O                     5.302748877207     2.303402599647     3.563364716868
H                     5.278021839055     1.040842735623     7.891310528602
H                     6.400114020263     1.799650268991     5.816642973773
H                     1.514067790806     1.002922341215     5.787273045903
H                     0.025884973140     4.823108066938     3.179582088142
H                    -1.179107559547     3.600813471503     2.783048701687
H                     0.145194510624     3.608414186658     0.747818628828
H                     1.652672743381     3.816425006165     1.648597925398
H                     1.116222616380     3.355977569746     4.717228274462
H                    -0.396847939972     2.451516184060     4.683961607323
H                    -0.137431618530     1.326248473912     1.667478915357
H                     1.575159738705     1.362807872160     1.220876374052
H                     0.900324638094     0.679287719372     3.726881707948
H                     2.787991216835    -0.522386200149    10.111474934163
H                     4.166265113201     0.523927894451     9.711302136734
H                     3.919204195902    -0.998848777382     8.851321863345
H                     5.995644129254     1.994199106014     1.683068380731
H                     4.337613964042     1.376681559805     1.942815570225
H                     5.745561663000     0.492941615957     2.617613607264
H                     2.581251242858     2.498167811940     9.279311231278
H                     1.342103099403     2.354483170900     8.000743423250
H                     1.232589161266     1.098419105307    10.693835211229
H                     0.310903433088     0.609569092834     9.397907093917
H                     0.151813406258     2.165742916323    10.022671896655
H                     1.680955619551    -1.031240444711     7.398107335058
