
  -OEChem-05262117483D

 55 57  0     1  0  0  0  0  0999 V2000
   -6.1640    5.0376    9.8644 C   0  0  0  0  0  0  0  0  0  0  0  0
   -5.9018    7.4390   10.0733 C   0  0  0  0  0  0  0  0  0  0  0  0
   -6.8001    5.0075   11.1116 C   0  0  0  0  0  0  0  0  0  0  0  0
   -6.5340    7.4081   11.3126 C   0  0  0  0  0  0  0  0  0  0  0  0
   -5.7116    6.2563    9.3396 C   0  0  0  0  0  0  0  0  0  0  0  0
   -6.9825    6.1871   11.8278 C   0  0  0  0  0  0  0  0  0  0  0  0
    0.6393    1.0011    0.2349 C   0  0  0  0  0  0  0  0  0  0  0  0
   -0.0112    0.2380    1.3950 C   0  0  0  0  0  0  0  0  0  0  0  0
    0.7629    2.4885    0.5856 C   0  0  0  0  0  0  0  0  0  0  0  0
   -1.3315    0.8913    1.8091 C   0  0  0  0  0  0  0  0  0  0  0  0
   -0.5876    3.0554    1.0281 C   0  0  0  0  0  0  0  0  0  0  0  0
   -1.3906    3.5639    4.9627 C   0  0  0  0  0  0  0  0  0  0  0  0
   -2.0280    4.0593    3.6644 C   0  0  1  0  0  0  0  0  0  0  0  0
   -3.9083    4.3675    5.1643 C   0  0  2  0  0  0  0  0  0  0  0  0
   -5.1958    3.6500    4.7386 C   0  0  0  0  0  0  0  0  0  0  0  0
   -2.8091    6.3012    6.4206 C   0  0  0  0  0  0  0  0  0  0  0  0
   -5.0071    6.6621    5.2770 C   0  0  0  0  0  0  0  0  0  0  0  0
   -2.3515    2.9134    2.6936 C   0  0  0  0  0  0  0  0  0  0  0  0
   -4.8817    5.2266    7.3397 C   0  0  0  0  0  0  0  0  0  0  0  0
   -4.1495    5.6388    6.0527 C   0  0  0  0  0  0  0  0  0  0  0  0
   -1.1346    2.3021    2.1631 N   0  0  0  0  0  0  0  0  0  0  0  0
   -3.2045    4.8051    3.9991 O   0  0  0  0  0  0  0  0  0  0  0  0
   -5.0806    6.3979    8.1377 O   0  0  0  0  0  0  0  0  0  0  0  0
   -2.8074    3.0939    6.0095 S   0  0  0  0  0  0  0  0  0  0  0  0
   -7.7829    6.1454   13.3945 Cl  0  0  0  0  0  0  0  0  0  0  0  0
   -6.0287    4.1081    9.3242 H   0  0  0  0  0  0  0  0  0  0  0  0
   -5.5461    8.3757    9.6548 H   0  0  0  0  0  0  0  0  0  0  0  0
   -7.1497    4.0640   11.5190 H   0  0  0  0  0  0  0  0  0  0  0  0
   -6.6794    8.3238   11.8771 H   0  0  0  0  0  0  0  0  0  0  0  0
    0.0188    0.8913   -0.6652 H   0  0  0  0  0  0  0  0  0  0  0  0
    1.6212    0.5772   -0.0036 H   0  0  0  0  0  0  0  0  0  0  0  0
   -0.1941   -0.8068    1.1188 H   0  0  0  0  0  0  0  0  0  0  0  0
    0.6646    0.2354    2.2590 H   0  0  0  0  0  0  0  0  0  0  0  0
    1.4840    2.6174    1.4019 H   0  0  0  0  0  0  0  0  0  0  0  0
    1.1334    3.0607   -0.2728 H   0  0  0  0  0  0  0  0  0  0  0  0
   -2.0674    0.7856    0.9868 H   0  0  0  0  0  0  0  0  0  0  0  0
   -1.7460    0.3747    2.6810 H   0  0  0  0  0  0  0  0  0  0  0  0
   -0.4712    4.1037    1.3197 H   0  0  0  0  0  0  0  0  0  0  0  0
   -1.2936    3.0374    0.1735 H   0  0  0  0  0  0  0  0  0  0  0  0
   -0.7644    2.6902    4.7734 H   0  0  0  0  0  0  0  0  0  0  0  0
   -0.7979    4.3443    5.4447 H   0  0  0  0  0  0  0  0  0  0  0  0
   -1.3625    4.7780    3.1767 H   0  0  0  0  0  0  0  0  0  0  0  0
   -4.9500    2.8389    4.0523 H   0  0  0  0  0  0  0  0  0  0  0  0
   -5.8704    4.3396    4.2260 H   0  0  0  0  0  0  0  0  0  0  0  0
   -5.7213    3.2157    5.5933 H   0  0  0  0  0  0  0  0  0  0  0  0
   -2.9910    7.1971    7.0179 H   0  0  0  0  0  0  0  0  0  0  0  0
   -2.1781    5.6281    7.0076 H   0  0  0  0  0  0  0  0  0  0  0  0
   -2.2705    6.5932    5.5161 H   0  0  0  0  0  0  0  0  0  0  0  0
   -5.0731    7.5919    5.8468 H   0  0  0  0  0  0  0  0  0  0  0  0
   -6.0291    6.3077    5.1136 H   0  0  0  0  0  0  0  0  0  0  0  0
   -4.5552    6.8790    4.3063 H   0  0  0  0  0  0  0  0  0  0  0  0
   -3.0130    3.3015    1.9002 H   0  0  0  0  0  0  0  0  0  0  0  0
   -2.9133    2.1511    3.2406 H   0  0  0  0  0  0  0  0  0  0  0  0
   -4.2836    4.4971    7.8987 H   0  0  0  0  0  0  0  0  0  0  0  0
   -5.8590    4.7848    7.1119 H   0  0  0  0  0  0  0  0  0  0  0  0
  1  3  1  0  0  0  0
  1  5  2  0  0  0  0
  1 26  1  0  0  0  0
  2  4  2  0  0  0  0
  2  5  1  0  0  0  0
  2 27  1  0  0  0  0
  3  6  2  0  0  0  0
  3 28  1  0  0  0  0
  4  6  1  0  0  0  0
  4 29  1  0  0  0  0
  5 23  1  0  0  0  0
  6 25  1  0  0  0  0
  7  8  1  0  0  0  0
  7  9  1  0  0  0  0
  7 30  1  0  0  0  0
  7 31  1  0  0  0  0
  8 10  1  0  0  0  0
  8 32  1  0  0  0  0
  8 33  1  0  0  0  0
  9 11  1  0  0  0  0
  9 34  1  0  0  0  0
  9 35  1  0  0  0  0
 10 21  1  0  0  0  0
 10 36  1  0  0  0  0
 10 37  1  0  0  0  0
 11 21  1  0  0  0  0
 11 38  1  0  0  0  0
 11 39  1  0  0  0  0
 12 13  1  0  0  0  0
 12 24  1  0  0  0  0
 12 40  1  0  0  0  0
 12 41  1  0  0  0  0
 13 18  1  0  0  0  0
 13 22  1  0  0  0  0
 13 42  1  0  0  0  0
 14 15  1  0  0  0  0
 14 20  1  0  0  0  0
 14 22  1  0  0  0  0
 14 24  1  0  0  0  0
 15 43  1  0  0  0  0
 15 44  1  0  0  0  0
 15 45  1  0  0  0  0
 16 20  1  0  0  0  0
 16 46  1  0  0  0  0
 16 47  1  0  0  0  0
 16 48  1  0  0  0  0
 17 20  1  0  0  0  0
 17 49  1  0  0  0  0
 17 50  1  0  0  0  0
 17 51  1  0  0  0  0
 18 21  1  0  0  0  0
 18 52  1  0  0  0  0
 18 53  1  0  0  0  0
 19 20  1  0  0  0  0
 19 23  1  0  0  0  0
 19 54  1  0  0  0  0
 19 55  1  0  0  0  0
M  END
$$$$
