18   
torsion grid (-165,)
C        1.4199395492    0.7333682222    1.7955799418
C        0.0379550380    0.7144255013    1.4281145927
C        1.6133419243   -0.2740474495    2.7246517838
C       -0.5722564248   -0.3033979077    2.1457179558
C       -2.8438927944   -0.2916085161    1.0564898772
C       -1.9974580327   -0.7779010467    2.2407009007
N        0.3968603784   -0.8843607672    2.9347675517
N       -1.9859101584   -2.2460978147    2.4330151969
H        2.1828750054    1.4044936700    1.4220016203
H       -0.4505865984    1.3768966230    0.7254467572
H        2.5059411467   -0.6041154195    3.2385087265
H       -2.4428764927   -0.6726053383    0.1107483209
H       -3.8774490883   -0.6395523226    1.1608767208
H       -2.8616285714    0.8018469914    1.0020620703
H       -2.4395463506   -0.3663895454    3.1595247623
H        0.2136459433   -1.7124315093    3.4870243758
H       -1.6849648110   -2.6913010956    1.5649576171
H       -2.9347380641   -2.5728743878    2.6137586876
18   
torsion grid (-150,)
C        1.4085078188    0.7863974706    1.8544107815
C        0.0118757282    0.8322263642    1.5526358789
C        1.6248963344   -0.3332822203    2.6394485274
C       -0.5850113520   -0.2585595235    2.1683027126
C       -2.8044503983   -0.3656713471    0.9800190246
C       -2.0143184198   -0.7330725235    2.2446024226
N        0.4089680886   -0.9536242997    2.8194521326
N       -2.0085142956   -2.1828850985    2.5478709995
H        2.1669392842    1.4872501697    1.5291811468
H       -0.4934695524    1.5801199380    0.9551919233
H        2.5323119805   -0.7356248343    3.0687624179
H       -2.3569738755   -0.8378221217    0.0986020120
H       -3.8440543252   -0.7008559773    1.0685938477
H       -2.8133493380    0.7165140114    0.8135194998
H       -2.5004340068   -0.2526511357    3.1050734296
H        0.2159198211   -1.8055820024    3.3309344332
H       -1.7488723107   -2.6961525618    1.7043524020
H       -2.9526964050   -2.4823924313    2.7872941563
18   
torsion grid (-135,)
C        1.7032935081    0.0258151154    1.8775629129
C        0.5460860547   -0.6836083665    1.4293637991
C        1.3250815049    0.7833078060    2.9729699611
C       -0.5079240727   -0.3308849531    2.2600752681
C       -2.1050634655   -2.2732070067    2.0972851372
C       -1.9565861834   -0.7565093091    2.2984885046
N       -0.0131898768    0.5463556026    3.1970724992
N       -2.5567464722   -0.2782044449    3.5665879896
H        2.6978908323   -0.0187445793    1.4519853661
H        0.4955812584   -1.3739788663    0.5967686202
H        1.8917373532    1.4550584952    3.6031505882
H       -1.5945807220   -2.8128058038    2.9026423704
H       -3.1632697306   -2.5595275984    2.0954523172
H       -1.6639690236   -2.5972755945    1.1490949746
H       -2.4983363592   -0.2421330697    1.4941273127
H       -0.6165224130    0.9876119926    3.8799631957
H       -2.3131851020   -0.9296493112    4.3138030606
H       -3.5720275996   -0.3018356368    3.4901301746
18   
torsion grid (-120,)
C        1.6491137772    0.1478199025    1.6230307785
C        0.4716741360   -0.5370679668    1.1882387854
C        1.3743674183    0.6943844485    2.8646228545
C       -0.4857415766   -0.3929439266    2.1809318437
C       -2.0188171334   -2.3864560935    2.2598991047
C       -1.9211774481   -0.8554962973    2.2700640458
N        0.0705139543    0.3739755924    3.1780780947
N       -2.5350087908   -0.3113834217    3.5020221223
H        2.5857152195    0.2345058757    1.0867063217
H        0.3390880075   -1.0646948413    0.2515157080
H        1.9873744359    1.2802629813    3.5357339875
H       -1.5357807552   -2.8044707220    3.1491936427
H       -3.0664640121   -2.7122590738    2.2389664460
H       -1.5176849792   -2.7924740308    1.3778945608
H       -2.4480510081   -0.4939104893    1.3726037281
H       -0.4060123984    0.5258193728    4.0582622349
H       -3.3681658984   -0.8495669560    3.7320224272
H       -2.8488865275    0.6434732138    3.3337470601
18   
torsion grid (-105,)
C        1.6188882945    0.1988450131    1.6029802206
C        0.4179691819   -0.4088600657    1.1202571104
C        1.3894143932    0.5846928132    2.9125757989
C       -0.5063349747   -0.3833489023    2.1532299041
C       -1.9876852321   -2.4081696788    2.3779806447
C       -1.9276594822   -0.8791998960    2.2463553170
N        0.0947461563    0.2318695479    3.2268006965
N       -2.5788392788   -0.2537615425    3.4182938850
H        2.5395172859    0.3459284616    1.0524476865
H        0.2486400478   -0.8134826720    0.1297366937
H        2.0285279148    1.0800589345    3.6306141267
H       -1.5062000932   -2.7286391658    3.3075735793
H       -3.0266440722   -2.7618680776    2.3799831586
H       -1.4666332592   -2.8799379205    1.5413003938
H       -2.4360251270   -0.6127878983    1.3061648826
H       -0.3781200736    0.3377419106    4.1155103999
H       -3.4627588284   -0.7235546599    3.6065200798
H       -2.8062106420    0.7165234670    3.2034218900
18   
torsion grid (-90,)
C        1.5949024739    0.2729042220    1.5735136055
C        0.3730446199   -0.2621775822    1.0572959149
C        1.4101550564    0.4910651002    2.9279530271
C       -0.5185227546   -0.3603564845    2.1135014276
C       -1.9431247030   -2.4066728815    2.4765695556
C       -1.9224343122   -0.8945218944    2.2025018207
N        0.1263090630    0.0991765936    3.2397548680
N       -2.6249822292   -0.1966027212    3.3020069787
H        2.4996551393    0.4824388286    1.0170456812
H        0.1700104300   -0.5456099483    0.0316963550
H        2.0732697239    0.8980858512    3.6790759494
H       -1.4685797205   -2.6249137655    3.4384821762
H       -2.9722515270   -2.7870333241    2.5016580673
H       -1.3988446561   -2.9406815933    1.6934807629
H       -2.4013699022   -0.7261512674    1.2251366340
H       -0.3365171376    0.1624436258    4.1375128029
H       -3.5413536702   -0.6184846944    3.4449067166
H       -2.7864030285    0.7752023180    3.0393622673
18   
torsion grid (-75,)
C        1.5650329037    0.3450482306    1.5605459799
C        0.3203292066   -0.1226739453    1.0323584558
C        1.4381017903    0.3853878475    2.9378364166
C       -0.5276582793   -0.3553868422    2.1023582999
C       -1.9193641166   -2.3985242131    2.5941554379
C       -1.9175687443   -0.9184711668    2.1789787580
N        0.1708243062   -0.0560684648    3.2526130090
N       -2.6800988298   -0.1501474311    3.1902145364
H        2.4475049595    0.6232445533    0.9985581196
H        0.0750120574   -0.2807524673   -0.0107941591
H        2.1326266314    0.6973514410    3.7059940309
H       -1.4807271164   -2.5152450901    3.5898306582
H       -2.9416139238   -2.7961644345    2.6196266885
H       -1.3368856566   -2.9941683164    1.8860742407
H       -2.3535818378   -0.8451114064    1.1705154646
H       -0.2641020480   -0.0465983790    4.1660269462
H       -3.6201224055   -0.5344341058    3.2782723860
H       -2.7822239695    0.8145563301    2.8768848564
18   
torsion grid (-60,)
C        1.5273266929    0.4357961500    1.5473348461
C        0.2600590371    0.0175833186    1.0312945482
C        1.4800115643    0.2841628550    2.9211370192
C       -0.5241453634   -0.3729911289    2.1036465736
C       -1.9194578916   -2.3851244477    2.7186185286
C       -1.9065852376   -0.9531665001    2.1616628657
N        0.2405913513   -0.2274157580    3.2432909497
N       -2.7382081872   -0.1101404019    3.0545908475
H        2.3745683749    0.7992950287    0.9799574966
H       -0.0415499625   -0.0102215770   -0.0087224874
H        2.2154061105    0.4983270585    3.6848103410
H       -1.5542849649   -2.3993312332    3.7498747337
H       -2.9372802563   -2.7934371153    2.7153590916
H       -1.2848578204   -3.0400776572    2.1149256851
H       -2.2833167597   -0.9781658732    1.1274595383
H       -0.1379510199   -0.3140076383    4.1769381895
H       -3.6936985386   -0.4661463800    3.0741601875
H       -2.7812698174    0.8370992517    2.6807327457
18   
torsion grid (-45,)
C        1.4775929740    0.5504340998    1.5609520681
C        0.1923204746    0.1624474070    1.0688433421
C        1.5259659996    0.1980783849    2.8971942399
C       -0.5101494145   -0.4088161214    2.1174117721
C       -1.9281979140   -2.3740864356    2.8498992487
C       -1.8868405306   -1.0063075816    2.1546044097
N        0.3252337490   -0.4002923089    3.2163403141
N       -2.7909798924   -0.0934595878    2.8986743239
H        2.2758284027    1.0213139548    1.0015809422
H       -0.1759345747    0.2711513709    0.0558397531
H        2.3075659612    0.3165883247    3.6353350666
H       -1.6541001291   -2.2810475476    3.9053452561
H       -2.9399416943   -2.7938604948    2.8109400900
H       -1.2452260292   -3.0799647732    2.3683136250
H       -2.1953394242   -1.1386301784    1.1060230731
H        0.0324848023   -0.6557779093    4.1489592210
H       -3.7522223821   -0.4274428105    2.8248075526
H       -2.7633299629    0.8292219996    2.4669032992
18   
torsion grid (-30,)
C        1.4292282202    0.6542219872    1.5860360537
C        0.1246087083    0.2997642135    1.1233459496
C        1.5728020867    0.1171454832    2.8522718885
C       -0.4975283288   -0.4351366340    2.1207636164
C       -1.9437783321   -2.3332139255    2.9811137062
C       -1.8703188235   -1.0476979402    2.1486495393
N        0.4062003606   -0.5517990494    3.1569525990
N       -2.8279923243   -0.0740357415    2.7327404324
H        2.1793098034    1.2228118512    1.0513444424
H       -0.3095441818    0.5382110045    0.1596861875
H        2.4008055656    0.1458488592    3.5473952060
H       -1.7495514485   -2.1212846063    4.0376580799
H       -2.9478298404   -2.7673055205    2.9222170544
H       -1.2283128939   -3.0807660825    2.6249490281
H       -2.1206287729   -1.2960210307    1.1053526987
H        0.1999168676   -0.9789603943    4.0483413274
H       -3.7822266950   -0.4038234597    2.5842060822
H       -2.7412868622    0.8144469300    2.2417800993
18   
torsion grid (-15,)
C        1.3725711932    0.7341917354    1.6303105013
C        0.0471610726    0.4193175580    1.2014492626
C        1.5998958300    0.0360362508    2.8022953339
C       -0.5060930404   -0.4533417959    2.1268526644
C       -1.9643049037   -2.2912074918    3.0964311564
C       -1.8687919824   -1.0946122249    2.1439859230
N        0.4594993850   -0.6863082585    3.0839988913
N       -2.8755712520   -0.0911700353    2.5715076553
H        2.0815132111    1.3842938724    1.1336955985
H       -0.4447272487    0.7762352125    0.3042566616
H        2.4674392440   -0.0115131841    3.4461352679
H       -1.8154114175   -1.9707291044    4.1330500460
H       -2.9622083489   -2.7385628101    3.0413152816
H       -1.2346913076   -3.0674549273    2.8427240556
H       -2.0629322073   -1.4551371742    1.1208779990
H        0.3222812419   -1.2506769939    3.9097560969
H       -3.8110416178   -0.4330395935    2.3497546302
H       -2.7401591971    0.7678818320    2.0414516564
18   
torsion grid (0,)
C        1.3508702238    0.7811913824    1.7042071256
C        0.0009164276    0.5218284960    1.3178537586
C        1.6415509839   -0.0565070934    2.7652555641
C       -0.5042290722   -0.4598090573    2.1582928505
C       -1.9917654371   -2.2231825196    3.2178157113
C       -1.8586349866   -1.1230313394    2.1597268643
N        0.5134760204   -0.8075073132    3.0220527006
N       -2.9017545508   -0.1036178115    2.4253003451
H        2.0322121162    1.4917477440    1.2539391954
H       -0.5366504247    0.9904395452    0.5019012046
H        2.5428648517   -0.1800510777    3.3497679258
H       -1.8632855657   -1.8069571941    4.2223834897
H       -2.9928036449   -2.6641822332    3.1754259227
H       -1.2700105632   -3.0318638130    3.0556754993
H       -1.9935165080   -1.5892396128    1.1692983345
H        0.4228697130   -1.4737887241    3.7750144181
H       -3.8102836087   -0.4664357803    2.1367653330
H       -2.7214069819    0.7250205402    1.8621185931
18   
torsion grid (15,)
C        1.7390634018   -0.0509006432    1.8189795528
C        0.7195489674   -0.9612665530    1.4046849533
C        1.1373004279    0.9038682814    2.6169235189
C       -0.4823618131   -0.5371977333    1.9524761237
C       -2.9587719428   -0.2370706412    2.4179341169
C       -1.8549990185   -1.1612179645    1.8908677027
N       -0.2043604371    0.5914838012    2.6963554975
N       -2.1756970375   -1.5055526595    0.4880985364
H        2.7904493640   -0.0921517353    1.5645909474
H        0.8595039924   -1.8378978437    0.7836257343
H        1.5430739278    1.7682952048    3.1242391110
H       -2.9886668916    0.6919887922    1.8403656903
H       -3.9338086426   -0.7241516556    2.3149871399
H       -2.8260603061   -0.0080524802    3.4819844328
H       -1.8384480094   -2.0600186672    2.5319143826
H       -0.8979576892    1.1486435719    3.1732211685
H       -2.9463464302   -2.1730155505    0.4760952564
H       -1.3810003019   -1.9702016082    0.0542021976
18   
torsion grid (30,)
C        1.7314537199    0.0153422489    1.7404519589
C        0.6927414569   -0.8481048690    1.2735790244
C        1.1802831610    0.8379736476    2.7037003737
C       -0.4685988531   -0.5322371764    1.9615190551
C       -2.9535464055   -0.1649215306    2.2976392658
C       -1.8435437643   -1.1527131806    1.9159709664
N       -0.1508728069    0.4943236603    2.8291978387
N       -2.1141077031   -1.6567454232    0.5557431987
H        2.7605719606    0.0340247919    1.4052140520
H        0.7935451684   -1.6075177970    0.5086496519
H        1.6123761777    1.6332090897    3.2954986412
H       -2.9379656617    0.7043278371    1.6339176767
H       -3.9326945994   -0.6474333825    2.2065797041
H       -2.8628446140    0.1691500698    3.3376588838
H       -1.8643324426   -1.9707249499    2.6594833824
H       -0.8090916605    0.9582222759    3.4375679956
H       -2.9563106814   -2.2306687729    0.5825246337
H       -1.3607135963   -2.2759385854    0.2624930477
18   
torsion grid (45,)
C        1.7040798255    0.1168030156    1.6733678559
C        0.6439195570   -0.7018283515    1.1716789151
C        1.2225853884    0.7786811895    2.7856820221
C       -0.4561860575   -0.5254961255    1.9943846732
C       -2.9419484146   -0.0928738103    2.1619391635
C       -1.8345224156   -1.1351756855    1.9518306493
N       -0.0898695570    0.3867959084    2.9656612315
N       -2.0380726510   -1.7998895915    0.6540057122
H        2.6995836693    0.2161173221    1.2598733904
H        0.6752090919   -1.3211715132    0.2853159517
H        1.6910561902    1.4909718321    3.4509938264
H       -2.8916337958    0.6756875624    1.3855395401
H       -3.9275843985   -0.5704422803    2.1172502799
H       -2.8641346902    0.3887208708    3.1425227552
H       -1.9073275387   -1.8555421108    2.7888612797
H       -0.6882690707    0.7090704786    3.7120266736
H       -2.9372402307   -2.2791564941    0.6704384402
H       -1.3329975274   -2.5254717515    0.5316819422
18   
torsion grid (60,)
C        1.6573318566    0.2104574695    1.6232420242
C        0.5733619911   -0.5608233486    1.0958926628
C        1.2557660720    0.7028307302    2.8495090583
C       -0.4583409481   -0.5263059539    2.0181390805
C       -2.9339717573   -0.0443464913    2.0249362866
C       -1.8406088243   -1.1230467740    1.9842187706
N       -0.0325895948    0.2561659911    3.0748968498
N       -1.9926452765   -1.9233080771    0.7595570383
H        2.6161692326    0.3899998733    1.1538229056
H        0.5323988243   -1.0563229446    0.1355016955
H        1.7683873097    1.3231539180    3.5719943472
H       -2.8471923697    0.6081181387    1.1515169481
H       -3.9299967824   -0.5033426016    2.0236786071
H       -2.8544049733    0.5691814985    2.9281525268
H       -1.9616103063   -1.7420222239    2.8941943010
H       -0.5678748134    0.4396758086    3.9114406744
H       -2.9117365625   -2.3625838465    0.7616757761
H       -1.3083468917   -2.6786089939    0.7616182286
18   
torsion grid (75,)
C        1.6073144363    0.2871904781    1.5891146551
C        0.4910656560   -0.4224254727    1.0434043395
C        1.2942665151    0.6100094447    2.8956064592
C       -0.4718393957   -0.5187394694    2.0333340118
C       -2.9357127286   -0.0124815790    1.8943419782
C       -1.8584459647   -1.1028095306    2.0145457732
N        0.0280665799    0.1194025559    3.1523153126
N       -1.9758775390   -2.0212206910    0.8716992426
H        2.5320046972    0.5334371029    1.0827592219
H        0.3825630413   -0.8046882266    0.0375707306
H        1.8587727580    1.1315368317    3.6564763343
H       -2.8101934631    0.5285287079    0.9523652297
H       -3.9403074254   -0.4527444290    1.9165859964
H       -2.8634490343    0.7027505981    2.7198702787
H       -2.0183510675   -1.6187748010    2.9810548730
H       -0.4475786118    0.1826521591    4.0413079390
H       -2.8975577620   -2.4547630444    0.8785852257
H       -1.2912049252   -2.7701320036    0.9636627446
18   
torsion grid (90,)
C        1.5713198893    0.3555889224    1.5753863381
C        0.4160415919   -0.2753569024    1.0168159447
C        1.3448093394    0.5119649521    2.9302643507
C       -0.4858647640   -0.4887908291    2.0458076407
C       -2.9415150253    0.0050355150    1.7697544731
C       -1.8741365218   -1.0681249847    2.0410916522
N        0.0937906892   -0.0061575374    3.2032170939
N       -1.9609359685   -2.0947659937    0.9894564850
H        2.4672709165    0.6566263259    1.0473417919
H        0.2474839960   -0.5452443911   -0.0170192670
H        1.9621602261    0.9311903457    3.7129659566
H       -2.7777476457    0.4453282406    0.7825697337
H       -3.9487564507   -0.4291548514    1.7980161382
H       -2.8933318343    0.8006285371    2.5199859468
H       -2.0654097424   -1.4818429818    3.0498508263
H       -0.3329876799   -0.0414878256    4.1182648591
H       -2.8761358106   -2.5413070633    1.0202653798
H       -1.2628476874   -2.8176018510    1.1558508304
18   
torsion grid (105,)
C        1.5457902447    0.4191313878    1.5715114057
C        0.3473083181   -0.1188704967    1.0094928689
C        1.4007952199    0.4081949632    2.9471779319
C       -0.5011376287   -0.4429105511    2.0556642753
C       -2.9481401575    0.0088542175    1.6484062384
C       -1.8883667150   -1.0247721612    2.0618640722
N        0.1577724583   -0.1228328236    3.2271804461
N       -1.9447963017   -2.1537364492    1.1144807036
H        2.4169116671    0.7694606942    1.0323966074
H        0.1220089683   -0.2667405988   -0.0383699527
H        2.0693931057    0.7214244424    3.7372868124
H       -2.7473020190    0.3557652027    0.6314554310
H       -3.9532112944   -0.4301902586    1.6746488956
H       -2.9336112105    0.8713791472    2.3220045819
H       -2.1092228470   -1.3359593519    3.1005364921
H       -0.2250682673   -0.2500527464    4.1534873782
H       -2.8468370741   -2.6222176212    1.1893631587
H       -1.2248935666   -2.8355699406    1.3469968952
18   
torsion grid (120,)
C        1.5231605670    0.4817780025    1.5788737989
C        0.2816820998    0.0449921801    1.0243966637
C        1.4542059774    0.2970627965    2.9485133725
C       -0.5181997915   -0.3919475902    2.0681244097
C       -2.9497067277    0.0054507587    1.5325411024
C       -1.9042404407   -0.9765122361    2.0808861901
N        0.2153947908   -0.2409145545    3.2300054069
N       -1.9329116017   -2.1978808951    1.2496736793
H        2.3718900540    0.8819632418    1.0387797723
H        0.0016405890    0.0319887290   -0.0208035507
H        2.1710420716    0.5000881307    3.7323017508
H       -2.7132405928    0.2577733197    0.4956256331
H       -3.9520721585   -0.4390243849    1.5583597526
H       -2.9657019503    0.9264827838    2.1231662429
H       -2.1588015263   -1.1850469044    3.1370735057
H       -0.1264971099   -0.4612277628    4.1549463115
H       -2.8236927048   -2.6785678504    1.3721112717
H       -1.1976384719   -2.8365171430    1.5473424051
18   
torsion grid (135,)
C        1.4754427192    0.4101412412    1.5928548590
C        0.1771577103    0.0725904016    1.0999415914
C        1.5068298637    0.0741031139    2.9339215703
C       -0.5486059960   -0.4681200738    2.1508872752
C       -2.9429474103   -0.0753839749    1.4858129136
C       -1.9534730813   -1.0010726321    2.2161422656
N        0.2707355595   -0.4427805725    3.2602951482
N       -1.9739711953   -2.4089762090    1.7594675704
H        2.2873773884    0.8582986711    1.0344537478
H       -0.1885339942    0.2264348687    0.0923776972
H        2.2900987838    0.1692521625    3.6733990447
H       -2.6975950231   -0.0026181747    0.4205115937
H       -3.9643205486   -0.4647761574    1.5702341093
H       -2.9225702705    0.9346549287    1.9076970156
H       -2.2483112981   -1.0197264896    3.2746574334
H        0.0259339917   -0.8471861945    4.1534653460
H       -1.5546579087   -2.4604805257    0.8316404694
H       -2.9408561431   -2.7212521859    1.6629881378
18   
torsion grid (150,)
C        1.4457160846    0.4916846427    1.6180903107
C        0.1192502571    0.2441706825    1.1452717879
C        1.5300406660   -0.0288937305    2.8962628324
C       -0.5688758209   -0.4272858687    2.1443186642
C       -2.9376523319   -0.1127154669    1.3523135888
C       -1.9782625115   -0.9459088601    2.2173755373
N        0.2985820417   -0.5640071774    3.2091880835
N       -1.9830659211   -2.3991458068    1.9319877690
H        2.2396577044    1.0045239049    1.0903517539
H       -0.2884984619    0.5436740711    0.1883500589
H        2.3493968995   -0.0524109894    3.6017518411
H       -2.6588238604   -0.1648774439    0.2938733896
H       -3.9607395034   -0.4937158048    1.4470104089
H       -2.9317207070    0.9390812973    1.6553833128
H       -2.3125373617   -0.8446346236    3.2595326941
H        0.0938482978   -1.1140974268    4.0321460183
H       -1.5871060225   -2.5527812285    1.0046129681
H       -2.9457789878   -2.7368139148    1.9003715599
18   
torsion grid (165,)
C        1.4469234267    0.5842180491    1.6808184708
C        0.0993595446    0.4208065599    1.2295781040
C        1.5738660536   -0.1264209394    2.8601193379
C       -0.5566945520   -0.3900400888    2.1423421122
C       -2.8946852107   -0.1474864139    1.2388395083
C       -1.9751882251   -0.8802554532    2.2264262785
N        0.3482402895   -0.6915144084    3.1405611256
N       -1.9821248481   -2.3571449002    2.1210285604
H        2.2270839051    1.1638123516    1.2041014245
H       -0.3418397617    0.8649378439    0.3467791332
H        2.4225162573   -0.2693271248    3.5152220459
H       -2.5787952563   -0.3210956698    0.2038018162
H       -3.9232226239   -0.5103424157    1.3412654323
H       -2.8924959135    0.9317856715    1.4215366737
H       -2.3442748900   -0.6559093363    3.2375047802
H        0.1690705540   -1.3809060355    3.8583929637
H       -1.6138301365   -2.6240985641    1.2075943983
H       -2.9432428790   -2.6978167731    2.1616122637
18   
torsion grid (180,)
C        1.4345258159    0.6694035680    1.7398909938
C        0.0687770070    0.5781599589    1.3238838792
C        1.5998012082   -0.2010723212    2.8020742165
C       -0.5589938188   -0.3478450625    2.1421866608
C       -2.8679945293   -0.2174259301    1.1451384603
C       -1.9807583984   -0.8267470048    2.2390402132
N        0.3808641562   -0.7945519335    3.0483410961
N       -1.9757099629   -2.3059620748    2.2994670613
H        2.2030545344    1.3023428754    1.3148481046
H       -0.4003911248    1.1396872932    0.5265411799
H        2.4736155036   -0.4436503312    3.3915008170
H       -2.5085125515   -0.4962935341    0.1481308476
H       -3.8972568672   -0.5772586705    1.2500160982
H       -2.8831698859    0.8753481818    1.2101693349
H       -2.3837909067   -0.4967949158    3.2075687852
H        0.2089880267   -1.5758865345    3.6676680947
H       -1.6405865704   -2.6723543887    1.4076265558
H       -2.9304084286   -2.6461374243    2.4160105089
