29
1 1 C11H15N2O
C                     2.550446477440    -6.400554602625     2.183091938257
C                     2.379955010100    -5.165339351825     1.544490865994
C                     1.448089097745    -7.053319764403     2.740645895841
C                     1.112786007280    -4.585267644485     1.465612711117
C                     0.177498302786    -6.468900220681     2.665708005058
C                     0.002034993298    -5.233349889579     2.028008100418
C                    -0.885232366460    -2.841718801289     3.628623601919
C                     0.352069774047    -2.739070963919     5.567597530807
C                    -0.448125571527    -1.440929922763     5.357808136111
C                    -1.933158869312    -4.584868412030     0.513784689178
C                    -1.384366668142    -4.620172205052     1.942532926093
N                    -0.243192790642    -3.593996261418     4.524345700057
N                    -1.390562862311    -3.224053860463     2.470392517259
O                    -1.003014867851    -1.575501460180     3.998620830926
H                     3.536642389585    -6.852115613771     2.239470986292
H                     3.234168908216    -4.659353231869     1.103630955779
H                     1.571988189178    -8.015092851791     3.229905528517
H                     0.990511251754    -3.626540866254     0.966826856753
H                    -0.678933879738    -6.985240385986     3.095067100574
H                     1.423250085696    -2.609663412895     5.389372186159
H                     0.194609613026    -3.168191400513     6.557781078990
H                    -1.296407943456    -1.345686115962     6.036815550315
H                     0.154465425475    -0.535032842262     5.368568287927
H                    -1.286342352605    -3.994947250978    -0.141666285074
H                    -1.971964058600    -5.602723726664     0.121343493595
H                    -2.946910795685    -4.171482832249     0.488173104860
H                    -2.068522944854    -5.202185214865     2.569758953205
H                     0.121187915495    -4.510972428841     4.274296709553
H                    -1.907026913292    -2.512247868114     1.961578347287
