
  -OEChem-05262117483D

 35 37  0     1  0  0  0  0  0999 V2000
    0.7338   -6.4783    2.5374 C   0  0  0  0  0  0  0  0  0  0  0  0
    1.3184   -6.5769    1.2697 C   0  0  0  0  0  0  0  0  0  0  0  0
    0.6369   -5.2274    3.1556 C   0  0  0  0  0  0  0  0  0  0  0  0
    0.6771    2.8505   -0.0788 C   0  0  0  0  0  0  0  0  0  0  0  0
    1.2481    2.4115    1.1219 C   0  0  0  0  0  0  0  0  0  0  0  0
    1.7995   -5.4315    0.6288 C   0  0  0  0  0  0  0  0  0  0  0  0
    1.1202   -4.0844    2.5100 C   0  0  0  0  0  0  0  0  0  0  0  0
   -0.1189    1.9847   -0.8339 C   0  0  0  0  0  0  0  0  0  0  0  0
    1.0370    1.0988    1.5609 C   0  0  0  0  0  0  0  0  0  0  0  0
    1.7090   -4.1709    1.2393 C   0  0  0  0  0  0  0  0  0  0  0  0
   -0.3448    0.6690   -0.4084 C   0  0  0  0  0  0  0  0  0  0  0  0
    0.2569    0.2399    0.7915 C   0  0  0  0  0  0  0  0  0  0  0  0
   -1.1581   -1.4292   -0.8305 C   0  0  0  0  0  0  0  0  0  0  0  0
   -0.1835   -1.9976    0.1854 C   0  0  1  0  0  0  0  0  0  0  0  0
    2.1812   -2.9294    0.5159 C   0  0  0  0  0  0  0  0  0  0  0  0
    1.1409   -2.3906   -0.4854 C   0  0  0  0  0  0  0  0  0  0  0  0
   -1.2047   -0.1765   -1.1311 N   0  0  0  0  0  0  0  0  0  0  0  0
   -1.9257   -2.3484   -1.5144 N   0  0  0  0  0  0  0  0  0  0  0  0
    0.0208   -1.0438    1.2410 O   0  0  0  0  0  0  0  0  0  0  0  0
    0.3619   -7.3679    3.0393 H   0  0  0  0  0  0  0  0  0  0  0  0
    1.4041   -7.5459    0.7838 H   0  0  0  0  0  0  0  0  0  0  0  0
    0.1860   -5.1408    4.1412 H   0  0  0  0  0  0  0  0  0  0  0  0
    0.8446    3.8680   -0.4214 H   0  0  0  0  0  0  0  0  0  0  0  0
    1.8599    3.0849    1.7161 H   0  0  0  0  0  0  0  0  0  0  0  0
    2.2573   -5.5169   -0.3552 H   0  0  0  0  0  0  0  0  0  0  0  0
    1.0340   -3.1123    2.9899 H   0  0  0  0  0  0  0  0  0  0  0  0
   -0.5891    2.3116   -1.7573 H   0  0  0  0  0  0  0  0  0  0  0  0
    1.4700    0.7331    2.4881 H   0  0  0  0  0  0  0  0  0  0  0  0
   -0.6142   -2.8689    0.6860 H   0  0  0  0  0  0  0  0  0  0  0  0
    2.4167   -2.1426    1.2378 H   0  0  0  0  0  0  0  0  0  0  0  0
    3.1034   -3.1461   -0.0343 H   0  0  0  0  0  0  0  0  0  0  0  0
    1.5502   -1.5169   -1.0043 H   0  0  0  0  0  0  0  0  0  0  0  0
    0.9218   -3.1464   -1.2480 H   0  0  0  0  0  0  0  0  0  0  0  0
   -2.6601   -1.9395   -2.0833 H   0  0  0  0  0  0  0  0  0  0  0  0
   -2.1951   -3.1867   -1.0143 H   0  0  0  0  0  0  0  0  0  0  0  0
  1  2  1  0  0  0  0
  1  3  2  0  0  0  0
  1 20  1  0  0  0  0
  2  6  2  0  0  0  0
  2 21  1  0  0  0  0
  3  7  1  0  0  0  0
  3 22  1  0  0  0  0
  4  5  1  0  0  0  0
  4  8  2  0  0  0  0
  4 23  1  0  0  0  0
  5  9  2  0  0  0  0
  5 24  1  0  0  0  0
  6 10  1  0  0  0  0
  6 25  1  0  0  0  0
  7 10  2  0  0  0  0
  7 26  1  0  0  0  0
  8 11  1  0  0  0  0
  8 27  1  0  0  0  0
  9 12  1  0  0  0  0
  9 28  1  0  0  0  0
 10 15  1  0  0  0  0
 11 12  2  0  0  0  0
 11 17  1  0  0  0  0
 12 19  1  0  0  0  0
 13 14  1  0  0  0  0
 13 17  2  0  0  0  0
 13 18  1  0  0  0  0
 14 16  1  0  0  0  0
 14 19  1  0  0  0  0
 14 29  1  0  0  0  0
 15 16  1  0  0  0  0
 15 30  1  0  0  0  0
 15 31  1  0  0  0  0
 16 32  1  0  0  0  0
 16 33  1  0  0  0  0
 18 34  1  0  0  0  0
 18 35  1  0  0  0  0
M  END
$$$$
