
  -OEChem-05262117483D

 36 38  0     1  0  0  0  0  0999 V2000
   -3.0729    1.5032    3.9393 C   0  0  0  0  0  0  0  0  0  0  0  0
   -3.5494    0.2082    3.7092 C   0  0  0  0  0  0  0  0  0  0  0  0
   -1.6938    1.7295    4.0060 C   0  0  0  0  0  0  0  0  0  0  0  0
   -0.2842    2.6180   -0.5360 C   0  0  0  0  0  0  0  0  0  0  0  0
   -1.4659    2.3418    0.1640 C   0  0  0  0  0  0  0  0  0  0  0  0
   -2.6508   -0.8510    3.5442 C   0  0  0  0  0  0  0  0  0  0  0  0
   -0.8016    0.6669    3.8450 C   0  0  0  0  0  0  0  0  0  0  0  0
    0.6011    1.5857   -0.8508 C   0  0  0  0  0  0  0  0  0  0  0  0
   -1.7768    1.0405    0.5664 C   0  0  0  0  0  0  0  0  0  0  0  0
   -1.2686   -0.6350    3.6101 C   0  0  0  0  0  0  0  0  0  0  0  0
    0.2808    0.2875   -0.4527 C   0  0  0  0  0  0  0  0  0  0  0  0
   -0.8923    0.0140    0.2590 C   0  0  0  0  0  0  0  0  0  0  0  0
    0.9500   -2.0077   -0.2228 C   0  0  0  0  0  0  0  0  0  0  0  0
   -0.0481   -2.0849    0.9216 C   0  0  1  0  0  0  0  0  0  0  0  0
   -0.2900   -1.7832    3.4679 C   0  0  0  0  0  0  0  0  0  0  0  0
    0.6432   -1.6985    2.2419 C   0  0  0  0  0  0  0  0  0  0  0  0
    1.1036   -0.8277   -0.7965 N   0  3  0  0  0  0  0  0  0  0  0  0
    1.6436   -3.0853   -0.5833 N   0  0  0  0  0  0  0  0  0  0  0  0
   -1.1845   -1.2923    0.5933 O   0  0  0  0  0  0  0  0  0  0  0  0
   -3.7696    2.3255    4.0774 H   0  0  0  0  0  0  0  0  0  0  0  0
   -4.6189    0.0208    3.6658 H   0  0  0  0  0  0  0  0  0  0  0  0
   -1.3142    2.7300    4.1948 H   0  0  0  0  0  0  0  0  0  0  0  0
   -0.0510    3.6344   -0.8362 H   0  0  0  0  0  0  0  0  0  0  0  0
   -2.1477    3.1492    0.4123 H   0  0  0  0  0  0  0  0  0  0  0  0
   -3.0316   -1.8540    3.3658 H   0  0  0  0  0  0  0  0  0  0  0  0
    0.2682    0.8544    3.9186 H   0  0  0  0  0  0  0  0  0  0  0  0
    1.5193    1.7872   -1.3977 H   0  0  0  0  0  0  0  0  0  0  0  0
   -2.6760    0.8147    1.1283 H   0  0  0  0  0  0  0  0  0  0  0  0
   -0.4313   -3.1066    0.9879 H   0  0  0  0  0  0  0  0  0  0  0  0
    0.3546   -1.8138    4.3533 H   0  0  0  0  0  0  0  0  0  0  0  0
   -0.8302   -2.7360    3.4497 H   0  0  0  0  0  0  0  0  0  0  0  0
    1.0650   -0.6921    2.1564 H   0  0  0  0  0  0  0  0  0  0  0  0
    1.4869   -2.3860    2.3795 H   0  0  0  0  0  0  0  0  0  0  0  0
    1.7771   -0.7006   -1.5488 H   0  0  0  0  0  0  0  0  0  0  0  0
    2.3406   -3.0765   -1.3218 H   0  0  0  0  0  0  0  0  0  0  0  0
    1.4788   -3.9725   -0.1217 H   0  0  0  0  0  0  0  0  0  0  0  0
  1  2  1  0  0  0  0
  1  3  2  0  0  0  0
  1 20  1  0  0  0  0
  2  6  2  0  0  0  0
  2 21  1  0  0  0  0
  3  7  1  0  0  0  0
  3 22  1  0  0  0  0
  4  5  1  0  0  0  0
  4  8  2  0  0  0  0
  4 23  1  0  0  0  0
  5  9  2  0  0  0  0
  5 24  1  0  0  0  0
  6 10  1  0  0  0  0
  6 25  1  0  0  0  0
  7 10  2  0  0  0  0
  7 26  1  0  0  0  0
  8 11  1  0  0  0  0
  8 27  1  0  0  0  0
  9 12  1  0  0  0  0
  9 28  1  0  0  0  0
 10 15  1  0  0  0  0
 11 12  2  0  0  0  0
 11 17  1  0  0  0  0
 12 19  1  0  0  0  0
 13 14  1  0  0  0  0
 13 17  2  0  0  0  0
 13 18  1  0  0  0  0
 14 16  1  0  0  0  0
 14 19  1  0  0  0  0
 14 29  1  0  0  0  0
 15 16  1  0  0  0  0
 15 30  1  0  0  0  0
 15 31  1  0  0  0  0
 16 32  1  0  0  0  0
 16 33  1  0  0  0  0
 17 34  1  0  0  0  0
 18 35  1  0  0  0  0
 18 36  1  0  0  0  0
M  CHG  1  17   1
M  END
$$$$
