
  -OEChem-05262117483D

 29 30  0     1  0  0  0  0  0999 V2000
    2.4853   -6.5589    1.8733 C   0  0  0  0  0  0  0  0  0  0  0  0
    2.2310   -5.5708    0.9156 C   0  0  0  0  0  0  0  0  0  0  0  0
    1.4755   -6.9476    2.7579 C   0  0  0  0  0  0  0  0  0  0  0  0
    0.9693   -4.9767    0.8403 C   0  0  0  0  0  0  0  0  0  0  0  0
    0.2156   -6.3453    2.6899 C   0  0  0  0  0  0  0  0  0  0  0  0
   -0.0466   -5.3601    1.7304 C   0  0  0  0  0  0  0  0  0  0  0  0
   -2.2227   -2.5142    2.5675 C   0  0  0  0  0  0  0  0  0  0  0  0
   -4.2291   -1.7524    3.4282 C   0  0  0  0  0  0  0  0  0  0  0  0
   -3.1993   -0.6117    3.3309 C   0  0  0  0  0  0  0  0  0  0  0  0
   -2.0788   -4.7867    0.2895 C   0  0  0  0  0  0  0  0  0  0  0  0
   -1.4129   -4.7072    1.6689 C   0  0  2  0  0  0  0  0  0  0  0  0
   -3.5216   -2.8112    2.6850 N   0  3  0  0  0  0  0  0  0  0  0  0
   -1.2617   -3.2828    2.1042 N   0  0  0  0  0  0  0  0  0  0  0  0
   -1.9383   -1.2900    2.9855 O   0  0  0  0  0  0  0  0  0  0  0  0
    3.4648   -7.0251    1.9263 H   0  0  0  0  0  0  0  0  0  0  0  0
    3.0115   -5.2703    0.2225 H   0  0  0  0  0  0  0  0  0  0  0  0
    1.6673   -7.7163    3.5007 H   0  0  0  0  0  0  0  0  0  0  0  0
    0.7832   -4.2255    0.0754 H   0  0  0  0  0  0  0  0  0  0  0  0
   -0.5644   -6.6503    3.3842 H   0  0  0  0  0  0  0  0  0  0  0  0
   -4.4177   -2.0656    4.4587 H   0  0  0  0  0  0  0  0  0  0  0  0
   -5.1727   -1.5008    2.9425 H   0  0  0  0  0  0  0  0  0  0  0  0
   -3.4132    0.0902    2.5238 H   0  0  0  0  0  0  0  0  0  0  0  0
   -3.0305   -0.0809    4.2655 H   0  0  0  0  0  0  0  0  0  0  0  0
   -1.4664   -4.3000   -0.4726 H   0  0  0  0  0  0  0  0  0  0  0  0
   -2.2000   -5.8362    0.0107 H   0  0  0  0  0  0  0  0  0  0  0  0
   -3.0657   -4.3126    0.2819 H   0  0  0  0  0  0  0  0  0  0  0  0
   -2.0519   -5.1918    2.4150 H   0  0  0  0  0  0  0  0  0  0  0  0
   -3.8984   -3.7380    2.5309 H   0  0  0  0  0  0  0  0  0  0  0  0
   -0.3284   -2.8798    2.0941 H   0  0  0  0  0  0  0  0  0  0  0  0
  1  2  1  0  0  0  0
  1  3  2  0  0  0  0
  1 15  1  0  0  0  0
  2  4  2  0  0  0  0
  2 16  1  0  0  0  0
  3  5  1  0  0  0  0
  3 17  1  0  0  0  0
  4  6  1  0  0  0  0
  4 18  1  0  0  0  0
  5  6  2  0  0  0  0
  5 19  1  0  0  0  0
  6 11  1  0  0  0  0
  7 12  2  0  0  0  0
  7 13  1  0  0  0  0
  7 14  1  0  0  0  0
  8  9  1  0  0  0  0
  8 12  1  0  0  0  0
  8 20  1  0  0  0  0
  8 21  1  0  0  0  0
  9 14  1  0  0  0  0
  9 22  1  0  0  0  0
  9 23  1  0  0  0  0
 10 11  1  0  0  0  0
 10 24  1  0  0  0  0
 10 25  1  0  0  0  0
 10 26  1  0  0  0  0
 11 13  1  0  0  0  0
 11 27  1  0  0  0  0
 12 28  1  0  0  0  0
 13 29  1  0  0  0  0
M  CHG  1  12   1
M  END
$$$$
