35
0 1 C16H16N2O
C                     3.635432234042    -1.120635276970     3.647560774623
C                     2.656864580725    -2.072477052224     3.952468354741
C                     4.011774911649    -0.925576254906     2.314544669239
C                     0.971496337627     2.505322933424     0.406362154629
C                     1.246498097405     1.883939144429     1.631271044238
C                     2.063450992961    -2.821395173710     2.931374660790
C                     3.416658796753    -1.679255309671     1.300640271036
C                     0.258501442838     1.820732244555    -0.581671362422
C                     0.823703847362     0.571739923286     1.866933849552
C                     2.434598192839    -2.637302100479     1.593349279262
C                    -0.175328771475     0.506590181034    -0.362296478192
C                     0.130866196254    -0.105492466508     0.868572380880
C                    -1.088974969588    -1.430538776800    -1.173605846965
C                    -0.373500874276    -2.201666201229    -0.075639828478
C                     1.811944553167    -3.460727701172     0.483873296602
C                     1.012192351173    -2.658096076638    -0.560067120702
N                    -0.957007629644    -0.158464306529    -1.325248514196
N                    -1.799103639516    -2.182876446713    -2.090998868443
O                    -0.310041742085    -1.392801927508     1.104644848731
H                     4.096382621648    -0.535003774558     4.438874780317
H                     2.351939368422    -2.229179405021     4.984281236900
H                     4.763583160930    -0.181794539098     2.063468630437
H                     1.305366823673     3.523364666606     0.224295083975
H                     1.799975993440     2.413606135066     2.402031045054
H                     1.292297411303    -3.548061012479     3.176707639868
H                     3.716353986638    -1.513941566166     0.267768124271
H                     0.015159905774     2.290056131256    -1.531020046251
H                     1.045109703144     0.060113213481     2.797821588416
H                    -0.958734483052    -3.077736075957     0.224781101493
H                     2.611527524288    -3.990058838909    -0.048596788055
H                     1.168435748574    -4.235138553774     0.917511879971
H                     1.582215401333    -1.780956528388    -0.883034778172
H                     0.853776384982    -3.274592993469    -1.452403617130
H                    -2.365889162334    -1.625879268222    -2.723288248319
H                    -2.269138343505    -3.006139198411    -1.733930952141
