
  -OEChem-05262117483D

 29 30  0     1  0  0  0  0  0999 V2000
    2.5504   -6.4006    2.1831 C   0  0  0  0  0  0  0  0  0  0  0  0
    2.3800   -5.1653    1.5445 C   0  0  0  0  0  0  0  0  0  0  0  0
    1.4481   -7.0533    2.7406 C   0  0  0  0  0  0  0  0  0  0  0  0
    1.1128   -4.5853    1.4656 C   0  0  0  0  0  0  0  0  0  0  0  0
    0.1775   -6.4689    2.6657 C   0  0  0  0  0  0  0  0  0  0  0  0
    0.0020   -5.2333    2.0280 C   0  0  0  0  0  0  0  0  0  0  0  0
   -0.8852   -2.8417    3.6286 C   0  0  0  0  0  0  0  0  0  0  0  0
    0.3521   -2.7391    5.5676 C   0  0  0  0  0  0  0  0  0  0  0  0
   -0.4481   -1.4409    5.3578 C   0  0  0  0  0  0  0  0  0  0  0  0
   -1.9332   -4.5849    0.5138 C   0  0  0  0  0  0  0  0  0  0  0  0
   -1.3844   -4.6202    1.9425 C   0  0  2  0  0  0  0  0  0  0  0  0
   -0.2432   -3.5940    4.5243 N   0  3  0  0  0  0  0  0  0  0  0  0
   -1.3906   -3.2241    2.4704 N   0  0  0  0  0  0  0  0  0  0  0  0
   -1.0030   -1.5755    3.9986 O   0  0  0  0  0  0  0  0  0  0  0  0
    3.5366   -6.8521    2.2395 H   0  0  0  0  0  0  0  0  0  0  0  0
    3.2342   -4.6594    1.1036 H   0  0  0  0  0  0  0  0  0  0  0  0
    1.5720   -8.0151    3.2299 H   0  0  0  0  0  0  0  0  0  0  0  0
    0.9905   -3.6265    0.9668 H   0  0  0  0  0  0  0  0  0  0  0  0
   -0.6789   -6.9852    3.0951 H   0  0  0  0  0  0  0  0  0  0  0  0
    1.4233   -2.6097    5.3894 H   0  0  0  0  0  0  0  0  0  0  0  0
    0.1946   -3.1682    6.5578 H   0  0  0  0  0  0  0  0  0  0  0  0
   -1.2964   -1.3457    6.0368 H   0  0  0  0  0  0  0  0  0  0  0  0
    0.1545   -0.5350    5.3686 H   0  0  0  0  0  0  0  0  0  0  0  0
   -1.2863   -3.9949   -0.1417 H   0  0  0  0  0  0  0  0  0  0  0  0
   -1.9720   -5.6027    0.1213 H   0  0  0  0  0  0  0  0  0  0  0  0
   -2.9469   -4.1715    0.4882 H   0  0  0  0  0  0  0  0  0  0  0  0
   -2.0685   -5.2022    2.5698 H   0  0  0  0  0  0  0  0  0  0  0  0
    0.1212   -4.5110    4.2743 H   0  0  0  0  0  0  0  0  0  0  0  0
   -1.9070   -2.5122    1.9616 H   0  0  0  0  0  0  0  0  0  0  0  0
  1  2  1  0  0  0  0
  1  3  2  0  0  0  0
  1 15  1  0  0  0  0
  2  4  2  0  0  0  0
  2 16  1  0  0  0  0
  3  5  1  0  0  0  0
  3 17  1  0  0  0  0
  4  6  1  0  0  0  0
  4 18  1  0  0  0  0
  5  6  2  0  0  0  0
  5 19  1  0  0  0  0
  6 11  1  0  0  0  0
  7 12  2  0  0  0  0
  7 13  1  0  0  0  0
  7 14  1  0  0  0  0
  8  9  1  0  0  0  0
  8 12  1  0  0  0  0
  8 20  1  0  0  0  0
  8 21  1  0  0  0  0
  9 14  1  0  0  0  0
  9 22  1  0  0  0  0
  9 23  1  0  0  0  0
 10 11  1  0  0  0  0
 10 24  1  0  0  0  0
 10 25  1  0  0  0  0
 10 26  1  0  0  0  0
 11 13  1  0  0  0  0
 11 27  1  0  0  0  0
 12 28  1  0  0  0  0
 13 29  1  0  0  0  0
M  CHG  1  12   1
M  END
$$$$
