29
1 1 C11H15N2O
C                     0.024010775630     5.978448780382     3.581357165372
C                     0.393439758272     6.041502557538     2.235372429418
C                     0.146092746605     4.770848176646     4.278753588190
C                     0.875559880191     4.902453247163     1.582202283030
C                     0.632948274296     3.637418627704     3.626199642205
C                     0.996545284859     3.690712736646     2.271504046101
C                    -0.746473677321     1.542665109365     0.952006640414
C                    -2.966406832441     1.289739971928     0.350263676351
C                    -2.348002670982     2.531561042392    -0.317281277918
C                     2.175477834919     2.588544654223     0.238461687082
C                     1.515351500634     2.423657252921     1.607064854048
N                    -1.757011804658     0.659322350056     0.911174342569
N                     0.422389440061     1.382564819739     1.540032489785
O                    -1.018992003158     2.657516336545     0.304012312822
H                    -0.345030425952     6.865561884983     4.088198726748
H                     0.312702519185     6.979050753614     1.692487671580
H                    -0.122520082080     4.717998396641     5.330015177496
H                     1.156826389046     4.973184882927     0.536617897344
H                     0.744039234606     2.707774756916     4.182254027993
H                    -3.671362033120     1.546948767135     1.145657003327
H                    -3.450496842986     0.629454688685    -0.370431455950
H                    -2.183299306930     2.406011145609    -1.388032786690
H                    -2.880288813640     3.459222758227    -0.117263711929
H                     1.481941622266     2.983981987672    -0.506275870938
H                     2.555059024138     1.627290493883    -0.117701267397
H                     3.019396463399     3.277451428841     0.322816990135
H                     2.240036200470     1.961554428477     2.282553647267
H                    -1.793330522527    -0.161683566673     1.503966226488
H                     0.579738394491     0.503185560696     2.018757214925
