
  -OEChem-05262117483D

 28 29  0     1  0  0  0  0  0999 V2000
    4.3861    0.7817    3.9499 C   0  0  0  0  0  0  0  0  0  0  0  0
    4.3179   -0.2804    3.0466 C   0  0  0  0  0  0  0  0  0  0  0  0
    3.2013    1.3294    4.4582 C   0  0  0  0  0  0  0  0  0  0  0  0
    3.0756   -0.7941    2.6520 C   0  0  0  0  0  0  0  0  0  0  0  0
    1.9661    0.8159    4.0620 C   0  0  0  0  0  0  0  0  0  0  0  0
    1.8855   -0.2538    3.1539 C   0  0  0  0  0  0  0  0  0  0  0  0
   -1.6822    0.2392    2.3415 C   0  0  0  0  0  0  0  0  0  0  0  0
   -3.7913   -0.2557    2.7408 C   0  0  0  0  0  0  0  0  0  0  0  0
   -3.7348    0.9583    1.7777 C   0  0  0  0  0  0  0  0  0  0  0  0
    0.5129   -1.9258    1.7438 C   0  0  0  0  0  0  0  0  0  0  0  0
    0.5095   -0.7885    2.7712 C   0  0  2  0  0  0  0  0  0  0  0  0
   -2.3920   -0.6763    2.8949 N   0  0  0  0  0  0  0  0  0  0  0  0
   -0.3220    0.3420    2.3332 N   0  0  0  0  0  0  0  0  0  0  0  0
   -2.3198    1.2839    1.7132 O   0  0  0  0  0  0  0  0  0  0  0  0
    5.3500    1.1803    4.2561 H   0  0  0  0  0  0  0  0  0  0  0  0
    5.2308   -0.7131    2.6447 H   0  0  0  0  0  0  0  0  0  0  0  0
    3.2423    2.1559    5.1634 H   0  0  0  0  0  0  0  0  0  0  0  0
    3.0482   -1.6204    1.9491 H   0  0  0  0  0  0  0  0  0  0  0  0
    1.0471    1.2469    4.4507 H   0  0  0  0  0  0  0  0  0  0  0  0
   -4.2142    0.0161    3.7164 H   0  0  0  0  0  0  0  0  0  0  0  0
   -4.3984   -1.0716    2.3351 H   0  0  0  0  0  0  0  0  0  0  0  0
   -4.0704    0.7172    0.7639 H   0  0  0  0  0  0  0  0  0  0  0  0
   -4.2665    1.8424    2.1357 H   0  0  0  0  0  0  0  0  0  0  0  0
    0.9733   -1.6123    0.8003 H   0  0  0  0  0  0  0  0  0  0  0  0
    1.0554   -2.7983    2.1215 H   0  0  0  0  0  0  0  0  0  0  0  0
   -0.5178   -2.2294    1.5476 H   0  0  0  0  0  0  0  0  0  0  0  0
    0.0246   -1.1639    3.6779 H   0  0  0  0  0  0  0  0  0  0  0  0
    0.0612    0.9406    1.6111 H   0  0  0  0  0  0  0  0  0  0  0  0
  1  2  1  0  0  0  0
  1  3  2  0  0  0  0
  1 15  1  0  0  0  0
  2  4  2  0  0  0  0
  2 16  1  0  0  0  0
  3  5  1  0  0  0  0
  3 17  1  0  0  0  0
  4  6  1  0  0  0  0
  4 18  1  0  0  0  0
  5  6  2  0  0  0  0
  5 19  1  0  0  0  0
  6 11  1  0  0  0  0
  7 12  2  0  0  0  0
  7 13  1  0  0  0  0
  7 14  1  0  0  0  0
  8  9  1  0  0  0  0
  8 12  1  0  0  0  0
  8 20  1  0  0  0  0
  8 21  1  0  0  0  0
  9 14  1  0  0  0  0
  9 22  1  0  0  0  0
  9 23  1  0  0  0  0
 10 11  1  0  0  0  0
 10 24  1  0  0  0  0
 10 25  1  0  0  0  0
 10 26  1  0  0  0  0
 11 13  1  0  0  0  0
 11 27  1  0  0  0  0
 13 28  1  0  0  0  0
M  END
$$$$
