28
0 1 C11H14N2O
C                     3.617314280578     0.810893938204     3.851103523394
C                     3.443141729558     0.295446452520     2.562199249284
C                     2.585260548703     0.689642611404     4.786896338118
C                     2.245932827421    -0.337507044755     2.215882409408
C                     1.387773230560     0.058362621183     4.436505098308
C                     1.204667485585    -0.464765162617     3.148011799095
C                    -1.663361260478     0.814166475910     2.856443014298
C                    -2.698950917432     1.977808418717     4.415572345426
C                    -2.775282063018     2.756054403777     3.075554198941
C                    -0.008005493387    -2.349939967583     1.902805534389
C                    -0.130643449690    -1.099945633390     2.777056568834
N                    -1.860396394291     0.807502309167     4.124304694212
N                    -1.020820183418    -0.133724795670     2.106264524991
O                    -2.180467727302     1.846607380291     2.110835293148
H                     4.549229438164     1.300386498813     4.122781875661
H                     4.241197982093     0.382337879689     1.828887114085
H                     2.711478801595     1.088641037601     5.790447902787
H                     2.132561325003    -0.738297772997     1.211433455441
H                     0.576483277298    -0.014812580311     5.154849080387
H                    -2.253314156287     2.581282697152     5.213334364848
H                    -3.690055948351     1.656404516946     4.759568192889
H                    -3.791770613461     2.979169613076     2.744105016140
H                    -2.182718667236     3.675992365464     3.077830624049
H                     0.398435513939    -2.118422175610     0.912307168099
H                     0.655295851244    -3.081105860559     2.373525432905
H                    -0.993477840364    -2.801871455694     1.760780509500
H                    -0.644173054286    -1.369273798537     3.701572183274
H                    -0.685338971903     0.221703311584     1.217061953590
