23
0 1 C8Cl2H7NO3S2
C                    -4.295264737388     4.366122941758     3.125549247814
C                    -3.124779374349     3.842888856839     3.776955725937
C                    -4.662465132542     5.582114041761     3.620710418205
C                    -2.651448208552     4.689672254943     4.753362489405
C                    -2.506222936857     2.530287249345     3.461282035467
C                    -0.685054840784     1.214714306521     0.757881938925
C                    -1.856693455593     0.898142136649     1.697371717938
C                    -1.195253904559     2.287173189688    -0.199641326284
N                    -2.440465842045     2.191104792498     2.096895474226
O                    -2.119206686117     1.750469258713     4.319539037977
O                    -3.527739803240     3.603665006404     0.159604048405
O                    -1.472476494088     4.511427383656     1.342553164621
S                    -3.596212418534     6.143913826236     4.885207917504
S                    -2.243157054821     3.381114355104     0.823830569429
Cl                   -6.014406863982     6.541614572326     3.133713631950
Cl                   -1.254110745506     4.497497259261     5.740822367777
H                    -4.827628404507     3.858489969404     2.330596693705
H                     0.161694626477     1.593898014862     1.336699014725
H                    -0.360969328206     0.325421864955     0.211212315173
H                    -2.620448107950     0.299816831851     1.188321032211
H                    -1.540856455744     0.380216133079     2.601677689569
H                    -0.424236432571     2.923259019167    -0.636491179222
H                    -1.848250893581     1.887345447550    -0.977879124972
