18
0 1 C8H4N2O4
C                     4.050223911756    -2.233079112973    -0.086568041684
C                     1.896402527182    -1.041917266992    -0.146627988187
C                     0.812418614167    -0.464371481231     0.509933792531
C                     1.777183484293    -1.065894011235     2.659535465110
C                     2.933865259791    -1.638296115131     0.589913419189
C                     0.751081980018    -0.475310558445     1.910454425837
C                     2.846418794521    -1.634823204474     1.990154853307
C                    -0.388987372348     0.130220166131     2.660894249309
N                     4.948949180524    -2.711269818931    -0.651343315530
N                     3.926686100189    -2.256661927118     2.784525555906
O                     3.796563524919    -3.449751221712     3.055448528871
O                    -0.480468374633     0.141930111664     3.872704854640
O                     4.859852296202    -1.526213677816     3.115349145408
O                    -1.325149309344     0.673360172597     1.843275400109
H                     1.953751916885    -1.038951477439    -1.230124391405
H                     0.012392727012    -0.004421519017    -0.058875975995
H                     1.721956169290    -1.070126492277     3.743501756524
H                    -2.020795907171     1.038928114265     2.423412132745
