35
0 1 C18H13N3O
C                     8.114075396129    -2.471121231321     2.339649254163
C                     6.400125164735    -6.151086780993     7.566585658827
C                     2.146321837519    -0.882100912690    -0.234785466541
C                     5.577124858475    -5.909226252188     6.459170461562
C                     7.700915986688    -5.637618476285     7.592136207846
C                     0.883683067881    -0.538623547766     0.255782874295
C                     3.130067569218    -1.312159093635     0.651801429533
C                     6.037572273726    -5.139128564277     5.394530150516
C                     8.171070999116    -4.883769857267     6.517560049616
C                     0.622909348684    -0.628977794183     1.624948149170
C                     2.871128586787    -1.404959805674     2.032899639925
C                     7.339274487005    -4.598821142876     5.415386966469
C                     1.594432018169    -1.057782306690     2.540523896730
C                     3.980260006289    -1.869623424476     2.880758220285
C                     5.904789895042    -2.577177959489     3.380589268433
C                     7.907605429533    -3.815977343412     4.320746757958
C                     7.306474972216    -3.008906186669     3.401525058793
C                     1.238339153211    -1.127258644151     4.005213172447
N                     8.789126956678    -2.045379289585     1.490692467046
N                     5.210105738267    -2.221189580571     2.338586851536
N                     3.934445187500    -2.000148761813     4.196415254660
O                     5.221311012785    -2.461622172299     4.537463352221
H                     6.033356969777    -6.748280403284     8.397110917941
H                     2.363751794413    -0.815022023166    -1.297137996336
H                     4.574702346302    -6.326765465606     6.425363213444
H                     8.349555381300    -5.833002058608     8.441483337240
H                     0.104098645486    -0.200893290771    -0.422368447601
H                     4.116212182924    -1.581186829005     0.289891245414
H                     5.394864542887    -4.982359598653     4.535874338893
H                     9.186696122854    -4.495310381520     6.533588679158
H                    -0.361828775497    -0.359071037257     1.998472862878
H                     8.986990856088    -3.903801080282     4.212937818210
H                     1.364104705583    -2.138900381144     4.402374634041
H                     1.886439665502    -0.483561172008     4.607137305619
H                     0.200811352972    -0.818946459570     4.157772983160
