
  -OEChem-05262117483D

 24 24  0     0  0  0  0  0  0999 V2000
    1.7345   -0.9706    0.0663 C   0  0  0  0  0  0  0  0  0  0  0  0
    0.7080   -0.8374    2.2516 C   0  0  0  0  0  0  0  0  0  0  0  0
    0.6290   -0.6565    0.8706 C   0  0  0  0  0  0  0  0  0  0  0  0
    3.0229   -1.6429    2.0446 C   0  0  0  0  0  0  0  0  0  0  0  0
    2.9092   -1.4559    0.6487 C   0  0  0  0  0  0  0  0  0  0  0  0
    1.8985   -1.3191    2.7941 C   0  0  0  0  0  0  0  0  0  0  0  0
    4.2939   -2.1699    2.6582 C   0  0  0  0  0  0  0  0  0  0  0  0
    3.9978   -1.6252   -1.4777 C   0  0  0  0  0  0  0  0  0  0  0  0
   -0.6314   -0.0896    0.2452 C   0  0  0  0  0  0  0  0  0  0  0  0
   -0.8814   -0.6617   -1.0872 N   0  0  0  0  0  0  0  0  0  0  0  0
    4.0322   -1.7880   -0.0628 O   0  0  0  0  0  0  0  0  0  0  0  0
    1.9511   -1.4881    4.1472 F   0  0  0  0  0  0  0  0  0  0  0  0
    1.6402   -0.8350   -1.0037 H   0  0  0  0  0  0  0  0  0  0  0  0
   -0.1272   -0.6156    2.9095 H   0  0  0  0  0  0  0  0  0  0  0  0
    5.1378   -1.5125    2.4246 H   0  0  0  0  0  0  0  0  0  0  0  0
    4.2011   -2.2494    3.7420 H   0  0  0  0  0  0  0  0  0  0  0  0
    4.5396   -3.1569    2.2529 H   0  0  0  0  0  0  0  0  0  0  0  0
    4.9777   -1.9425   -1.8374 H   0  0  0  0  0  0  0  0  0  0  0  0
    3.8286   -0.5778   -1.7548 H   0  0  0  0  0  0  0  0  0  0  0  0
    3.2212   -2.2514   -1.9328 H   0  0  0  0  0  0  0  0  0  0  0  0
   -1.4659   -0.2231    0.9517 H   0  0  0  0  0  0  0  0  0  0  0  0
   -0.5045    0.9928    0.1138 H   0  0  0  0  0  0  0  0  0  0  0  0
   -1.6865   -0.2047   -1.5117 H   0  0  0  0  0  0  0  0  0  0  0  0
   -1.1162   -1.6490   -0.9947 H   0  0  0  0  0  0  0  0  0  0  0  0
  1  3  1  0  0  0  0
  1  5  2  0  0  0  0
  1 13  1  0  0  0  0
  2  3  2  0  0  0  0
  2  6  1  0  0  0  0
  2 14  1  0  0  0  0
  3  9  1  0  0  0  0
  4  5  1  0  0  0  0
  4  6  2  0  0  0  0
  4  7  1  0  0  0  0
  5 11  1  0  0  0  0
  6 12  1  0  0  0  0
  7 15  1  0  0  0  0
  7 16  1  0  0  0  0
  7 17  1  0  0  0  0
  8 11  1  0  0  0  0
  8 18  1  0  0  0  0
  8 19  1  0  0  0  0
  8 20  1  0  0  0  0
  9 10  1  0  0  0  0
  9 21  1  0  0  0  0
  9 22  1  0  0  0  0
 10 23  1  0  0  0  0
 10 24  1  0  0  0  0
M  END
$$$$
