35
0 1 C18H13N3O
C                     7.986970734367    -2.274568072111     2.420232772562
C                     6.690324819919    -1.860172181907     8.899653919917
C                     0.422169709807    -0.491254726012     1.687828218614
C                     6.006934569553    -1.144706389385     7.908063972169
C                     7.756049319818    -2.694316833222     8.546158632425
C                     0.549259004264    -0.351959075466     0.302503009457
C                     1.514995353788    -0.928453237939     2.431284501021
C                     6.365459755225    -1.278615084720     6.569345807712
C                     8.130525658197    -2.813038555368     7.208494922353
C                     1.762139896962    -0.657020180477    -0.317996783716
C                     2.740843929829    -1.230095127905     1.808864879387
C                     7.424689652635    -2.130434154327     6.196328395028
C                     2.879273063276    -1.100119902029     0.406606470456
C                     3.844234432775    -1.688170527476     2.670047469856
C                     5.778288347130    -2.043152533050     3.428847107900
C                     7.888248148333    -2.293881325766     4.820852015153
C                     7.221816768128    -2.189856680421     3.635978038000
C                     4.151425999944    -1.430286385730    -0.340286193506
N                     8.625354854557    -2.349656460893     1.448398571162
N                     5.190063140829    -1.545466996860     2.375567988146
N                     3.620716450826    -2.259596701594     3.841802821158
O                     4.909040767880    -2.501828797469     4.351432686050
H                     6.401938348113    -1.756249202088     9.942222619930
H                    -0.516033057311    -0.257530497909     2.183430368250
H                     5.194223489725    -0.477644457491     8.181636900561
H                     8.299631178672    -3.241484084640     9.311284213598
H                    -0.292381066524    -0.008887727049    -0.293844389681
H                     1.435091515890    -1.036001203363     3.508523648311
H                     5.839598697047    -0.700183112344     5.818711479864
H                     8.967309395638    -3.452202270009     6.936604983870
H                     1.848625757425    -0.554684869876    -1.396951692860
H                     8.947168768122    -2.526366231426     4.725883877928
H                     4.947467955302    -0.717241356692    -0.112372886811
H                     4.538226843809    -2.416847721197    -0.071154136141
H                     3.968060116745    -1.415616180547    -1.417776901058
