21
0 1 BrC8H9N2O
C                    -0.872601832501     0.604136861220     2.115435525892
C                     0.788376130239    -0.925160512123     1.288897892233
C                     0.384022224291    -0.877460107929     3.549273854895
C                    -0.175163117841     0.061349800079     1.029939769462
C                    -0.580864409510     0.121482794204     3.388802188703
C                    -0.383319836796     0.501571554328    -0.393101005480
C                    -2.419466587462     0.176736626277    -2.901167389360
C                    -1.980002239263     1.376520626432    -2.056898440274
N                     1.058412842504    -1.391867633392     2.513078813920
N                    -1.620173182110     1.013082675955    -0.685275068463
O                     0.518827409322     0.414250937982    -1.225997041999
Br                   -1.484849117657     0.831113132661     4.919562488320
H                    -1.596824581800     1.402356518386     1.984996582027
H                     1.355947851639    -1.343183827437     0.461669613521
H                     0.621386217918    -1.265504624074     4.537373048130
H                    -1.611288444913    -0.556188061244    -2.968394390293
H                    -3.299715485750    -0.311832022673    -2.468614497707
H                    -2.676247225388     0.500600789319    -3.915497563546
H                    -2.774198006460     2.127873296468    -2.002959983994
H                    -1.102463257471     1.849094809521    -2.501774773768
H                    -2.376541028617     0.814606587305    -0.043224110044
