18
0 1 C8H4N2O4
C                     4.284288776522    -2.522117785108    -0.111675632335
C                     2.301703665628    -1.126313486027    -0.139436861485
C                     1.257421389263    -0.451521555693     0.480688348308
C                     2.030791604297    -1.219293986022     2.638257016631
C                     3.239801216442    -1.857050512624     0.615718777618
C                     1.104500621483    -0.505116808801     1.874155081145
C                     3.084507861470    -1.882192388666     2.013109417683
C                    -0.040629194340     0.262814914452     2.480560874325
N                     5.052887368897    -3.001274175974    -0.843680641613
N                     4.036079317130    -2.611030933810     2.877940261678
O                     4.994456552646    -3.158460112073     2.334553780343
O                    -0.571746527417     1.184841607382     1.905942052385
O                     3.802504121204    -2.622352092846     4.090629904440
O                    -0.462779435718    -0.117280338677     3.714169670115
H                     2.413035189898    -1.096642525116    -1.218218052334
H                     0.546590670513     0.126927614943    -0.100531546577
H                     1.994216156104    -1.257250930700     3.721657665232
H                    -0.051981077404    -0.954337554900     3.988648327637
