23
0 1 C8Cl2H7NO3S2
C                    -3.605959174824     1.090336785973     3.701252861869
C                    -2.826699069266     2.299367178907     3.677354504646
C                    -4.345897693514     0.974040986788     4.840296282502
C                    -3.014125408580     3.059509657041     4.809401234159
C                    -1.944254556522     2.704469050383     2.554175398740
C                     0.495048847236     0.814361424795     0.459849646091
C                    -0.351469300790     2.051131927417     0.789816741110
C                     0.920773680672     0.220927802381     1.799188477207
N                    -1.195325782699     1.688988307354     1.945075527338
O                    -1.884723273928     3.846120965407     2.118151131043
O                    -0.364179793425     0.575652521995     4.184869205893
O                    -1.445523815965    -0.876336453040     2.406791973042
S                    -4.116246489483     2.317942934159     5.932535328252
S                    -0.607340055545     0.265281721646     2.777563367140
Cl                   -5.427358791219    -0.308040467959     5.255546889152
Cl                   -2.254574084892     4.546491178937     5.229866437712
H                    -3.609165168496     0.352282360407     2.908305857638
H                    -0.092168890324     0.081624838606    -0.099689969600
H                     1.363639749319     1.091222967297    -0.141642837231
H                     0.276303551592     2.908179728250     1.054405801538
H                    -0.993432664506     2.345499165349    -0.042310395630
H                     1.246369465009    -0.819307437804     1.761511176226
H                     1.651197016311     0.837547001482     2.328271917675
