34
0 1 C15H13N5S
C                     0.805646400021    -3.905210205110   -13.185158740378
C                    -1.883062890469     1.450052847915    -2.885243457530
C                    -2.000443846901     2.565265212082    -3.732476920851
C                    -1.571493736575     0.188953920460    -3.394670536423
C                    -1.807032243454     2.437033588073    -5.111452458572
C                     0.817012115777    -4.108103240685   -10.654418181959
C                     0.247664105235    -3.816094355076   -11.885963911600
C                    -0.157880809277    -3.821752651195    -9.659394286872
C                    -1.373690766630     0.038657876936    -4.774514014730
C                    -1.495434148859     1.174142046357    -5.615544383411
C                    -1.313667037015    -3.378811180087   -10.323055482589
C                    -0.940290429424    -0.970306731382    -6.686801309337
C                     0.004791323927    -4.017312068520    -8.209112024761
C                    -2.664347612160    -3.044105297854    -9.772981677716
C                    -2.015925852259    -3.036475160447   -12.711845381394
N                     1.249974246627    -3.974508294518   -14.263087040441
N                    -1.064749353302    -1.156935791143    -5.413852431934
N                    -0.253177332712    -3.176568042920    -7.263822770442
N                    -1.052664152335    -3.367966730342   -11.668804999273
N                    -0.679847022641    -1.933521816086    -7.634595836740
S                    -1.192839099610     0.698786899440    -7.284323455424
H                    -2.037010489585     1.572353511957    -1.816507129661
H                    -2.242878120221     3.538782488060    -3.315567952198
H                    -1.478213838698    -0.678738967896    -2.748438691740
H                    -1.896429827434     3.299580275681    -5.765701925384
H                     1.827037094681    -4.462303609184   -10.496726505908
H                     0.404290018383    -4.968360051500    -7.861555592560
H                    -2.890466161427    -1.973297616921    -9.849387453164
H                    -3.454432714909    -3.586648519429   -10.303109047235
H                    -2.713924637496    -3.317008674197    -8.718392331063
H                    -2.759214210862    -3.832429415265   -12.822051557407
H                    -2.525112912245    -2.101436047532   -12.468344530238
H                    -1.489559302842    -2.913872997690   -13.658431744307
H                    -0.526573129616    -1.631628757449    -8.595535739902
