34
0 1 C15H13N5S
C                    -0.689130997585    -0.941229099835   -12.462352487345
C                     4.258653262811    -0.777567304703    -9.994453024469
C                     4.040696245415     0.610683047905   -10.039325902532
C                     3.335908148316    -1.627615064725    -9.384084567124
C                     2.893878073827     1.173982250715    -9.472208950735
C                    -1.341122295902    -1.941342256202   -10.225373258952
C                    -0.637821996406    -1.897336117492   -11.419359593588
C                    -0.930190367969    -3.117714863879    -9.540678449176
C                     2.175708127549    -1.082126786761    -8.815762916949
C                     1.966966842404     0.319450190092    -8.873103077801
C                     0.017213039266    -3.760905691177   -10.343299680669
C                     0.219908945747    -1.031985864898    -7.784093701110
C                    -1.287619590596    -3.517843496178    -8.178025102053
C                     0.851593825328    -4.961947836610   -10.044735808159
C                     1.216999743517    -3.241928328908   -12.488643117151
N                    -0.715712516105    -0.155999769506   -13.326979979122
N                     1.179478301100    -1.808589162185    -8.179257883867
N                    -1.353519441544    -2.786004193451    -7.116135522941
N                     0.189326572343    -3.018218573138   -11.480990503184
N                    -0.990902456591    -1.437407147738    -7.237960133872
S                     0.422823370665     0.710527627211    -8.128993356790
H                     5.160878604902    -1.191908848407   -10.436439325419
H                     4.769055625887     1.256220712631   -10.521888347806
H                     3.502601075802    -2.699746805249    -9.327710821445
H                     2.727018815360     2.246466915396    -9.512591008734
H                    -2.061657928900    -1.208170956226    -9.892481856582
H                    -1.548371428315    -4.559688742152    -7.992621870717
H                     0.772940216216    -5.725061681824   -10.827172712682
H                     1.909001135879    -4.691159989045    -9.943096736014
H                     0.539272795286    -5.408174117042    -9.099463058878
H                     2.195419581763    -2.921374545035   -12.115094770388
H                     1.258072351317    -4.300181820279   -12.754057725778
H                     0.975012344476    -2.666041339075   -13.382327237431
H                    -1.267756844617    -0.928658976747    -6.405756351105
