21
0 1 BrC8H9N2O
C                     0.746252211367    -1.796603541784     1.176321605577
C                    -0.770721466132    -0.248112159579     2.214468024559
C                     0.157513274538    -1.894578739092     3.515732502449
C                    -0.114312173119    -0.697573125672     1.060621760476
C                     0.869283198168    -2.401434223121     2.421222540325
C                    -0.246189754024    -0.049085128660    -0.291536298609
C                    -2.297471729639     0.299416107116    -2.785349918748
C                    -1.665763650930     1.288310177439    -1.801074141987
N                    -0.642572510186    -0.828111967612     3.415095945946
N                    -1.376751591117     0.692981989484    -0.495616723176
O                     0.629646917599    -0.181967400126    -1.147452713273
Br                    2.004572598626    -3.922855825578     2.657933539858
H                     1.290897298363    -2.143165348375     0.304138336374
H                    -1.405348952011     0.636037626727     2.189026623632
H                     0.243295339894    -2.359033422856     4.495518972593
H                    -1.622490062816    -0.541799817554    -2.963133532719
H                    -3.247576332530    -0.089361033710    -2.402485417775
H                    -2.494159077606     0.791976800150    -3.743694107148
H                    -2.323624932124     2.147076719393    -1.634347998047
H                    -0.720706663073     1.663151563425    -2.198232454977
H                    -2.149934789633     0.569858211459     0.144599868901
