
  -OEChem-05262117483D

 34 36  0     0  0  0  0  0  0999 V2000
    0.8056   -3.9052  -13.1852 C   0  0  0  0  0  0  0  0  0  0  0  0
   -1.8831    1.4501   -2.8852 C   0  0  0  0  0  0  0  0  0  0  0  0
   -2.0004    2.5653   -3.7325 C   0  0  0  0  0  0  0  0  0  0  0  0
   -1.5715    0.1890   -3.3947 C   0  0  0  0  0  0  0  0  0  0  0  0
   -1.8070    2.4370   -5.1115 C   0  0  0  0  0  0  0  0  0  0  0  0
    0.8170   -4.1081  -10.6544 C   0  0  0  0  0  0  0  0  0  0  0  0
    0.2477   -3.8161  -11.8860 C   0  0  0  0  0  0  0  0  0  0  0  0
   -0.1579   -3.8218   -9.6594 C   0  0  0  0  0  0  0  0  0  0  0  0
   -1.3737    0.0387   -4.7745 C   0  0  0  0  0  0  0  0  0  0  0  0
   -1.4954    1.1741   -5.6155 C   0  0  0  0  0  0  0  0  0  0  0  0
   -1.3137   -3.3788  -10.3231 C   0  0  0  0  0  0  0  0  0  0  0  0
   -0.9403   -0.9703   -6.6868 C   0  0  0  0  0  0  0  0  0  0  0  0
    0.0048   -4.0173   -8.2091 C   0  0  0  0  0  0  0  0  0  0  0  0
   -2.6643   -3.0441   -9.7730 C   0  0  0  0  0  0  0  0  0  0  0  0
   -2.0159   -3.0365  -12.7118 C   0  0  0  0  0  0  0  0  0  0  0  0
    1.2500   -3.9745  -14.2631 N   0  0  0  0  0  0  0  0  0  0  0  0
   -1.0647   -1.1569   -5.4139 N   0  0  0  0  0  0  0  0  0  0  0  0
   -0.2532   -3.1766   -7.2638 N   0  0  0  0  0  0  0  0  0  0  0  0
   -1.0527   -3.3680  -11.6688 N   0  0  0  0  0  0  0  0  0  0  0  0
   -0.6798   -1.9335   -7.6346 N   0  0  0  0  0  0  0  0  0  0  0  0
   -1.1928    0.6988   -7.2843 S   0  0  0  0  0  0  0  0  0  0  0  0
   -2.0370    1.5724   -1.8165 H   0  0  0  0  0  0  0  0  0  0  0  0
   -2.2429    3.5388   -3.3156 H   0  0  0  0  0  0  0  0  0  0  0  0
   -1.4782   -0.6787   -2.7484 H   0  0  0  0  0  0  0  0  0  0  0  0
   -1.8964    3.2996   -5.7657 H   0  0  0  0  0  0  0  0  0  0  0  0
    1.8270   -4.4623  -10.4967 H   0  0  0  0  0  0  0  0  0  0  0  0
    0.4043   -4.9684   -7.8616 H   0  0  0  0  0  0  0  0  0  0  0  0
   -2.8905   -1.9733   -9.8494 H   0  0  0  0  0  0  0  0  0  0  0  0
   -3.4544   -3.5866  -10.3031 H   0  0  0  0  0  0  0  0  0  0  0  0
   -2.7139   -3.3170   -8.7184 H   0  0  0  0  0  0  0  0  0  0  0  0
   -2.7592   -3.8324  -12.8221 H   0  0  0  0  0  0  0  0  0  0  0  0
   -2.5251   -2.1014  -12.4683 H   0  0  0  0  0  0  0  0  0  0  0  0
   -1.4896   -2.9139  -13.6584 H   0  0  0  0  0  0  0  0  0  0  0  0
   -0.5266   -1.6316   -8.5955 H   0  0  0  0  0  0  0  0  0  0  0  0
  1  7  1  0  0  0  0
  1 16  3  0  0  0  0
  2  3  1  0  0  0  0
  2  4  2  0  0  0  0
  2 22  1  0  0  0  0
  3  5  2  0  0  0  0
  3 23  1  0  0  0  0
  4  9  1  0  0  0  0
  4 24  1  0  0  0  0
  5 10  1  0  0  0  0
  5 25  1  0  0  0  0
  6  7  2  0  0  0  0
  6  8  1  0  0  0  0
  6 26  1  0  0  0  0
  7 19  1  0  0  0  0
  8 11  2  0  0  0  0
  8 13  1  0  0  0  0
  9 10  2  0  0  0  0
  9 17  1  0  0  0  0
 10 21  1  0  0  0  0
 11 14  1  0  0  0  0
 11 19  1  0  0  0  0
 12 17  2  0  0  0  0
 12 20  1  0  0  0  0
 12 21  1  0  0  0  0
 13 18  2  0  0  0  0
 13 27  1  0  0  0  0
 14 28  1  0  0  0  0
 14 29  1  0  0  0  0
 14 30  1  0  0  0  0
 15 19  1  0  0  0  0
 15 31  1  0  0  0  0
 15 32  1  0  0  0  0
 15 33  1  0  0  0  0
 18 20  1  0  0  0  0
 20 34  1  0  0  0  0
M  END
$$$$
