68
1 1 C26H37N2O3
C                     7.090167606565    -1.006848079395    -2.337921342401
C                     5.825522101692     6.277341250773     2.146895259236
C                     6.002009215622    -1.020288143359    -1.457668549369
C                     7.199621943473     0.005490827406    -3.296187360743
C                     5.811368421093     4.889172820089     2.328180475853
C                     5.804000438076     6.811722808183     0.854796702146
C                     5.026554722420    -0.024081161491    -1.530810036983
C                     6.227152697669     1.006884058154    -3.366407414439
C                     5.762643106478     4.041315440961     1.221699371617
C                     5.747436209768     5.960229351897    -0.253090531774
C                     5.138593200984     1.001443507874    -2.483143386115
C                     5.713492269883     4.571644850339    -0.075483583615
C                     2.925925437296     2.076749729567     1.763313585556
C                     4.048347465243     0.414917860021     4.763070086582
C                     4.003011721165     0.376998725055     3.224626440788
C                     2.487436182776     2.039464638859     4.258182744894
C                     5.413025460249     0.490069120347     2.641326202119
C                     3.276556129794    -0.878173893901     2.721014744268
C                     0.964165370555     2.083875143043     4.175970540751
C                     3.090780542913     3.363220529356     4.735471420671
C                     0.206834209854     4.193199762257     0.828375847120
C                     4.099742679973     2.087717937986    -2.555533764889
C                     5.586564088721     3.644601938459    -1.252015685303
C                     2.489928416934     4.620832247786    -0.223042987194
C                     3.123426104177     4.150781324516    -1.535609494364
C                     1.566465933937     3.601500915034     0.482461171340
N                     3.158992162715     1.587024759619     2.986265027496
N                     4.184497136104     3.078516802847    -1.398921793156
O                     3.390064667941     1.586764743105     0.710243194460
O                     2.805263534532     0.980274138694     5.155646677446
O                     2.141588760128     3.176915849933     1.755092336037
H                     7.844188144676    -1.786962197595    -2.283266486012
H                     5.867374473279     6.938396640319     3.007865358597
H                     5.908642257510    -1.813432784695    -0.721038991653
H                     8.036298633656     0.013776387832    -3.988715422016
H                     5.845808835036     4.471524241616     3.330128660033
H                     5.833982078926     7.887720294066     0.709462578698
H                     4.184034518803    -0.039458453262    -0.846030871067
H                     6.314878647883     1.790600264459    -4.115877340753
H                     5.759116066284     2.965055499057     1.361425274986
H                     5.732614194226     6.381814813021    -1.255788697648
H                     4.120051273628    -0.579519685550     5.205797272669
H                     4.890343555874     1.025647210931     5.116062036586
H                     5.405638072303     0.446348663246     1.551800025673
H                     6.018908939646    -0.343183565736     3.011866366943
H                     5.895869401340     1.417871750781     2.962417360158
H                     3.095198463525    -0.813344023398     1.645793815359
H                     2.319202137790    -0.999568130298     3.235102990662
H                     3.885664118773    -1.766556357044     2.914810731457
H                     0.583048281524     1.187601525833     3.680164726682
H                     0.612687502386     2.971115763476     3.652229519941
H                     0.577584352196     2.100893365719     5.197912262350
H                     4.165849005285     3.258725016837     4.903977880792
H                     2.620777912355     3.654760045362     5.678166627135
H                     2.926948003463     4.151061306886     3.997353700219
H                     0.318803154533     5.068854740884     1.474902173628
H                    -0.417435896860     3.456739795253     1.339782292202
H                    -0.306236338803     4.503990639351    -0.086821189478
H                     4.191247659277     2.670958268504    -3.474944745450
H                     3.089865394429     1.674415047436    -2.504136713913
H                     5.817965228870     4.146942254980    -2.194411758474
H                     6.245750821242     2.782693549694    -1.152269326579
H                     1.898485543312     5.502638689234    -0.489975064390
H                     3.243691108157     4.968358395175     0.482863287811
H                     2.349369927309     3.743827703227    -2.190182341368
H                     3.585057659273     4.990934047501    -2.058129465220
H                     1.434937985706     2.706521824035    -0.131593751417
H                     3.955558093472     2.526849433721    -0.533002257010
