33
1 1 C9F3H17NO2S
C                    -0.741707611022    -1.387161030737    -1.073530911527
C                    -0.338096442332    -2.577231581016    -0.193569806266
C                    -1.751491745503    -0.632869940193    -0.208779026064
C                    -0.181378923317    -1.978500714803     1.207509056079
C                    -0.424331642135    -2.901563923011     2.395638568474
C                     1.213438851857    -7.192295453240     5.230845828310
C                     0.609602319871    -4.028867790646     2.470746870195
C                     1.460778232788    -6.301419649959     4.011303494131
C                     2.266530399458    -8.282530372600     5.314850382124
N                    -1.235184960696    -0.836426590449     1.222110441766
O                    -1.119597227078    -5.662304757208     3.651298808354
O                     0.320992694036    -4.137280008290     5.109354710149
F                     2.245602287459    -9.076787878902     4.214514131285
F                     3.515761654822    -7.759078536551     5.404326178496
F                     2.068076705588    -9.063661066680     6.391723830920
S                     0.173738826795    -5.025830188858     3.946026992770
H                     0.123218818253    -0.755293860191    -1.297470319624
H                    -1.188811949909    -1.690664582004    -2.021736895379
H                    -1.120664270589    -3.344213886268    -0.191275129835
H                     0.590902758319    -3.045314695327    -0.523995941348
H                    -1.831220669165     0.435635893958    -0.407923947082
H                    -2.744065423101    -1.082716004418    -0.252800209281
H                     0.783730541716    -1.472884823099     1.297015110804
H                    -1.423564242331    -3.346520257515     2.314802669588
H                    -0.381774046663    -2.332870748100     3.331224178570
H                     0.236476732781    -7.676693487256     5.169922746151
H                     1.259401697388    -6.610851875149     6.154110192652
H                     0.569908980720    -4.691663263031     1.603216492160
H                     1.624416236113    -3.647029734708     2.612073666920
H                     2.421379536620    -5.785267993451     4.079616536038
H                     1.398305005367    -6.867765654060     3.078966450014
H                    -0.820435839413     0.024026460442     1.591368013326
H                    -2.005791240824    -1.075144065920     1.855122794130
