
  -OEChem-05262117483D

 33 33  0     1  0  0  0  0  0999 V2000
   -0.2320    0.1475    0.4918 C   0  0  0  0  0  0  0  0  0  0  0  0
   -0.7576   -0.6939    1.6611 C   0  0  0  0  0  0  0  0  0  0  0  0
    1.2888    0.1157    0.6712 C   0  0  0  0  0  0  0  0  0  0  0  0
    0.2017   -1.8831    1.7193 C   0  0  2  0  0  0  0  0  0  0  0  0
    0.2624   -2.6475    3.0351 C   0  0  0  0  0  0  0  0  0  0  0  0
    0.9271   -5.3734    6.9780 C   0  0  0  0  0  0  0  0  0  0  0  0
    1.2102   -3.8495    3.0155 C   0  0  0  0  0  0  0  0  0  0  0  0
    1.2960   -4.4133    5.8449 C   0  0  0  0  0  0  0  0  0  0  0  0
    1.3009   -4.7729    8.3211 C   0  0  0  0  0  0  0  0  0  0  0  0
    1.5642   -1.2356    1.3587 N   0  3  0  0  0  0  0  0  0  0  0  0
    1.5787   -6.3020    3.9718 O   0  0  0  0  0  0  0  0  0  0  0  0
   -0.7136   -5.1894    4.2671 O   0  0  0  0  0  0  0  0  0  0  0  0
    2.6299   -4.5055    8.3930 F   0  0  0  0  0  0  0  0  0  0  0  0
    0.6496   -3.5982    8.5337 F   0  0  0  0  0  0  0  0  0  0  0  0
    0.9904   -5.6041    9.3299 F   0  0  0  0  0  0  0  0  0  0  0  0
    0.7560   -5.1245    4.2619 S   0  0  0  0  0  0  0  0  0  0  0  0
   -0.5160   -0.3003   -0.4648 H   0  0  0  0  0  0  0  0  0  0  0  0
   -0.6030    1.1737    0.5037 H   0  0  0  0  0  0  0  0  0  0  0  0
   -0.7251   -0.1305    2.6005 H   0  0  0  0  0  0  0  0  0  0  0  0
   -1.7834   -1.0359    1.5116 H   0  0  0  0  0  0  0  0  0  0  0  0
    1.8631    0.1611   -0.2537 H   0  0  0  0  0  0  0  0  0  0  0  0
    1.6421    0.8920    1.3503 H   0  0  0  0  0  0  0  0  0  0  0  0
   -0.0080   -2.5675    0.8925 H   0  0  0  0  0  0  0  0  0  0  0  0
   -0.7527   -3.0115    3.2282 H   0  0  0  0  0  0  0  0  0  0  0  0
    0.5076   -1.9589    3.8533 H   0  0  0  0  0  0  0  0  0  0  0  0
    1.4557   -6.3232    6.8729 H   0  0  0  0  0  0  0  0  0  0  0  0
   -0.1472   -5.5703    6.9882 H   0  0  0  0  0  0  0  0  0  0  0  0
    1.1302   -4.4187    2.0830 H   0  0  0  0  0  0  0  0  0  0  0  0
    2.2645   -3.6057    3.1798 H   0  0  0  0  0  0  0  0  0  0  0  0
    0.7847   -3.4543    5.9603 H   0  0  0  0  0  0  0  0  0  0  0  0
    2.3765   -4.2649    5.7801 H   0  0  0  0  0  0  0  0  0  0  0  0
    2.1149   -1.8561    0.7584 H   0  0  0  0  0  0  0  0  0  0  0  0
    2.1193   -1.0924    2.2078 H   0  0  0  0  0  0  0  0  0  0  0  0
  1  2  1  0  0  0  0
  1  3  1  0  0  0  0
  1 17  1  0  0  0  0
  1 18  1  0  0  0  0
  2  4  1  0  0  0  0
  2 19  1  0  0  0  0
  2 20  1  0  0  0  0
  3 10  1  0  0  0  0
  3 21  1  0  0  0  0
  3 22  1  0  0  0  0
  4  5  1  0  0  0  0
  4 10  1  0  0  0  0
  4 23  1  0  0  0  0
  5  7  1  0  0  0  0
  5 24  1  0  0  0  0
  5 25  1  0  0  0  0
  6  8  1  0  0  0  0
  6  9  1  0  0  0  0
  6 26  1  0  0  0  0
  6 27  1  0  0  0  0
  7 16  1  0  0  0  0
  7 28  1  0  0  0  0
  7 29  1  0  0  0  0
  8 16  1  0  0  0  0
  8 30  1  0  0  0  0
  8 31  1  0  0  0  0
  9 13  1  0  0  0  0
  9 14  1  0  0  0  0
  9 15  1  0  0  0  0
 10 32  1  0  0  0  0
 10 33  1  0  0  0  0
 11 16  2  0  0  0  0
 12 16  2  0  0  0  0
M  CHG  1  10   1
M  END
$$$$
