
  -OEChem-05262117483D

 68 70  0     1  0  0  0  0  0999 V2000
    1.8628   -0.3051   -3.6717 C   0  0  0  0  0  0  0  0  0  0  0  0
    8.6711    3.7466   -2.1871 C   0  0  0  0  0  0  0  0  0  0  0  0
    0.9921    0.7192   -3.2887 C   0  0  0  0  0  0  0  0  0  0  0  0
    3.2465   -0.1270   -3.5580 C   0  0  0  0  0  0  0  0  0  0  0  0
    7.8262    4.8066   -2.5296 C   0  0  0  0  0  0  0  0  0  0  0  0
    8.2983    2.8523   -1.1767 C   0  0  0  0  0  0  0  0  0  0  0  0
    1.4998    1.9169   -2.7797 C   0  0  0  0  0  0  0  0  0  0  0  0
    3.7555    1.0735   -3.0588 C   0  0  0  0  0  0  0  0  0  0  0  0
    6.6027    4.9669   -1.8725 C   0  0  0  0  0  0  0  0  0  0  0  0
    7.0801    3.0176   -0.5151 C   0  0  0  0  0  0  0  0  0  0  0  0
    2.8837    2.0992   -2.6594 C   0  0  0  0  0  0  0  0  0  0  0  0
    6.2208    4.0718   -0.8644 C   0  0  0  0  0  0  0  0  0  0  0  0
   -0.0880    1.7007    1.1663 C   0  0  0  0  0  0  0  0  0  0  0  0
   -2.8559    0.0585   -0.4626 C   0  0  0  0  0  0  0  0  0  0  0  0
   -2.2943    1.3853    0.0743 C   0  0  0  0  0  0  0  0  0  0  0  0
   -1.0896   -0.6187    0.8673 C   0  0  0  0  0  0  0  0  0  0  0  0
   -2.0446    2.3713   -1.0695 C   0  0  0  0  0  0  0  0  0  0  0  0
   -3.2095    1.9883    1.1494 C   0  0  0  0  0  0  0  0  0  0  0  0
   -0.9681   -1.0779    2.3182 C   0  0  0  0  0  0  0  0  0  0  0  0
   -0.0781   -1.3071   -0.0549 C   0  0  0  0  0  0  0  0  0  0  0  0
    2.3555    0.9494    3.6408 C   0  0  0  0  0  0  0  0  0  0  0  0
    3.4499    3.3624   -2.0736 C   0  0  0  0  0  0  0  0  0  0  0  0
    4.8921    4.2047   -0.1726 C   0  0  0  0  0  0  0  0  0  0  0  0
    3.1590    2.0968    1.5280 C   0  0  0  0  0  0  0  0  0  0  0  0
    2.7607    2.9203    0.3082 C   0  0  0  0  0  0  0  0  0  0  0  0
    1.9565    1.7839    2.4311 C   0  0  1  0  0  0  0  0  0  0  0  0
   -1.0396    0.8711    0.6924 N   0  0  0  0  0  0  0  0  0  0  0  0
    3.9236    3.1243   -0.6404 N   0  3  0  0  0  0  0  0  0  0  0  0
   -0.1169    2.9308    1.1274 O   0  0  0  0  0  0  0  0  0  0  0  0
   -2.4229   -0.9294    0.4630 O   0  0  0  0  0  0  0  0  0  0  0  0
    0.9866    1.0120    1.6840 O   0  0  0  0  0  0  0  0  0  0  0  0
    1.4664   -1.2361   -4.0666 H   0  0  0  0  0  0  0  0  0  0  0  0
    9.6221    3.6233   -2.6970 H   0  0  0  0  0  0  0  0  0  0  0  0
   -0.0811    0.5873   -3.3909 H   0  0  0  0  0  0  0  0  0  0  0  0
    3.9248   -0.9155   -3.8709 H   0  0  0  0  0  0  0  0  0  0  0  0
    8.1193    5.5088   -3.3045 H   0  0  0  0  0  0  0  0  0  0  0  0
    8.9617    2.0392   -0.8967 H   0  0  0  0  0  0  0  0  0  0  0  0
    0.8193    2.7107   -2.4815 H   0  0  0  0  0  0  0  0  0  0  0  0
    4.8336    1.2197   -3.0007 H   0  0  0  0  0  0  0  0  0  0  0  0
    5.9521    5.7972   -2.1385 H   0  0  0  0  0  0  0  0  0  0  0  0
    6.8124    2.3367    0.2925 H   0  0  0  0  0  0  0  0  0  0  0  0
   -3.9466    0.0404   -0.4884 H   0  0  0  0  0  0  0  0  0  0  0  0
   -2.4703   -0.1502   -1.4710 H   0  0  0  0  0  0  0  0  0  0  0  0
   -1.6730    3.3263   -0.6979 H   0  0  0  0  0  0  0  0  0  0  0  0
   -2.9836    2.5468   -1.6048 H   0  0  0  0  0  0  0  0  0  0  0  0
   -1.3223    1.9592   -1.7804 H   0  0  0  0  0  0  0  0  0  0  0  0
   -2.7145    2.8270    1.6442 H   0  0  0  0  0  0  0  0  0  0  0  0
   -3.4688    1.2348    1.8984 H   0  0  0  0  0  0  0  0  0  0  0  0
   -4.1354    2.3549    0.6949 H   0  0  0  0  0  0  0  0  0  0  0  0
   -1.6249   -0.4828    2.9574 H   0  0  0  0  0  0  0  0  0  0  0  0
    0.0567   -1.0040    2.6792 H   0  0  0  0  0  0  0  0  0  0  0  0
   -1.2890   -2.1214    2.3716 H   0  0  0  0  0  0  0  0  0  0  0  0
   -0.2507   -1.0224   -1.0959 H   0  0  0  0  0  0  0  0  0  0  0  0
   -0.1872   -2.3913    0.0336 H   0  0  0  0  0  0  0  0  0  0  0  0
    0.9427   -1.0292    0.2152 H   0  0  0  0  0  0  0  0  0  0  0  0
    2.7925   -0.0055    3.3330 H   0  0  0  0  0  0  0  0  0  0  0  0
    1.4791    0.7442    4.2600 H   0  0  0  0  0  0  0  0  0  0  0  0
    3.0872    1.4869    4.2519 H   0  0  0  0  0  0  0  0  0  0  0  0
    4.3244    3.7064   -2.6268 H   0  0  0  0  0  0  0  0  0  0  0  0
    2.7172    4.1698   -2.0211 H   0  0  0  0  0  0  0  0  0  0  0  0
    4.9868    4.0856    0.9074 H   0  0  0  0  0  0  0  0  0  0  0  0
    4.4062    5.1609   -0.3743 H   0  0  0  0  0  0  0  0  0  0  0  0
    3.9086    2.6153    2.1351 H   0  0  0  0  0  0  0  0  0  0  0  0
    3.5976    1.1450    1.2000 H   0  0  0  0  0  0  0  0  0  0  0  0
    1.9922    2.4004   -0.2565 H   0  0  0  0  0  0  0  0  0  0  0  0
    2.3770    3.9075    0.5696 H   0  0  0  0  0  0  0  0  0  0  0  0
    1.4840    2.7170    2.7449 H   0  0  0  0  0  0  0  0  0  0  0  0
    4.4531    2.2459   -0.6670 H   0  0  0  0  0  0  0  0  0  0  0  0
  1  3  1  0  0  0  0
  1  4  2  0  0  0  0
  1 32  1  0  0  0  0
  2  5  1  0  0  0  0
  2  6  2  0  0  0  0
  2 33  1  0  0  0  0
  3  7  2  0  0  0  0
  3 34  1  0  0  0  0
  4  8  1  0  0  0  0
  4 35  1  0  0  0  0
  5  9  2  0  0  0  0
  5 36  1  0  0  0  0
  6 10  1  0  0  0  0
  6 37  1  0  0  0  0
  7 11  1  0  0  0  0
  7 38  1  0  0  0  0
  8 11  2  0  0  0  0
  8 39  1  0  0  0  0
  9 12  1  0  0  0  0
  9 40  1  0  0  0  0
 10 12  2  0  0  0  0
 10 41  1  0  0  0  0
 11 22  1  0  0  0  0
 12 23  1  0  0  0  0
 13 27  1  0  0  0  0
 13 29  2  0  0  0  0
 13 31  1  0  0  0  0
 14 15  1  0  0  0  0
 14 30  1  0  0  0  0
 14 42  1  0  0  0  0
 14 43  1  0  0  0  0
 15 17  1  0  0  0  0
 15 18  1  0  0  0  0
 15 27  1  0  0  0  0
 16 19  1  0  0  0  0
 16 20  1  0  0  0  0
 16 27  1  0  0  0  0
 16 30  1  0  0  0  0
 17 44  1  0  0  0  0
 17 45  1  0  0  0  0
 17 46  1  0  0  0  0
 18 47  1  0  0  0  0
 18 48  1  0  0  0  0
 18 49  1  0  0  0  0
 19 50  1  0  0  0  0
 19 51  1  0  0  0  0
 19 52  1  0  0  0  0
 20 53  1  0  0  0  0
 20 54  1  0  0  0  0
 20 55  1  0  0  0  0
 21 26  1  0  0  0  0
 21 56  1  0  0  0  0
 21 57  1  0  0  0  0
 21 58  1  0  0  0  0
 22 28  1  0  0  0  0
 22 59  1  0  0  0  0
 22 60  1  0  0  0  0
 23 28  1  0  0  0  0
 23 61  1  0  0  0  0
 23 62  1  0  0  0  0
 24 25  1  0  0  0  0
 24 26  1  0  0  0  0
 24 63  1  0  0  0  0
 24 64  1  0  0  0  0
 25 28  1  0  0  0  0
 25 65  1  0  0  0  0
 25 66  1  0  0  0  0
 26 31  1  0  0  0  0
 26 67  1  0  0  0  0
 28 68  1  0  0  0  0
M  CHG  1  28   1
M  END
$$$$
