29
0 1 C12H14N2O
C                     1.071739837173     2.223391740950     0.217770053796
C                    -0.235203484787     1.863105749859    -0.133659712165
C                     1.496366463852     2.139080666528     1.551111978880
C                    -1.133812175815     1.414497817430     0.844284374601
C                     0.600803208838     1.692013258919     2.522029565975
C                    -0.710879593557     1.331312567524     2.170513671131
C                    -0.450860221766    -0.521945474909     6.050109042775
C                     0.819685736008     1.497565394199     4.005077015150
C                    -1.477176058686     0.868731224003     3.388383561903
C                     0.100895017236    -2.653117831445     5.925224014822
C                    -0.038316446508    -2.258844253934     7.418568030118
C                    -0.633460284998     1.449850453507     4.551921881228
N                    -0.077667598507    -1.395940313500     5.186557542896
N                    -0.822135990539     0.772548307574     5.832442204994
O                    -0.538390244117    -0.895518968173     7.372936909905
H                     1.758972559685     2.574615365928    -0.548024449706
H                    -0.555161171699     1.936740414759    -1.170163522751
H                     2.511436269026     2.423030209677     1.821185114412
H                    -2.149697966956     1.139364731743     0.568506666404
H                     1.313713922116     0.538871843005     4.196368941070
H                     1.415007573837     2.290468878897     4.470029236619
H                    -2.514168008790     1.217480432220     3.417396374533
H                    -1.479961769234    -0.224241256069     3.448328359445
H                     1.079682199719    -3.092823754333     5.707452680418
H                    -0.662009099174    -3.380882210353     5.621182406750
H                    -0.757528506758    -2.861485533355     7.977254913776
H                     0.918366633461    -2.248008562072     7.950260811661
H                    -0.964664130660     2.480148401856     4.716660493774
H                    -0.826164500224     1.345130755063     6.665544541248
