33
1 1 C9F3H17NO2S
C                    -0.232028908366     0.147486255413     0.491824787454
C                    -0.757628542418    -0.693856248446     1.661095037906
C                     1.288841164436     0.115683011975     0.671187646142
C                     0.201736476447    -1.883075966438     1.719339874826
C                     0.262412263512    -2.647524354244     3.035098548267
C                     0.927149567547    -5.373438496301     6.978049042321
C                     1.210202028321    -3.849525299989     3.015501936091
C                     1.296012653371    -4.413283352359     5.844923717358
C                     1.300879792517    -4.772902659540     8.321119461790
N                     1.564220423361    -1.235563295943     1.358749691508
O                     1.578719561427    -6.302022430427     3.971762161134
O                    -0.713649444664    -5.189350132747     4.267107244467
F                     2.629883612789    -4.505518601505     8.392963137003
F                     0.649581435883    -3.598247898675     8.533662488311
F                     0.990407522437    -5.604067699193     9.329910547608
S                     0.755969164396    -5.124474800630     4.261902072211
H                    -0.515950256953    -0.300334679377    -0.464788197701
H                    -0.603046274615     1.173747116113     0.503701963569
H                    -0.725128642474    -0.130505001057     2.600506070058
H                    -1.783402782339    -1.035893716888     1.511612001082
H                     1.863058489043     0.161102635932    -0.253669128845
H                     1.642130279195     0.892000701737     1.350316194301
H                    -0.008009822056    -2.567537123309     0.892517633787
H                    -0.752682883958    -3.011540272071     3.228206017696
H                     0.507559109798    -1.958937985843     3.853255406646
H                     1.455652352445    -6.323228736177     6.872871912512
H                    -0.147196869564    -5.570261287174     6.988191316242
H                     1.130159064443    -4.418729146784     2.082964058639
H                     2.264507989994    -3.605694078209     3.179793393894
H                     0.784694681427    -3.454309855836     5.960291376758
H                     2.376487158377    -4.264940258498     5.780077066646
H                     2.114932262489    -1.856080297959     0.758385795007
H                     2.119291751354    -1.092416145488     2.207802651291
