
  -OEChem-05262117483D

 32 32  0     1  0  0  0  0  0999 V2000
   -1.0782   -1.7066   -1.2880 C   0  0  0  0  0  0  0  0  0  0  0  0
   -0.2146   -2.9709   -1.5525 C   0  0  0  0  0  0  0  0  0  0  0  0
   -0.3140   -0.9477   -0.1870 C   0  0  0  0  0  0  0  0  0  0  0  0
    0.9430   -2.8869   -0.5299 C   0  0  2  0  0  0  0  0  0  0  0  0
    1.3903   -4.2319    0.0473 C   0  0  0  0  0  0  0  0  0  0  0  0
    3.8425   -8.9103   -1.2265 C   0  0  0  0  0  0  0  0  0  0  0  0
    1.9939   -5.1284   -1.0348 C   0  0  0  0  0  0  0  0  0  0  0  0
    3.2876   -7.5748   -1.7204 C   0  0  0  0  0  0  0  0  0  0  0  0
    4.4335   -9.7183   -2.3616 C   0  0  0  0  0  0  0  0  0  0  0  0
    0.3860   -2.0268    0.5221 N   0  0  0  0  0  0  0  0  0  0  0  0
    1.4224   -7.4480    0.1815 O   0  0  0  0  0  0  0  0  0  0  0  0
    3.6946   -6.3666    0.6222 O   0  0  0  0  0  0  0  0  0  0  0  0
    3.5078  -10.0089   -3.3127 F   0  0  0  0  0  0  0  0  0  0  0  0
    5.4432   -9.0554   -2.9844 F   0  0  0  0  0  0  0  0  0  0  0  0
    4.9365  -10.8921   -1.9175 F   0  0  0  0  0  0  0  0  0  0  0  0
    2.5848   -6.6785   -0.2969 S   0  0  0  0  0  0  0  0  0  0  0  0
   -1.2152   -1.0941   -2.1830 H   0  0  0  0  0  0  0  0  0  0  0  0
   -2.0691   -1.9940   -0.9280 H   0  0  0  0  0  0  0  0  0  0  0  0
   -0.8015   -3.8792   -1.3826 H   0  0  0  0  0  0  0  0  0  0  0  0
    0.1629   -3.0103   -2.5782 H   0  0  0  0  0  0  0  0  0  0  0  0
    0.3814   -0.2214   -0.6439 H   0  0  0  0  0  0  0  0  0  0  0  0
   -0.9750   -0.4021    0.4931 H   0  0  0  0  0  0  0  0  0  0  0  0
    1.8120   -2.4082   -1.0217 H   0  0  0  0  0  0  0  0  0  0  0  0
    0.5301   -4.7247    0.5087 H   0  0  0  0  0  0  0  0  0  0  0  0
    2.1370   -4.0664    0.8312 H   0  0  0  0  0  0  0  0  0  0  0  0
    3.0529   -9.5095   -0.7672 H   0  0  0  0  0  0  0  0  0  0  0  0
    4.6291   -8.7496   -0.4858 H   0  0  0  0  0  0  0  0  0  0  0  0
    1.2595   -5.4057   -1.7959 H   0  0  0  0  0  0  0  0  0  0  0  0
    2.8613   -4.6615   -1.5118 H   0  0  0  0  0  0  0  0  0  0  0  0
    4.0721   -6.9454   -2.1466 H   0  0  0  0  0  0  0  0  0  0  0  0
    2.4820   -7.7150   -2.4448 H   0  0  0  0  0  0  0  0  0  0  0  0
    1.1146   -1.6687    1.1362 H   0  0  0  0  0  0  0  0  0  0  0  0
  1  2  1  0  0  0  0
  1  3  1  0  0  0  0
  1 17  1  0  0  0  0
  1 18  1  0  0  0  0
  2  4  1  0  0  0  0
  2 19  1  0  0  0  0
  2 20  1  0  0  0  0
  3 10  1  0  0  0  0
  3 21  1  0  0  0  0
  3 22  1  0  0  0  0
  4  5  1  0  0  0  0
  4 10  1  0  0  0  0
  4 23  1  0  0  0  0
  5  7  1  0  0  0  0
  5 24  1  0  0  0  0
  5 25  1  0  0  0  0
  6  8  1  0  0  0  0
  6  9  1  0  0  0  0
  6 26  1  0  0  0  0
  6 27  1  0  0  0  0
  7 16  1  0  0  0  0
  7 28  1  0  0  0  0
  7 29  1  0  0  0  0
  8 16  1  0  0  0  0
  8 30  1  0  0  0  0
  8 31  1  0  0  0  0
  9 13  1  0  0  0  0
  9 14  1  0  0  0  0
  9 15  1  0  0  0  0
 10 32  1  0  0  0  0
 11 16  2  0  0  0  0
 12 16  2  0  0  0  0
M  END
$$$$
