
  -OEChem-05262117483D

 29 31  0     0  0  0  0  0  0999 V2000
    1.0717    2.2234    0.2178 C   0  0  0  0  0  0  0  0  0  0  0  0
   -0.2352    1.8631   -0.1337 C   0  0  0  0  0  0  0  0  0  0  0  0
    1.4964    2.1391    1.5511 C   0  0  0  0  0  0  0  0  0  0  0  0
   -1.1338    1.4145    0.8443 C   0  0  0  0  0  0  0  0  0  0  0  0
    0.6008    1.6920    2.5220 C   0  0  0  0  0  0  0  0  0  0  0  0
   -0.7109    1.3313    2.1705 C   0  0  0  0  0  0  0  0  0  0  0  0
   -0.4509   -0.5219    6.0501 C   0  0  0  0  0  0  0  0  0  0  0  0
    0.8197    1.4976    4.0051 C   0  0  0  0  0  0  0  0  0  0  0  0
   -1.4772    0.8687    3.3884 C   0  0  0  0  0  0  0  0  0  0  0  0
    0.1009   -2.6531    5.9252 C   0  0  0  0  0  0  0  0  0  0  0  0
   -0.0383   -2.2588    7.4186 C   0  0  0  0  0  0  0  0  0  0  0  0
   -0.6335    1.4499    4.5519 C   0  0  0  0  0  0  0  0  0  0  0  0
   -0.0777   -1.3959    5.1866 N   0  0  0  0  0  0  0  0  0  0  0  0
   -0.8221    0.7725    5.8324 N   0  0  0  0  0  0  0  0  0  0  0  0
   -0.5384   -0.8955    7.3729 O   0  0  0  0  0  0  0  0  0  0  0  0
    1.7590    2.5746   -0.5480 H   0  0  0  0  0  0  0  0  0  0  0  0
   -0.5552    1.9367   -1.1702 H   0  0  0  0  0  0  0  0  0  0  0  0
    2.5114    2.4230    1.8212 H   0  0  0  0  0  0  0  0  0  0  0  0
   -2.1497    1.1394    0.5685 H   0  0  0  0  0  0  0  0  0  0  0  0
    1.3137    0.5389    4.1964 H   0  0  0  0  0  0  0  0  0  0  0  0
    1.4150    2.2905    4.4700 H   0  0  0  0  0  0  0  0  0  0  0  0
   -2.5142    1.2175    3.4174 H   0  0  0  0  0  0  0  0  0  0  0  0
   -1.4800   -0.2242    3.4483 H   0  0  0  0  0  0  0  0  0  0  0  0
    1.0797   -3.0928    5.7075 H   0  0  0  0  0  0  0  0  0  0  0  0
   -0.6620   -3.3809    5.6212 H   0  0  0  0  0  0  0  0  0  0  0  0
   -0.7575   -2.8615    7.9773 H   0  0  0  0  0  0  0  0  0  0  0  0
    0.9184   -2.2480    7.9503 H   0  0  0  0  0  0  0  0  0  0  0  0
   -0.9647    2.4801    4.7167 H   0  0  0  0  0  0  0  0  0  0  0  0
   -0.8262    1.3451    6.6655 H   0  0  0  0  0  0  0  0  0  0  0  0
  1  2  1  0  0  0  0
  1  3  2  0  0  0  0
  1 16  1  0  0  0  0
  2  4  2  0  0  0  0
  2 17  1  0  0  0  0
  3  5  1  0  0  0  0
  3 18  1  0  0  0  0
  4  6  1  0  0  0  0
  4 19  1  0  0  0  0
  5  6  2  0  0  0  0
  5  8  1  0  0  0  0
  6  9  1  0  0  0  0
  7 13  2  0  0  0  0
  7 14  1  0  0  0  0
  7 15  1  0  0  0  0
  8 12  1  0  0  0  0
  8 20  1  0  0  0  0
  8 21  1  0  0  0  0
  9 12  1  0  0  0  0
  9 22  1  0  0  0  0
  9 23  1  0  0  0  0
 10 11  1  0  0  0  0
 10 13  1  0  0  0  0
 10 24  1  0  0  0  0
 10 25  1  0  0  0  0
 11 15  1  0  0  0  0
 11 26  1  0  0  0  0
 11 27  1  0  0  0  0
 12 14  1  0  0  0  0
 12 28  1  0  0  0  0
 14 29  1  0  0  0  0
M  END
$$$$
