49
0 1 C21H25NO2
C                     1.995333513784    -0.862514148501    -6.569278771543
C                     2.309023461769     0.352357048479    -7.194188489460
C                     0.769789235807    -0.979596548442    -5.912671963136
C                    -0.706153728851     4.769233186008    -2.452896611607
C                     1.217056693569     3.332100707701    -2.559240301993
C                    -0.855269691320     4.656005921423    -3.838794004207
C                     1.072623991748     3.224253381438    -3.942336399776
C                     1.418684328847     1.422515529518    -7.161571006339
C                    -0.125400605309     0.094927152450    -5.861615241900
C                     0.335698317049     4.110604767195    -1.786199161099
C                     0.029293911564     3.890586985571    -4.606079893133
C                     0.183073348746     1.319209549159    -6.484384538543
C                     1.756395715382     6.530132342331    -0.435912500178
C                    -0.369985835821     4.608016226632     2.026422463240
C                     0.875229927617     5.408128311463     2.427895539037
C                    -0.644024217904     4.713909137411     0.520059990049
C                     2.097561126240     5.023646084006     1.581548643339
C                     0.569332055850     4.232770575716    -0.289501262977
C                     1.833957515489     5.082404323364     0.065738012682
C                    -2.051979605807     2.175099896555    -5.957421680495
C                    -0.169768785899     3.727182725112    -6.103053460832
N                    -0.712870046009     2.410899753474    -6.480583691477
O                     1.695999249216     7.505003306532     0.281613225764
O                     1.804732957890     6.699797891048    -1.786222169724
H                     2.689755590254    -1.697303681624    -6.601751228357
H                     3.250453558984     0.462684051525    -7.727000660724
H                     0.503749658311    -1.911850527613    -5.420147566367
H                    -1.399976713218     5.391070860880    -1.896791864023
H                     2.029725275175     2.800115788587    -2.067509782167
H                    -1.671715714485     5.181552230288    -4.330022197273
H                     1.766833968701     2.609534838709    -4.508275159680
H                     1.674186400547     2.339187758718    -7.684198733550
H                    -1.055860710777    -0.024753094837    -5.318775988010
H                    -0.233708490373     3.549714812973     2.290268236066
H                    -1.241782837411     4.961032878629     2.588799416008
H                     0.681075068319     6.476972141683     2.304803374058
H                     1.102763295658     5.241912479566     3.487226826799
H                    -1.521850336542     4.115677163597     0.251059126298
H                    -0.877607033981     5.756040715881     0.269099290712
H                     2.942765210833     5.672133774096     1.829395727469
H                     2.398051108545     3.995285326423     1.822870533245
H                     0.810846957852     3.222720312725     0.068778326261
H                     2.688900889683     4.629338448650    -0.453285012288
H                    -2.666598610303     3.055956417283    -6.164695652486
H                    -2.081369769414     1.992256268928    -4.871738706459
H                    -2.503705905454     1.321775603539    -6.470039793220
H                    -0.863615091105     4.491370884733    -6.468215084362
H                     0.773836346071     3.883833393171    -6.626396349876
H                     1.751487326873     5.835950258310    -2.235748674415
