29   
torsion grid (-165,)
C        3.1035508550   -1.2030972912    1.7475712253
C        1.4206285171   -1.6016899365    0.0649876491
C        2.2057100301   -0.4284523989    2.4739229550
C        0.5069778565   -0.8289622520    0.7866616762
C        8.5150813805   -4.7048233517    2.1502509848
C        2.7327604883   -1.8046149813    0.5267253373
C        0.9069231386   -0.2443871149    1.9866343804
C        8.6695562588   -5.3057171548    0.9332093764
C        6.7729713944   -4.2374986702    0.5331858807
C        3.7024180487   -2.6399632447   -0.2168135188
C        9.7982095735   -6.2071999964    0.5285246954
C        3.4692384638   -3.0192597602   -1.6609717915
N        7.6666042154   -5.0324471591    0.0112629083
N        4.7505297307   -3.0262897912    0.4404967556
N        5.6738780872   -3.7991701602   -0.1715275557
S        7.0517482281   -3.7409614904    2.1907139006
Cl      -0.2296329339    0.7347851102    2.8977398417
H        4.1118096381   -1.3500778630    2.1189994972
H        1.0795387116   -2.0618246565   -0.8565971842
H        2.5062530941    0.0349896066    3.4084836029
H       -0.5049481733   -0.6870154185    0.4206797118
H        9.1574250935   -4.7679181820    3.0185770682
H        9.4175287399   -7.1931115480    0.2408446787
H       10.3265129656   -5.7952201777   -0.3379687618
H       10.5132074072   -6.3341284911    1.3451109427
H        4.3701296375   -2.8296741884   -2.2572399297
H        3.2202514637   -4.0837207950   -1.7618692641
H        2.6650080045   -2.4431876742   -2.1157543534
H        5.5544215793   -4.1848261410   -1.1047951985
29   
torsion grid (-150,)
C        3.1284965447   -1.0459912293    1.6552819393
C        1.3639763658   -1.7915497196    0.1872968272
C        2.2152651177   -0.2788074401    2.3738920156
C        0.4359825925   -1.0310516164    0.9018006744
C        8.4518321882   -4.8230850706    2.1782236383
C        2.7207568799   -1.8210730699    0.5526516610
C        0.8701904792   -0.2765741244    1.9916839644
C        8.6419829215   -5.3502609872    0.9324642482
C        6.7703100794   -4.2374082618    0.5357088013
C        3.7068977789   -2.6279434818   -0.1996192539
C        9.7746616724   -6.2389170622    0.5109655074
C        3.5191357895   -2.9059626364   -1.6734902168
N        7.6733937982   -5.0094213793   -0.0037531458
N        4.7460248867   -3.0273292016    0.4617636403
N        5.7051853596   -3.7346187502   -0.1800299749
S        6.9963279795   -3.8481604249    2.2295105174
Cl      -0.2849078446    0.6931350633    2.8901857293
H        4.1746993278   -1.0515276728    1.9425849675
H        1.0075693053   -2.3858072313   -0.6489763506
H        2.5411799740    0.3209516491    3.2179841004
H       -0.6114688365   -1.0261575283    0.6173466179
H        9.0629738646   -4.9477545472    3.0622961346
H        9.3941564670   -7.2005409013    0.1501008766
H       10.3366906038   -5.7809667928   -0.3100547648
H       10.4598115698   -6.4246481336    1.3417755614
H        4.4061847795   -2.5845981261   -2.2338366732
H        3.3706084647   -3.9755742055   -1.8727577492
H        2.6664694120   -2.3669811398   -2.0847646871
H        5.5907592429   -4.0975306043   -1.1232483397
29   
torsion grid (-135,)
C        3.1969427761   -0.8544879772    1.5023063066
C        1.4123016832   -1.9064936907    0.2603041802
C        2.2684922864   -0.0655652946    2.1804823829
C        0.4714843112   -1.1278202389    0.9357965457
C        8.4268075433   -4.9281815476    2.2552313356
C        2.7840049756   -1.7956419121    0.5432408815
C        0.9090180054   -0.2099016544    1.8923957154
C        8.6694824029   -5.3838124036    0.9905793937
C        6.8196664486   -4.2404781184    0.5786424118
C        3.7850871427   -2.6001024824   -0.1946948973
C        9.8169507773   -6.2525242906    0.5674937036
C        3.6586292628   -2.7858366508   -1.6899549573
N        7.7431018901   -4.9847268095    0.0347783806
N        4.7997184105   -3.0219046160    0.4877555194
N        5.7891051094   -3.6903213272   -0.1532814273
S        6.9729391917   -3.9505876018    2.3002838403
Cl      -0.2659908217    0.7843676813    2.7372579925
H        4.2560377744   -0.7491728623    1.7153200012
H        1.0638565227   -2.6241895157   -0.4779090805
H        2.5941787747    0.6620794711    2.9172488904
H       -0.5880102909   -1.2309459033    0.7238971644
H        8.9987545685   -5.1067776616    3.1561357949
H        9.4498553730   -7.1893216100    0.1345910330
H       10.4158719636   -5.7505362907   -0.1999771398
H       10.4644384992   -6.4902740867    1.4150948224
H        4.5319516811   -2.3534391676   -2.1953651650
H        3.6035687463   -3.8454197249   -1.9733033370
H        2.7723979666   -2.2876384017   -2.0826436416
H        5.7108725043   -4.0040784303   -1.1177245858
29   
torsion grid (-120,)
C        3.1945958147   -0.6967488190    1.3754728099
C        1.4334104404   -2.0459829853    0.4217023422
C        2.2457166127    0.0899590359    2.0311561232
C        0.4736048193   -1.2728469600    1.0760697121
C        8.3805541625   -5.0557300914    2.2697280182
C        2.8039923598   -1.7845045570    0.5790958739
C        0.8902703700   -0.2072067362    1.8772710625
C        8.6532812536   -5.4435269988    0.9887644805
C        6.8302755209   -4.2528471236    0.5911394236
C        3.8199437928   -2.5680255421   -0.1687466554
C        9.8008203141   -6.3037871210    0.5489057944
C        3.7329064869   -2.6503892853   -1.6765120647
N        7.7590342141   -4.9786638053    0.0319109399
N        4.8182487663   -3.0191248696    0.5156293820
N        5.8301466385   -3.6443515567   -0.1381789170
S        6.9385687579   -4.0616280697    2.3297914721
Cl      -0.3110284998    0.7797154161    2.6939421080
H        4.2515962826   -0.4747827532    1.4873668414
H        1.1076284590   -2.8747151240   -0.2023612267
H        2.5527507402    0.9294437697    2.6470375224
H       -0.5839293206   -1.4913160462    0.9666269746
H        8.9240841375   -5.2931184184    3.1746548893
H        9.4339809637   -7.2096669387    0.0543328505
H       10.4274228625   -5.7685937943   -0.1726731139
H       10.4212652367   -6.5977035165    1.3991265574
H        4.5817165907   -2.1204275702   -2.1284592594
H        3.7580165869   -3.6861969315   -2.0406732777
H        2.8168156486   -2.1886906799   -2.0457389741
H        5.7693281893   -3.9141834383   -1.1172342729
29   
torsion grid (-105,)
C        3.1355304618   -0.5266299148    1.1914531008
C        1.4946551298   -2.1976574910    0.6044923802
C        2.1486795478    0.2276243083    1.8314197041
C        0.4983072191   -1.4584166837    1.2445051530
C        8.3135549428   -5.1844680407    2.2814868677
C        2.8251546413   -1.7529685507    0.5870478543
C        0.8365848517   -0.2474259394    1.8528505179
C        8.6246692590   -5.5051040234    0.9908610618
C        6.8319591445   -4.2672374402    0.5989608495
C        3.8697249405   -2.5044771941   -0.1649325430
C        9.7755561790   -6.3564723395    0.5425493281
C        3.8223756468   -2.5064563158   -1.6770574357
N        7.7696545532   -4.9750514944    0.0318023862
N        4.8382010922   -3.0025786774    0.5257737622
N        5.8648831403   -3.6052608221   -0.1287097313
S        6.8838403647   -4.1730721526    2.3481451622
Cl      -0.4119362525    0.6949364361    2.6517577426
H        4.1602057921   -0.1664864621    1.1729059055
H        1.2332866204   -3.1394696155    0.1280799960
H        2.3937707738    1.1738089929    2.3035763310
H       -0.5266384219   -1.8146403772    1.2717229158
H        8.8230993385   -5.4787033722    3.1894967389
H        9.4144685585   -7.2282790067   -0.0136749129
H       10.4332665035   -5.7914944948   -0.1267671727
H       10.3627677373   -6.7058188411    1.3954129211
H        4.6786438255   -1.9513353157   -2.0827774234
H        3.8605921509   -3.5223924847   -2.0928863723
H        2.9104995784   -2.0315103371   -2.0405448712
H        5.8328053071   -3.8209523690   -1.1224444128
29   
torsion grid (-90,)
C        3.0034827571   -0.3343972566    0.9185721543
C        1.6671815660   -2.3426973321    0.8263944272
C        1.9660481337    0.3358733973    1.5719682945
C        0.6205643696   -1.6867796536    1.4793477634
C        8.2040611964   -5.3287509380    2.3008464194
C        2.8677915207   -1.6776429242    0.5427313219
C        0.7803727354   -0.3487231467    1.8440124597
C        8.5583131295   -5.5993044930    1.0099671453
C        6.8168584368   -4.2939819570    0.6061610383
C        3.9649494691   -2.3725865017   -0.1962605962
C        9.7037045325   -6.4611771062    0.5676791824
C        3.9609870362   -2.3338130889   -1.7087068913
N        7.7573088853   -5.0020236185    0.0436683382
N        4.8701913361   -2.9557495715    0.5107062867
N        5.8958432000   -3.5769868145   -0.1275154593
S        6.8006626950   -4.2802245783    2.3586315581
Cl      -0.5316090590    0.4863460849    2.6609433951
H        3.9316003475    0.1915002123    0.7109790167
H        1.5504141378   -3.3864462935    0.5467156460
H        2.0769578370    1.3740515397    1.8688051783
H       -0.3048557243   -2.2069989271    1.7055679666
H        8.6689859225   -5.6774783564    3.2134850691
H        9.3428561685   -7.2962045974   -0.0425291095
H       10.4023981424   -5.8846884856   -0.0481829344
H       10.2467466947   -6.8653826099    1.4255615516
H        4.8780923634   -1.8678997871   -2.0932168414
H        3.9000203546   -3.3438400053   -2.1368990708
H        3.1098080876   -1.7628069731   -2.0812273716
H        5.9134833212   -3.7241760423   -1.1337828793
29   
torsion grid (-75,)
C        2.9266202538   -0.2049465130    0.7402589513
C        1.8950327917   -2.3507749043    1.1429189593
C        1.9193509009    0.4265706849    1.4722545465
C        0.8768881505   -1.7330483417    1.8735828972
C        8.0195773332   -5.5696553529    2.2515524288
C        2.9194938783   -1.5953824132    0.5557693376
C        0.8977788104   -0.3462305536    2.0290315408
C        8.4785877444   -5.6868164391    0.9705884649
C        6.6953594779   -4.4387222093    0.5679287173
C        4.0163386759   -2.2703728957   -0.1956486966
C        9.7023359658   -6.4362121411    0.5333146108
C        4.0553831900   -2.1532714144   -1.7033699722
N        7.7133546908   -5.0347295281    0.0108186542
N        4.8021594302   -3.0290576924    0.4894797451
N        5.7575810394   -3.7403284149   -0.1639482934
S        6.5608439819   -4.5999108045    2.3078355989
Cl      -0.3762628059    0.4406154017    2.9472497708
H        3.7293784550    0.3929430949    0.3156216506
H        1.8976608301   -3.4313988312    1.0325394807
H        1.9308352027    1.5020041317    1.6186473740
H        0.0818632531   -2.3202409810    2.3223641757
H        8.4428134218   -5.9812637991    3.1582741611
H        9.4364522602   -7.2212073006   -0.1828237834
H       10.4067931890   -5.7628169890    0.0332192439
H       10.2068367254   -6.8980578272    1.3856190313
H        5.0364878835   -1.8226045245   -2.0701775643
H        3.8415930034   -3.1265342627   -2.1650015853
H        3.3097006359   -1.4411726637   -2.0590347640
H        5.9822322241   -3.5894880234   -1.1446636138
29   
torsion grid (-60,)
C        2.7504939090   -0.1970146148    0.5370554217
C        2.0701987548   -2.3726809141    1.3355136240
C        1.7316366818    0.4032573119    1.2778521989
C        1.0420351577   -1.7870695995    2.0764587700
C        7.9143098909   -5.6915179484    2.2376888470
C        2.9241470129   -1.5903825295    0.5431106751
C        0.8801763358   -0.4008328792    2.0393402299
C        8.4299933317   -5.7401757278    0.9738430462
C        6.6764948070   -4.4531521929    0.5641449719
C        4.0504641526   -2.2175139663   -0.1945212659
C        9.6669496789   -6.4753866848    0.5498538909
C        4.1629684586   -2.0243878005   -1.6904138194
N        7.7140323841   -5.0269728199    0.0197862471
N        4.7992424091   -3.0239221091    0.4812579978
N        5.7777283020   -3.7053500881   -0.1674869904
S        6.4623319760   -4.7112982595    2.2843199594
Cl      -0.4095941814    0.3458517699    2.9684119784
H        3.4213470825    0.4306153423   -0.0447461982
H        2.2164908750   -3.4479930061    1.3700351806
H        1.6046321481    1.4811762278    1.2748509118
H        0.3760213576   -2.3972598835    2.6784603840
H        8.2933672362   -6.1577951651    3.1374562131
H        9.4282969876   -7.2157089171   -0.2213150235
H       10.3981297215   -5.7814235943    0.1213937299
H       10.1288839302   -6.9898292020    1.3961342398
H        5.1574496207   -1.6710340198   -1.9941827081
H        3.9791900738   -2.9767167888   -2.2050587576
H        3.4285080038   -1.3033529002   -2.0509317261
H        6.0481187802   -3.5009076331   -1.1267451377
29   
torsion grid (-45,)
C        2.5840733816   -0.2594294586    0.3842319652
C        2.2046797418   -2.3681619325    1.5007875417
C        1.5470073473    0.3232169235    1.1141753603
C        1.1623507801   -1.8002938745    2.2322277636
C        7.8389234348   -5.8102311907    2.2193560351
C        2.9221810952   -1.6121167438    0.5576787073
C        0.8395748134   -0.4557100880    2.0317303544
C        8.4029479716   -5.7925423996    0.9753955183
C        6.6696284364   -4.4778183324    0.5685848016
C        4.0617312039   -2.2114752543   -0.1742818305
C        9.6536674817   -6.5094496773    0.5605958667
C        4.2462244786   -1.9359557723   -1.6495139550
N        7.7261399291   -5.0260844026    0.0343371818
N        4.7957454824   -3.0450701722    0.4882379983
N        5.8028694164   -3.6860044282   -0.1546213394
S        6.3884703195   -4.8275845071    2.2627489976
Cl      -0.4735026956    0.2659221652    2.9471394441
H        3.1417158748    0.3569251585   -0.3162405285
H        2.4705597364   -3.4091722223    1.6545641604
H        1.2953160596    1.3704402080    0.9799271877
H        0.6031165923   -2.3926259900    2.9496896641
H        8.1816934387   -6.3262536563    3.1064267166
H        9.4432221703   -7.2063042861   -0.2578241938
H       10.4024296279   -5.7967139679    0.1985090308
H       10.0812912555   -7.0705227277    1.3951832990
H        5.2269332352   -1.4938239684   -1.8704611602
H        4.1705706958   -2.8724681984   -2.2171928096
H        3.4810273380   -1.2588048359   -2.0291227936
H        6.1087234509   -3.4338511904   -1.0914998636
29   
torsion grid (-30,)
C        2.4325347887   -0.3423955832    0.2529356454
C        2.3345887463   -2.3177644280    1.6382117675
C        1.3770539735    0.2228034066    0.9717886592
C        1.2784297992   -1.7676813190    2.3595616325
C        7.7646142286   -5.9195391580    2.1895890503
C        2.9281787252   -1.6189502833    0.5693051563
C        0.8039094206   -0.4967683493    2.0201174165
C        8.3752793189   -5.8415766747    0.9701136575
C        6.6648658604   -4.4963967041    0.5668695981
C        4.0705094194   -2.2061543836   -0.1653727258
C        9.6368290100   -6.5455919526    0.5661477547
C        4.3228468480   -1.8549016798   -1.6136889172
N        7.7382108533   -5.0236063944    0.0449866219
N        4.7953880132   -3.0593336602    0.4850407083
N        5.8326169054   -3.6591866173   -0.1447914547
S        6.3183534950   -4.9305677575    2.2290402696
Cl      -0.5305859470    0.2001665160    2.9230456844
H        2.8805078068    0.2386914419   -0.5478276158
H        2.7107797083   -3.3023879953    1.8953384338
H        1.0075360805    1.2127950884    0.7239704017
H        0.8202742043   -2.3185018423    3.1750924220
H        8.0704861211   -6.4837338349    3.0606614183
H        9.4518462187   -7.2043787131   -0.2891285208
H       10.3997320679   -5.8210854850    0.2616820125
H       10.0339435603   -7.1453586177    1.3888030863
H        5.2696023089   -1.3142974565   -1.7448403465
H        4.3759681962   -2.7680705634   -2.2197800370
H        3.5255042245   -1.2392983894   -2.0285464202
H        6.1697390413   -3.3685062244   -1.0593582420
29   
torsion grid (-15,)
C        2.5516757420   -0.0660144270    0.8413087875
C        2.1227448487   -2.3789719324    1.3785850592
C        1.7413632701    0.3378969370    1.9058530322
C        1.3106442983   -1.9902921798    2.4382347710
C        5.6833608961   -7.2139725851   -0.9954711920
C        2.7611241693   -1.4265239160    0.5566657948
C        1.1231509392   -0.6278744332    2.6972535959
C        6.3545121909   -6.7008023265   -2.0689566615
C        5.2392852881   -4.8821875832   -1.4797513556
C        3.6282803153   -1.8676329909   -0.5591569842
C        7.3182684543   -7.4430266381   -2.9467649044
C        4.0616327358   -0.9102170315   -1.6450823597
N        6.0939206917   -5.3632167122   -2.3403875764
N        3.9947230302   -3.1105097525   -0.5458447380
N        4.7907682641   -3.5798931509   -1.5329940286
S        4.6658819613   -5.9950825600   -0.2535422030
Cl       0.0969818910   -0.1322967086    4.0322038408
H        3.0355880053    0.7053420487    0.2512816267
H        2.2716916345   -3.4331047280    1.1719575625
H        1.5955818040    1.3923477563    2.1178102270
H        0.8200134310   -2.7334910022    3.0590496808
H        5.7245550457   -8.2172639678   -0.5925944965
H        6.9722699963   -7.4386992866   -3.9859583352
H        8.3024868395   -6.9627846179   -2.9279272262
H        7.4298879371   -8.4800001980   -2.6206009805
H        5.1254533720   -0.6540999468   -1.5549459631
H        3.9093792100   -1.3602315137   -2.6334675734
H        3.4931187093    0.0182416887   -1.6302217804
H        5.2588524439   -2.9760579212   -2.2043584671
29   
torsion grid (0,)
C        2.3237407598   -0.0866314332    0.6461113079
C        2.3201932674   -2.3434222085    1.4942194580
C        1.4383248724    0.3001028951    1.6563982113
C        1.4399705403   -1.9721373427    2.5033707154
C        5.6304083589   -7.2456337390   -1.0055574884
C        2.7842554066   -1.4107707787    0.5405133137
C        1.0007240006   -0.6454186148    2.5803648948
C        6.3101847515   -6.7417946461   -2.0781309261
C        5.2925066782   -4.8853296414   -1.4335902052
C        3.7223120316   -1.8444781672   -0.5209383299
C        7.2228340975   -7.5105082969   -2.9871858505
C        4.2523167117   -0.8930029465   -1.5680498179
N        6.1111042004   -5.3877919946   -2.3171918864
N        4.0703244746   -3.0937929502   -0.5041963119
N        4.9242710044   -3.5588773769   -1.4399077376
S        4.6800514718   -5.9969251756   -0.2250879763
Cl      -0.1109082208   -0.1715445160    3.8529597189
H        2.6442729025    0.6749226699   -0.0557973008
H        2.6625405055   -3.3701312153    1.4314325238
H        1.0940817263    1.3273649536    1.7216345020
H        1.0931315324   -2.7019465122    3.2283443374
H        5.6267506293   -8.2589066978   -0.6263147222
H        6.8565749578   -7.4744117922   -4.0188384077
H        8.2270381905   -7.0733566394   -2.9813567197
H        7.2957120068   -8.5565374801   -2.6795563802
H        5.3470081449   -0.8313221009   -1.5163756397
H        3.9855610410   -1.2381804596   -2.5753110255
H        3.8678053755    0.1186232189   -1.4639134958
H        5.3181600548   -2.9838105780   -2.1802118748
29   
torsion grid (15,)
C        2.0925963061   -0.1962427484    0.4886401638
C        2.4751467662   -2.2776570913    1.6478649047
C        1.1375727728    0.1663851014    1.4422709004
C        1.5301700943   -1.9268564761    2.6056852357
C        5.6022182400   -7.2365011915   -1.0584685530
C        2.7776724315   -1.4210594610    0.5685507957
C        0.8636223354   -0.7011223274    2.4975534312
C        6.2783099183   -6.7217176058   -2.1280818789
C        5.3372878091   -4.8535720964   -1.4052651912
C        3.7812435142   -1.8232412354   -0.4427296707
C        7.1457545401   -7.4913206426   -3.0796659306
C        4.3652076066   -0.8227849869   -1.4131732735
N        6.1216658961   -5.3544465245   -2.3197735924
N        4.1212492304   -3.0736579329   -0.4496389315
N        5.0302671321   -3.5109160428   -1.3502143413
S        4.7066743463   -5.9829493116   -0.2229998207
Cl      -0.3282624690   -0.2527619845    3.7054865046
H        2.2747254236    0.4889694077   -0.3327066787
H        2.9957995904   -3.2257476925    1.7261256271
H        0.6112701969    1.1122718000    1.3626033010
H        1.3114819207   -2.5924612495    3.4349129694
H        5.5674218296   -8.2615314310   -0.7139323296
H        6.7654700253   -7.4025981928   -4.1030018876
H        8.1666029680   -7.0944997934   -3.0747444488
H        7.1817071693   -8.5500957117   -2.8115985857
H        5.4570826015   -0.9183032067   -1.4487173962
H        3.9829390038   -0.9784389001   -2.4305588543
H        4.1475673119    0.2055868693   -1.1293359350
H        5.3466921276   -2.9504588607   -2.1377524635
29   
torsion grid (30,)
C        1.9062612825   -0.2971350510    0.3442881528
C        2.5668516619   -2.1618096000    1.7291642755
C        0.9279207227    0.0571536591    1.2757353667
C        1.5985965685   -1.8161875276    2.6679799451
C        5.4942592403   -7.2331728683   -1.1755045501
C        2.7426743782   -1.4071618532    0.5531884602
C        0.7828593189   -0.7044259004    2.4351193471
C        6.2463832254   -6.6920414078   -2.1792171582
C        5.3008654858   -4.8327793855   -1.4379318596
C        3.7547404789   -1.8085596552   -0.4487222852
C        7.1556672248   -7.4417015149   -3.1074467252
C        4.4070099623   -0.7809914168   -1.3451226392
N        6.1299541070   -5.3148505677   -2.3228017540
N        4.0730165188   -3.0634120094   -0.4742761173
N        5.0181483921   -3.4870986841   -1.3453399305
S        4.5740794948   -5.9941306100   -0.3450219434
Cl      -0.4367865906   -0.2610997247    3.6174069088
H        1.9935476852    0.2945439794   -0.5622902594
H        3.2031407586   -3.0238077329    1.9001573982
H        0.2821067443    0.9116913784    1.1004315648
H        1.4776736232   -2.3976941529    3.5766206714
H        5.4171303525   -8.2701171506   -0.8765144131
H        6.8425798357   -7.3014586754   -4.1476589625
H        8.1823964355   -7.0698858677   -3.0222493461
H        7.1522873734   -8.5112779029   -2.8834918475
H        5.4992485871   -0.8469253620   -1.2631597544
H        4.1438267937   -0.9323158390   -2.4003931948
H        4.1250491495    0.2352191959   -1.0718005925
H        5.3984695925   -2.8992745445   -2.0830842657
29   
torsion grid (45,)
C        1.7822385735   -0.4242071131    0.2297571873
C        2.6881012411   -2.0180988736    1.8030896684
C        0.7870150671   -0.0748397848    1.1437401666
C        1.7028528916   -1.6740942143    2.7276538396
C        5.3934127026   -7.2460945020   -1.2712412049
C        2.7515281110   -1.3907706907    0.5467549528
C        0.7579528874   -0.7014112270    2.3909405418
C        6.2089331866   -6.6930073441   -2.2171857451
C        5.2864272933   -4.8325745140   -1.4509072596
C        3.7694417198   -1.8021776559   -0.4472622434
C        7.1381451068   -7.4377464349   -3.1294699097
C        4.4936464353   -0.7595535101   -1.2687354990
N        6.1416817560   -5.3083543343   -2.3138364410
N        4.0630469762   -3.0612424924   -0.4829310720
N        5.0435305388   -3.4821241129   -1.3184779650
S        4.4726227580   -6.0091258970   -0.4384189256
Cl      -0.4841586536   -0.2612193337    3.5512989127
H        1.7889129303    0.0556203670   -0.7455608179
H        3.4217192301   -2.7788434054    2.0503581802
H        0.0376060509    0.6680015937    0.8895550585
H        1.6668794912   -2.1526187457    3.7013326175
H        5.2703543567   -8.2903083721   -1.0160379869
H        6.8802235145   -7.2492252535   -4.1771756237
H        8.1706925743   -7.1034213743   -2.9818990435
H        7.0905639597   -8.5141371759   -2.9469396863
H        5.5699631111   -0.7963342167   -1.0560189424
H        4.3642521195   -0.9173597550   -2.3478109901
H        4.1468699715    0.2467982249   -1.0337524850
H        5.4688904522   -2.8815746779   -2.0207066997
29   
torsion grid (60,)
C        1.6701456221   -0.5938104397    0.1485782818
C        2.8062568699   -1.8420932850    1.8769116174
C        0.6583064148   -0.2524107671    1.0468431101
C        1.8046287297   -1.5026124461    2.7881949497
C        5.2961263321   -7.2506267485   -1.3685520891
C        2.7624183549   -1.3778758231    0.5533504384
C        0.7378845557   -0.7073285935    2.3651491863
C        6.1670694195   -6.6907011625   -2.2593767310
C        5.2783864717   -4.8302258185   -1.4547100161
C        3.8015765371   -1.7925250010   -0.4233858216
C        7.1057925507   -7.4316831464   -3.1649692985
C        4.5946053593   -0.7368431046   -1.1611390503
N        6.1505302348   -5.3017030159   -2.3027310316
N        4.0666468050   -3.0553524981   -0.4773031616
N        5.0804773510   -3.4772121269   -1.2750315809
S        4.3852872737   -6.0154410306   -0.5224185125
Cl      -0.5269246545   -0.2763522852    3.5048037625
H        1.6008285673   -0.2507238224   -0.8809550047
H        3.6316664033   -2.4740020422    2.1904748554
H       -0.1870807650    0.3490607876    0.7280874626
H        1.8480967861   -1.8534434206    3.8144983129
H        5.1270271643   -8.2990027714   -1.1612003097
H        6.8961324088   -7.1932833949   -4.2132986168
H        8.1425200572   -7.1404252117   -2.9647264129
H        7.0143935383   -8.5120285261   -3.0281273062
H        5.6404680936   -0.7536457526   -0.8272424837
H        4.5919643756   -0.8934982520   -2.2481246338
H        4.1987605891    0.2606616074   -0.9671501539
H        5.5458456220   -2.8678630796   -1.9437354691
29   
torsion grid (75,)
C        1.5738179368   -0.8245976978    0.0642534811
C        2.9041737884   -1.5951361478    1.9264493791
C        0.5454050419   -0.4630028208    0.9365918281
C        1.8863471610   -1.2334735645    2.8126495003
C        5.1823106138   -7.2637273384   -1.5070893419
C        2.7670227979   -1.3807733828    0.5480872835
C        0.7149305561   -0.6668855997    2.3079141655
C        6.1104838101   -6.7012003529   -2.3361424407
C        5.2600599397   -4.8428055518   -1.4854628524
C        3.8483893651   -1.7989059426   -0.3897330178
C        7.0581483769   -7.4388001182   -3.2351792430
C        4.7045287564   -0.7374623957   -1.0444720768
N        6.1482382653   -5.3118772685   -2.3179428638
N        4.0690448496   -3.0655834067   -0.4854424059
N        5.1064539409   -3.4916213608   -1.2527759297
S        4.2847286968   -6.0307661006   -0.6436440814
Cl      -0.5715284802   -0.2104305774    3.4134713226
H        1.4400011618   -0.6777905800   -1.0047173840
H        3.8116146790   -2.0541975146    2.3081895936
H       -0.3794088581   -0.0386018619    0.5587996947
H        1.9974040931   -1.3955482712    3.8801942580
H        4.9652901393   -8.3125034528   -1.3532646494
H        6.9022387393   -7.1473612232   -4.2794859590
H        8.0957144405   -7.1975645557   -2.9801707975
H        6.9205312180   -8.5196123606   -3.1506311991
H        5.7322800318   -0.7896848352   -0.6610753901
H        4.7531664473   -0.8559485280   -2.1353826072
H        4.3172797359    0.2604056214   -0.8349393970
H        5.6167068497   -2.8734869126   -1.8794268928
29   
torsion grid (90,)
C        1.5613626172   -1.0618345035    0.1393339027
C        3.0717824680   -1.2651342912    2.0108185299
C        0.5512292903   -0.6161715680    0.9959727902
C        2.0728991376   -0.8212273042    2.8808649177
C        4.9969871912   -7.2751597640   -1.7282238996
C        2.8286977080   -1.3933850499    0.6363146795
C        0.8183372142   -0.4973147683    2.3608986977
C        6.0460779833   -6.7202689755   -2.4038941957
C        5.1442825492   -4.8600606628   -1.6126127500
C        3.9189669902   -1.8241897393   -0.2901938042
C        7.0861154300   -7.4630184107   -3.1893921370
C        4.8340194257   -0.7719459451   -0.8776588370
N        6.1237582926   -5.3342768510   -2.3323017381
N        4.0049080353   -3.0833388934   -0.5482350154
N        4.9729166893   -3.5088036684   -1.4005558730
S        4.0325057592   -6.0388833690   -0.9447672002
Cl      -0.4455182250    0.0663205033    3.4430432030
H        1.3555009914   -1.1629857154   -0.9229744762
H        4.0482934092   -1.5257369067    2.4103833399
H       -0.4320647365   -0.3670768331    0.6096042284
H        2.2627974700   -0.7312838509    3.9458191710
H        4.7328634945   -8.3203770215   -1.6363675226
H        7.0846407021   -7.1350615767   -4.2344964493
H        8.0854097458   -7.2655756912   -2.7865748193
H        6.9056777204   -8.5404781862   -3.1618005680
H        5.8788963911   -0.9365538940   -0.5801467388
H        4.7979717381   -0.7867302029   -1.9751503596
H        4.5464828001    0.2254379607   -0.5432356735
H        5.7170414689   -2.9043055616   -1.7401347574
29   
torsion grid (105,)
C        1.5517509167   -1.4138465713    0.2083647781
C        3.0835490346   -0.9494133906    2.0158330423
C        0.4863457032   -0.9455399636    0.9816290511
C        2.0289762808   -0.4834060371    2.8029389786
C        4.9086401660   -7.2507723722   -1.8812431345
C        2.8566757217   -1.4376890355    0.7203233099
C        0.7357242868   -0.4848229620    2.2751884607
C        5.9897709840   -6.6965846006   -2.5052241339
C        5.1268579841   -4.8504091171   -1.6410983196
C        3.9945155449   -1.8595814581   -0.1449186097
C        7.0252366401   -7.4322640916   -3.3033109686
C        4.9367970007   -0.8033815701   -0.6791113000
N        6.1076972431   -5.3190969257   -2.3623561267
N        4.0282257813   -3.0996068797   -0.4974586476
N        4.9884730315   -3.5051097783   -1.3688428260
S        3.9646100336   -6.0251707150   -1.0577630341
Cl      -0.5961986509    0.1091792694    3.2541130067
H        1.3664793949   -1.7777574441   -0.7982352767
H        4.0914780664   -0.9469742551    2.4236966739
H       -0.5236435336   -0.9341985269    0.5840649876
H        2.2057712626   -0.1233959862    3.8115426163
H        4.6112694841   -8.2905312218   -1.8471436266
H        7.0589474376   -7.0534610303   -4.3305111818
H        8.0200547842   -7.2865651306   -2.8686559961
H        6.8114834455   -8.5035408556   -3.3335053874
H        5.9886169578   -1.0399644179   -0.4688592089
H        4.8293277729   -0.7171003144   -1.7685882130
H        4.7204117202    0.1716127500   -0.2411883576
H        5.7751690763   -2.9165901345   -1.6331025705
29   
torsion grid (120,)
C        1.5734144570   -1.6549802985    0.2956961775
C        3.0749707086   -0.7170807346    1.9382714522
C        0.4761970477   -1.2017063126    1.0303760506
C        1.9882367157   -0.2636548374    2.6870296282
C        4.8217423622   -7.2154490169   -1.9923743325
C        2.8841732941   -1.4364739111    0.7476351009
C        0.6938241935   -0.5104676794    2.2237547420
C        5.9455908568   -6.6798935951   -2.5543152601
C        5.1199497857   -4.8364026592   -1.6492618939
C        4.0419330132   -1.8614915556   -0.0795510303
C        6.9825015284   -7.4241342043   -3.3425219721
C        5.0412558083   -0.8269702783   -0.5473967525
N        6.1091396602   -5.3146047833   -2.3527704210
N        4.0452603249   -3.0900492947   -0.4782560547
N        5.0208635049   -3.4983180317   -1.3291360846
S        3.8937366930   -5.9868826687   -1.1553888612
Cl      -0.6799231417    0.0680198537    3.1523057645
H        1.4165743040   -2.1933125511   -0.6341629534
H        4.0821800781   -0.5235609513    2.2994718813
H       -0.5357867453   -1.3741417300    0.6775657280
H        2.1408856547    0.2750263169    3.6168745236
H        4.4853821238   -8.2436717360   -2.0096765801
H        7.0693175511   -7.0080525241   -4.3520163182
H        7.9647557736   -7.3336699622   -2.8663100563
H        6.7303211230   -8.4844083891   -3.4227832468
H        6.0749808596   -1.1016063910   -0.2980688818
H        4.9821336319   -0.7184395733   -1.6384020339
H        4.8384802515    0.1480701286   -0.1036742533
H        5.8385151174   -2.9312006931   -1.5411880596
29   
torsion grid (135,)
C        1.6171142768   -1.8208720295    0.4035978497
C        3.0653417722   -0.5265902008    1.8395374381
C        0.5054574815   -1.3929709216    1.1284686526
C        1.9623448163   -0.0951858026    2.5778122383
C        4.7358190118   -7.1681792957   -2.0858024089
C        2.9136945832   -1.4067292293    0.7549843394
C        0.6873716856   -0.5323894825    2.2139759451
C        5.8992814139   -6.6609048319   -2.5906377444
C        5.1179404808   -4.8165963635   -1.6489157303
C        4.0806595500   -1.8407771100   -0.0473041071
C        6.9316735462   -7.4204596015   -3.3701184285
C        5.1489236424   -0.8440216013   -0.4366327784
N        6.1108479378   -5.3113522113   -2.3357772236
N        4.0640786121   -3.0625444769   -0.4716566522
N        5.0639269383   -3.4891220069   -1.2809375383
S        3.8296771144   -5.9312067099   -1.2371295901
Cl      -0.7079162107    0.0162306897    3.1278493007
H        1.4881604560   -2.4870372005   -0.4435990474
H        4.0556678402   -0.1880247749    2.1329424097
H       -0.4935380196   -1.7133652358    0.8496828095
H        2.0888925562    0.5714919904    3.4249224150
H        4.3584984649   -8.1800898614   -2.1514893582
H        7.0698512810   -6.9741930541   -4.3608082603
H        7.8997919929   -7.3871883329   -2.8588569322
H        6.6396896297   -8.4659528729   -3.4961409435
H        6.1443617252   -1.1427963859   -0.0818605582
H        5.1995270792   -0.7585252984   -1.5298945212
H        4.9357276809    0.1482742826   -0.0395027273
H        5.9040266588   -2.9435335154   -1.4578668807
29   
torsion grid (150,)
C        1.6594236792   -1.9602819378    0.5259991874
C        3.0274447440   -0.3745866658    1.7273954274
C        0.5424940016   -1.5603965366    1.2547856761
C        1.9167334858    0.0327350089    2.4694389633
C        4.6567516566   -7.1104684545   -2.1972069289
C        2.9227425173   -1.3801665077    0.7512361261
C        0.6794195372   -0.5629153603    2.2253002112
C        5.8661720754   -6.6381788554   -2.6217917293
C        5.1140142958   -4.7940929661   -1.6562715422
C        4.0968551256   -1.8178818670   -0.0356499653
C        6.9056926178   -7.4157929650   -3.3734881349
C        5.2280406640   -0.8607289661   -0.3340764827
N        6.1205927340   -5.3087102950   -2.3078799266
N        4.0685645715   -3.0320454949   -0.4848662397
N        5.0971958953   -3.4799557328   -1.2414925098
S        3.7602207199   -5.8645019221   -1.3513991720
Cl      -0.7259395288   -0.0491919549    3.1433582540
H        1.5636505330   -2.7313323911   -0.2312800102
H        3.9872788462    0.0870372482    1.9402283371
H       -0.4286812094   -2.0083834070    1.0688454001
H        2.0116190990    0.8017544465    3.2294970582
H        4.2406614237   -8.1016668990   -2.3197198331
H        7.1158823796   -6.9422298265   -4.3384889684
H        7.8453914873   -7.4433547109   -2.8114036962
H        6.5765084557   -8.4422406874   -3.5529667374
H        6.1658809356   -1.1736243134    0.1437227578
H        5.4068474140   -0.8135089212   -1.4157356007
H        5.0033703609    0.1518522668   -0.0009107190
H        5.9631781857   -2.9613681553   -1.3663586647
29   
torsion grid (165,)
C        1.7214137631   -2.0872888927    0.6633170918
C        2.9657314302   -0.2377402646    1.5902398638
C        0.5983334005   -1.7055548991    1.3890214560
C        1.8445814039    0.1534510621    2.3269222606
C        4.5862815865   -7.0494639168   -2.3159102483
C        2.9282139361   -1.3613680966    0.7464255819
C        0.6658965705   -0.5820519841    2.2203964108
C        5.8365084681   -6.6165356242   -2.6560083758
C        5.1050683302   -4.7713671049   -1.6767710406
C        4.1126767258   -1.8012245655   -0.0246090567
C        6.8854594749   -7.4150497490   -3.3718314142
C        5.3029092275   -0.8940096969   -0.2340283844
N        6.1260521559   -5.3088675690   -2.2861321342
N        4.0683359673   -3.0023198682   -0.5094753846
N        5.1178084839   -3.4706201346   -1.2217322495
S        3.6933185929   -5.7916489230   -1.4840282494
Cl      -0.7495326647   -0.0946497176    3.1366485393
H        1.6757381830   -2.9565568067    0.0164592085
H        3.8758214542    0.3417545958    1.7050949636
H       -0.3265454820   -2.2685507279    1.3109560065
H        1.8898108092    1.0195492718    2.9794847844
H        4.1380200236   -8.0180697377   -2.4932452287
H        7.1704032292   -6.9225130590   -4.3077018203
H        7.7889803894   -7.4990391659   -2.7583961096
H        6.5257720886   -8.4208376941   -3.6024031617
H        6.1885331280   -1.2651690650    0.2983082102
H        5.5548825961   -0.8372899836   -1.3002818136
H        5.1165735169    0.1245580949    0.1013662876
H        6.0093678205   -2.9853892478   -1.2847597768
29   
torsion grid (180,)
C        1.8203711116   -2.2238519840    0.9047889051
C        2.8631518648   -0.1150150993    1.4323610868
C        0.6699671735   -1.8333465978    1.5793882708
C        1.7120595996    0.2900335642    2.1144067384
C        4.5759948050   -6.9967443677   -2.3887355378
C        2.9452924855   -1.3747903590    0.8137168903
C        0.6206628993   -0.5720336879    2.1842008526
C        5.8385592413   -6.5734381028   -2.6935549009
C        5.1299689656   -4.7597565145   -1.6413212455
C        4.1542565912   -1.8260678192    0.0859375716
C        6.8807297927   -7.3594348514   -3.4327230495
C        5.3867803022   -0.9620062795   -0.0444296134
N        6.1484951021   -5.2897695977   -2.2615573771
N        4.0999393465   -3.0109898394   -0.4382598321
N        5.1642853898   -3.4855861061   -1.1198306153
S        3.6951469250   -5.7581787032   -1.5158269771
Cl      -0.8297458224   -0.0750138119    3.0380302356
H        1.8625339452   -3.2003071472    0.4356965957
H        3.6940693276    0.5805154418    1.3976524072
H       -0.1860853134   -2.4982127619    1.6396543304
H        1.6676215992    1.2667204711    2.5857283724
H        4.1110998575   -7.9468586840   -2.6161511958
H        7.1848273109   -6.8320290855   -4.3432360033
H        7.7756933182   -7.4866112995   -2.8142472825
H        6.5055215213   -8.3473966885   -3.7107195195
H        6.2550520987   -1.4508773909    0.4162914478
H        5.6250292603   -0.7873932220   -1.1013431817
H        5.2804034176    0.0119913212    0.4269346849
H        6.0517835648   -2.9941587603   -1.1903329293
