28
1 1 C11H13N2O2
C                    -1.281556574455     0.584044997384    -1.544718041771
C                    -0.750117856182    -0.443461668181    -0.747186166809
C                    -2.417103102119     0.351797914546    -2.328325025900
C                    -1.326459213444    -1.718447311625    -0.709262152829
C                    -2.996885730533    -0.916737725463    -2.295175190505
C                    -2.454013059102    -1.928701366245    -1.499491070069
C                    -5.848854821395    -0.696485576544    -1.205597011815
C                    -7.022741280451    -0.246513748063     0.734877430804
C                    -5.688806766851    -0.951386296554     1.039979822221
C                    -4.117294763078    -2.973978834440    -2.628003567870
C                    -4.231593727934    -1.463087779098    -2.961538550272
N                    -6.835894998737     0.052394872816    -0.697816457229
N                    -5.500907660618    -0.814260801748    -2.475557937723
O                    -3.150925983286    -3.105208660106    -1.564860145691
O                    -5.196119409960    -1.370689400493    -0.282785893046
H                    -0.800279564127     1.556861695653    -1.561934213766
H                     0.137211740107    -0.248813409343    -0.151405087830
H                    -2.827277126576     1.142557400733    -2.952279383156
H                    -0.912709406281    -2.516965763411    -0.101716226182
H                    -7.890336779033    -0.895253913892     0.884111283372
H                    -7.146537499834     0.672368833178     1.309155171573
H                    -4.934298306185    -0.283440289460     1.457159539101
H                    -5.782413722704    -1.851552133859     1.643469409752
H                    -5.056291385973    -3.423187176625    -2.301571926962
H                    -3.739299147535    -3.513796052532    -3.501082951053
H                    -4.260713169772    -1.300957221727    -4.040047368319
H                    -7.510871193867     0.556715238165    -1.260393883491
H                    -6.054202212624    -0.307176109903    -3.157093644220
