
  -OEChem-05262117483D

 35 36  0     1  0  0  0  0  0999 V2000
    6.2728   -2.4665    7.0253 C   0  0  0  0  0  0  0  0  0  0  0  0
    5.3227   -0.0756    5.4178 C   0  0  0  0  0  0  0  0  0  0  0  0
    4.8160    0.6048    4.3092 C   0  0  0  0  0  0  0  0  0  0  0  0
    3.1964   -1.1739    5.7175 C   0  0  0  0  0  0  0  0  0  0  0  0
    4.5176   -0.9681    6.1289 C   0  0  0  0  0  0  0  0  0  0  0  0
    3.4951    0.3912    3.8889 C   0  0  0  0  0  0  0  0  0  0  0  0
    2.6786   -0.5118    4.6059 C   0  0  0  0  0  0  0  0  0  0  0  0
   -0.4639   -0.9834    1.9767 C   0  0  0  0  0  0  0  0  0  0  0  0
    0.8792   -1.2762    1.2473 C   0  0  0  0  0  0  0  0  0  0  0  0
   -0.4407   -1.8646    3.2431 C   0  0  0  0  0  0  0  0  0  0  0  0
    1.7306   -2.1095    2.2409 C   0  0  0  0  0  0  0  0  0  0  0  0
    1.0409   -1.9459    3.6007 C   0  0  0  0  0  0  0  0  0  0  0  0
    3.7046    1.9163    2.0628 C   0  0  0  0  0  0  0  0  0  0  0  0
    5.0535   -1.6795    7.3510 C   0  0  2  0  0  0  0  0  0  0  0  0
    7.2291   -3.0917    6.8066 N   0  0  0  0  0  0  0  0  0  0  0  0
    5.3410   -0.7133    8.3653 O   0  0  0  0  0  0  0  0  0  0  0  0
    1.3710   -0.6763    4.2264 O   0  0  0  0  0  0  0  0  0  0  0  0
    2.9178    0.9940    2.8110 O   0  0  0  0  0  0  0  0  0  0  0  0
    6.3489    0.0963    5.7297 H   0  0  0  0  0  0  0  0  0  0  0  0
    5.4594    1.2935    3.7738 H   0  0  0  0  0  0  0  0  0  0  0  0
    2.5420   -1.8455    6.2679 H   0  0  0  0  0  0  0  0  0  0  0  0
   -0.5081    0.0689    2.2688 H   0  0  0  0  0  0  0  0  0  0  0  0
   -1.3365   -1.1885    1.3496 H   0  0  0  0  0  0  0  0  0  0  0  0
    0.7211   -1.8263    0.3147 H   0  0  0  0  0  0  0  0  0  0  0  0
    1.3886   -0.3441    0.9946 H   0  0  0  0  0  0  0  0  0  0  0  0
   -1.0371   -1.4640    4.0671 H   0  0  0  0  0  0  0  0  0  0  0  0
   -0.8007   -2.8764    3.0218 H   0  0  0  0  0  0  0  0  0  0  0  0
    1.7109   -3.1733    1.9766 H   0  0  0  0  0  0  0  0  0  0  0  0
    2.7802   -1.8068    2.2712 H   0  0  0  0  0  0  0  0  0  0  0  0
    1.2794   -2.7564    4.3003 H   0  0  0  0  0  0  0  0  0  0  0  0
    3.0568    2.2759    1.2624 H   0  0  0  0  0  0  0  0  0  0  0  0
    4.5858    1.4300    1.6267 H   0  0  0  0  0  0  0  0  0  0  0  0
    4.0220    2.7643    2.6816 H   0  0  0  0  0  0  0  0  0  0  0  0
    4.3032   -2.4003    7.7028 H   0  0  0  0  0  0  0  0  0  0  0  0
    5.7253   -1.1729    9.1313 H   0  0  0  0  0  0  0  0  0  0  0  0
  1 14  1  0  0  0  0
  1 15  3  0  0  0  0
  2  3  1  0  0  0  0
  2  5  2  0  0  0  0
  2 19  1  0  0  0  0
  3  6  2  0  0  0  0
  3 20  1  0  0  0  0
  4  5  1  0  0  0  0
  4  7  2  0  0  0  0
  4 21  1  0  0  0  0
  5 14  1  0  0  0  0
  6  7  1  0  0  0  0
  6 18  1  0  0  0  0
  7 17  1  0  0  0  0
  8  9  1  0  0  0  0
  8 10  1  0  0  0  0
  8 22  1  0  0  0  0
  8 23  1  0  0  0  0
  9 11  1  0  0  0  0
  9 24  1  0  0  0  0
  9 25  1  0  0  0  0
 10 12  1  0  0  0  0
 10 26  1  0  0  0  0
 10 27  1  0  0  0  0
 11 12  1  0  0  0  0
 11 28  1  0  0  0  0
 11 29  1  0  0  0  0
 12 17  1  0  0  0  0
 12 30  1  0  0  0  0
 13 18  1  0  0  0  0
 13 31  1  0  0  0  0
 13 32  1  0  0  0  0
 13 33  1  0  0  0  0
 14 16  1  0  0  0  0
 14 34  1  0  0  0  0
 16 35  1  0  0  0  0
M  END
$$$$
