34
1 1 C13H19N2
C                    -4.874975159571    -2.532032459910    -0.004593808533
C                    -4.738256316285    -1.719004561686    -1.124236285554
C                    -3.813899693139    -2.568588582551     0.906774345190
C                    -3.571708624373    -0.959541721719    -1.294029974533
C                    -2.566600003387    -1.041545011991    -0.304505564192
C                    -2.147305932502    -3.106048961766    -3.421055814865
C                    -1.172583264923    -2.600418237224    -4.462376715016
C                    -1.148209330849     1.171214600986    -0.700399011354
C                    -0.981686528544     0.702884868927     0.725792288905
C                    -2.395825219860    -1.794782463082    -4.113054307336
C                    -1.242151890889    -0.317148491480    -0.356979009240
C                    -0.057159436251    -1.218085959119    -0.698738781357
C                    -3.441650804518    -0.107296690916    -2.527128415946
N                    -2.697633181509    -1.849961956341     0.760043230948
N                    -2.232940087537    -0.516444603719    -3.366001837149
H                    -5.768371788456    -3.126192764345     0.159024218352
H                    -5.532465826214    -1.671835451412    -1.865878289186
H                    -3.864256937354    -3.199837441277     1.791859129417
H                    -2.815533377204    -3.921265843856    -3.676880949252
H                    -1.833968120201    -3.093746713473    -2.383345676035
H                    -0.206046423741    -2.246202776591    -4.113914723022
H                    -1.151757056580    -3.062246434572    -5.443689004145
H                    -2.048884294840     1.740245105202    -0.907549468093
H                    -0.265508357661     1.518239501137    -1.232482685519
H                     0.009088057665     0.720367735653     1.168231136914
H                    -1.790141467817     0.915902503904     1.416775491396
H                    -3.206318422746    -1.711980485646    -4.829397941349
H                     0.883806323837    -0.665097747800    -0.632967642182
H                    -0.105906986893    -1.650668288900    -1.708924169748
H                    -0.015099944704    -2.055046415289     0.003496353207
H                    -4.311955849171    -0.212439582960    -3.176484374711
H                    -3.302571285820     0.950641945306    -2.306861741113
H                    -1.423355778260    -0.562027796352    -2.733452715932
H                    -2.020370136479     0.230859977074    -4.037999600684
