
  -OEChem-05262117483D

 76 79  0     1  0  0  0  0  0999 V2000
    2.6264   -4.2901   11.5541 C   0  0  0  0  0  0  0  0  0  0  0  0
    3.9937   -4.5711   11.4466 C   0  0  0  0  0  0  0  0  0  0  0  0
    1.7500   -4.8029   10.5969 C   0  0  0  0  0  0  0  0  0  0  0  0
    4.4663   -5.3600   10.3973 C   0  0  0  0  0  0  0  0  0  0  0  0
    2.2330   -5.5873    9.5442 C   0  0  0  0  0  0  0  0  0  0  0  0
    3.7842   -4.6788    5.0783 C   0  0  0  0  0  0  0  0  0  0  0  0
    2.6033   -4.5059    4.3536 C   0  0  0  0  0  0  0  0  0  0  0  0
   -0.1553   -0.4554    2.8765 C   0  0  0  0  0  0  0  0  0  0  0  0
   -0.4645   -2.1432    1.1837 C   0  0  0  0  0  0  0  0  0  0  0  0
    1.6409   -3.3491    6.2810 C   0  0  0  0  0  0  0  0  0  0  0  0
    0.1230   -1.4427    3.8355 C   0  0  0  0  0  0  0  0  0  0  0  0
    3.5972   -5.8825    9.4236 C   0  0  0  0  0  0  0  0  0  0  0  0
    3.9197   -4.2078    6.3832 C   0  0  0  0  0  0  0  0  0  0  0  0
   -0.4493   -0.7888    1.5543 C   0  0  0  0  0  0  0  0  0  0  0  0
    1.5419   -3.8687    4.9806 C   0  0  0  0  0  0  0  0  0  0  0  0
    0.1029   -2.7828    3.4509 C   0  0  0  0  0  0  0  0  0  0  0  0
   -0.1883   -3.1444    2.1195 C   0  0  0  0  0  0  0  0  0  0  0  0
    2.8618   -3.4822    6.9743 C   0  0  0  0  0  0  0  0  0  0  0  0
    0.3674   -2.8206    6.8746 C   0  0  0  0  0  0  0  0  0  0  0  0
    0.4858   -1.0168    5.2393 C   0  0  0  0  0  0  0  0  0  0  0  0
   -0.7676    0.2759    0.5294 C   0  0  0  0  0  0  0  0  0  0  0  0
   -0.4303   -8.5689   -0.8139 C   0  0  0  0  0  0  0  0  0  0  0  0
   -2.0299   -6.7263   -1.4629 C   0  0  0  0  0  0  0  0  0  0  0  0
    3.0601   -7.1916    7.2994 C   0  0  0  0  0  0  0  0  0  0  0  0
    4.7595   -8.0357    8.8976 C   0  0  0  0  0  0  0  0  0  0  0  0
    2.3566   -1.8957    8.7575 C   0  0  0  0  0  0  0  0  0  0  0  0
   -0.4346   -6.4287    0.5130 C   0  0  0  0  0  0  0  0  0  0  0  0
    5.3115   -6.0168    7.5321 C   0  0  0  0  0  0  0  0  0  0  0  0
   -0.5065   -4.9086    0.5266 C   0  0  0  0  0  0  0  0  0  0  0  0
    5.1686   -4.5216    7.1719 C   0  0  1  0  0  0  0  0  0  0  0  0
   -0.6458   -7.0501   -0.8786 C   0  0  0  0  0  0  0  0  0  0  0  0
    4.1572   -6.7464    8.2868 C   0  0  0  0  0  0  0  0  0  0  0  0
   -0.1768   -3.3255    7.8339 O   0  0  0  0  0  0  0  0  0  0  0  0
    0.2967   -3.8098    4.3625 O   0  0  0  0  0  0  0  0  0  0  0  0
   -0.2074   -1.7411    6.2789 O   0  0  0  0  0  0  0  0  0  0  0  0
    6.2941   -4.1269    6.3562 O   0  0  0  0  0  0  0  0  0  0  0  0
    3.1341   -2.9532    8.1966 O   0  0  0  0  0  0  0  0  0  0  0  0
   -0.1585   -4.4787    1.8479 O   0  0  0  0  0  0  0  0  0  0  0  0
    2.2537   -3.6764   12.3706 H   0  0  0  0  0  0  0  0  0  0  0  0
    4.6913   -4.1766   12.1819 H   0  0  0  0  0  0  0  0  0  0  0  0
    0.6871   -4.5823   10.6481 H   0  0  0  0  0  0  0  0  0  0  0  0
    5.5328   -5.5644   10.3357 H   0  0  0  0  0  0  0  0  0  0  0  0
    1.5236   -5.9401    8.8052 H   0  0  0  0  0  0  0  0  0  0  0  0
    4.6232   -5.2026    4.6303 H   0  0  0  0  0  0  0  0  0  0  0  0
    2.4751   -4.8932    3.3481 H   0  0  0  0  0  0  0  0  0  0  0  0
   -0.1484    0.5898    3.1776 H   0  0  0  0  0  0  0  0  0  0  0  0
   -0.6909   -2.4050    0.1557 H   0  0  0  0  0  0  0  0  0  0  0  0
    1.5658   -1.0901    5.3980 H   0  0  0  0  0  0  0  0  0  0  0  0
    0.1925    0.0241    5.3876 H   0  0  0  0  0  0  0  0  0  0  0  0
   -0.1341    0.1750   -0.3586 H   0  0  0  0  0  0  0  0  0  0  0  0
   -1.8096    0.2049    0.1967 H   0  0  0  0  0  0  0  0  0  0  0  0
   -0.6160    1.2789    0.9371 H   0  0  0  0  0  0  0  0  0  0  0  0
   -1.1685   -9.0392   -0.1531 H   0  0  0  0  0  0  0  0  0  0  0  0
    0.5658   -8.8152   -0.4299 H   0  0  0  0  0  0  0  0  0  0  0  0
   -0.5318   -9.0248   -1.8047 H   0  0  0  0  0  0  0  0  0  0  0  0
   -2.8255   -7.0697   -0.7901 H   0  0  0  0  0  0  0  0  0  0  0  0
   -2.1716   -7.2255   -2.4275 H   0  0  0  0  0  0  0  0  0  0  0  0
   -2.1716   -5.6531   -1.6268 H   0  0  0  0  0  0  0  0  0  0  0  0
    3.5083   -7.7759    6.4891 H   0  0  0  0  0  0  0  0  0  0  0  0
    2.5238   -6.3586    6.8451 H   0  0  0  0  0  0  0  0  0  0  0  0
    2.3275   -7.8326    7.8002 H   0  0  0  0  0  0  0  0  0  0  0  0
    5.1898   -8.6680    8.1119 H   0  0  0  0  0  0  0  0  0  0  0  0
    5.5489   -7.8115    9.6212 H   0  0  0  0  0  0  0  0  0  0  0  0
    3.9856   -8.6117    9.4149 H   0  0  0  0  0  0  0  0  0  0  0  0
    2.9983   -1.4381    9.5120 H   0  0  0  0  0  0  0  0  0  0  0  0
    1.4499   -2.2777    9.2271 H   0  0  0  0  0  0  0  0  0  0  0  0
    2.1010   -1.1472    7.9978 H   0  0  0  0  0  0  0  0  0  0  0  0
    0.5486   -6.7230    0.8983 H   0  0  0  0  0  0  0  0  0  0  0  0
   -1.1784   -6.8246    1.2153 H   0  0  0  0  0  0  0  0  0  0  0  0
    6.2248   -6.0988    8.1379 H   0  0  0  0  0  0  0  0  0  0  0  0
    5.5144   -6.5653    6.6049 H   0  0  0  0  0  0  0  0  0  0  0  0
    0.1975   -4.4812   -0.2016 H   0  0  0  0  0  0  0  0  0  0  0  0
   -1.5135   -4.5503    0.2823 H   0  0  0  0  0  0  0  0  0  0  0  0
    5.1581   -3.9318    8.0901 H   0  0  0  0  0  0  0  0  0  0  0  0
    0.1142   -6.6319   -1.5545 H   0  0  0  0  0  0  0  0  0  0  0  0
    7.1006   -4.3346    6.8550 H   0  0  0  0  0  0  0  0  0  0  0  0
  1  2  1  0  0  0  0
  1  3  2  0  0  0  0
  1 39  1  0  0  0  0
  2  4  2  0  0  0  0
  2 40  1  0  0  0  0
  3  5  1  0  0  0  0
  3 41  1  0  0  0  0
  4 12  1  0  0  0  0
  4 42  1  0  0  0  0
  5 12  2  0  0  0  0
  5 43  1  0  0  0  0
  6  7  2  0  0  0  0
  6 13  1  0  0  0  0
  6 44  1  0  0  0  0
  7 15  1  0  0  0  0
  7 45  1  0  0  0  0
  8 11  1  0  0  0  0
  8 14  2  0  0  0  0
  8 46  1  0  0  0  0
  9 14  1  0  0  0  0
  9 17  2  0  0  0  0
  9 47  1  0  0  0  0
 10 15  2  0  0  0  0
 10 18  1  0  0  0  0
 10 19  1  0  0  0  0
 11 16  2  0  0  0  0
 11 20  1  0  0  0  0
 12 32  1  0  0  0  0
 13 18  2  0  0  0  0
 13 30  1  0  0  0  0
 14 21  1  0  0  0  0
 15 34  1  0  0  0  0
 16 17  1  0  0  0  0
 16 34  1  0  0  0  0
 17 38  1  0  0  0  0
 18 37  1  0  0  0  0
 19 33  2  0  0  0  0
 19 35  1  0  0  0  0
 20 35  1  0  0  0  0
 20 48  1  0  0  0  0
 20 49  1  0  0  0  0
 21 50  1  0  0  0  0
 21 51  1  0  0  0  0
 21 52  1  0  0  0  0
 22 31  1  0  0  0  0
 22 53  1  0  0  0  0
 22 54  1  0  0  0  0
 22 55  1  0  0  0  0
 23 31  1  0  0  0  0
 23 56  1  0  0  0  0
 23 57  1  0  0  0  0
 23 58  1  0  0  0  0
 24 32  1  0  0  0  0
 24 59  1  0  0  0  0
 24 60  1  0  0  0  0
 24 61  1  0  0  0  0
 25 32  1  0  0  0  0
 25 62  1  0  0  0  0
 25 63  1  0  0  0  0
 25 64  1  0  0  0  0
 26 37  1  0  0  0  0
 26 65  1  0  0  0  0
 26 66  1  0  0  0  0
 26 67  1  0  0  0  0
 27 29  1  0  0  0  0
 27 31  1  0  0  0  0
 27 68  1  0  0  0  0
 27 69  1  0  0  0  0
 28 30  1  0  0  0  0
 28 32  1  0  0  0  0
 28 70  1  0  0  0  0
 28 71  1  0  0  0  0
 29 38  1  0  0  0  0
 29 72  1  0  0  0  0
 29 73  1  0  0  0  0
 30 36  1  0  0  0  0
 30 74  1  0  0  0  0
 31 75  1  0  0  0  0
 36 76  1  0  0  0  0
M  END
$$$$
