34
1 1 C13H19N2
C                    -3.856636579142    -2.666514444668    -0.418019568740
C                    -3.333925585896    -1.912019165806    -1.463898933677
C                    -3.196971692677    -2.604843132392     0.814564554759
C                    -2.189234172226    -1.132235000181    -1.251800617101
C                    -1.550438405084    -1.192476216337     0.006984752881
C                    -3.857166169110     1.678125500451    -0.530294817064
C                    -4.208601724270     2.655615140413    -1.631381732235
C                    -0.165977130641     0.970081132553     0.500020408921
C                     0.054198351084    -0.003788877078     1.635647260394
C                    -2.903909866130     1.903964665318    -1.668922939421
C                    -0.217823500694    -0.536099589434     0.255213913542
C                     0.944477242472    -1.204151839436    -0.473052993213
C                    -1.691115737327    -0.245639277431    -2.358662453756
N                    -2.073350432752    -1.908397392308     1.014471480377
N                    -2.730063536985     0.836815165275    -2.694763966798
H                    -4.738619384770    -3.285666254149    -0.547398205520
H                    -3.813799615145    -1.945306910074    -2.443031070908
H                    -3.579729670278    -3.152542095779     1.673707278209
H                    -3.558857058385     2.061949262122     0.439364942261
H                    -4.398796570580     0.738501871356    -0.489791953199
H                    -4.993217457749     2.370953038983    -2.328040222725
H                    -4.153825040704     3.720884558495    -1.434131810684
H                    -1.099821287329     1.523356904061     0.512116172266
H                     0.686463542269     1.521505402961     0.110712995487
H                     1.061405344922    -0.117272379852     2.023678573568
H                    -0.731379892240    -0.108521593281     2.375377823023
H                    -1.969114635116     2.426956688705    -1.503079394276
H                     1.882565469183    -0.686699550013    -0.252774882860
H                     0.819316253896    -1.213166823020    -1.562286730457
H                     1.048146476527    -2.243143280338    -0.145029359709
H                    -0.781210234707     0.287723010586    -2.093375800179
H                    -1.531084791083    -0.791713248732    -3.292952442245
H                    -3.633757298210     0.376428272022    -2.853464206986
H                    -2.475666514303     1.278863157705    -3.587037930355
