
  -OEChem-05262117483D

 33 35  0     0  0  0  0  0  0999 V2000
   -6.5765   -0.7582   -5.0858 C   0  0  0  0  0  0  0  0  0  0  0  0
   -5.3636   -0.5113   -4.4445 C   0  0  0  0  0  0  0  0  0  0  0  0
   -7.1406   -2.0268   -4.9414 C   0  0  0  0  0  0  0  0  0  0  0  0
   -4.7485   -1.5180   -3.6941 C   0  0  0  0  0  0  0  0  0  0  0  0
   -5.4105   -2.7623   -3.5965 C   0  0  0  0  0  0  0  0  0  0  0  0
   -2.7391   -1.0891   -6.3665 C   0  0  0  0  0  0  0  0  0  0  0  0
   -1.2419   -1.2337   -6.1953 C   0  0  0  0  0  0  0  0  0  0  0  0
   -4.8265   -5.2606   -3.3298 C   0  0  0  0  0  0  0  0  0  0  0  0
   -3.5486   -4.5068   -3.0245 C   0  0  0  0  0  0  0  0  0  0  0  0
   -2.0873   -0.7271   -5.0509 C   0  0  0  0  0  0  0  0  0  0  0  0
   -4.8965   -3.8803   -2.7255 C   0  0  0  0  0  0  0  0  0  0  0  0
   -5.3474   -3.7651   -1.2754 C   0  0  0  0  0  0  0  0  0  0  0  0
   -3.4045   -1.2495   -3.0486 C   0  0  0  0  0  0  0  0  0  0  0  0
   -6.5832   -2.9998   -4.2115 N   0  0  0  0  0  0  0  0  0  0  0  0
   -2.2819   -1.6149   -3.9315 N   0  0  0  0  0  0  0  0  0  0  0  0
   -7.0718    0.0052   -5.6794 H   0  0  0  0  0  0  0  0  0  0  0  0
   -4.8839    0.4611   -4.5313 H   0  0  0  0  0  0  0  0  0  0  0  0
   -8.0849   -2.2724   -5.4264 H   0  0  0  0  0  0  0  0  0  0  0  0
   -3.1155   -0.2845   -6.9914 H   0  0  0  0  0  0  0  0  0  0  0  0
   -3.3330   -1.9966   -6.3756 H   0  0  0  0  0  0  0  0  0  0  0  0
   -0.8462   -2.2403   -6.0997 H   0  0  0  0  0  0  0  0  0  0  0  0
   -0.5899   -0.5274   -6.7008 H   0  0  0  0  0  0  0  0  0  0  0  0
   -5.1242   -5.3654   -4.3681 H   0  0  0  0  0  0  0  0  0  0  0  0
   -5.0968   -6.1012   -2.6962 H   0  0  0  0  0  0  0  0  0  0  0  0
   -2.9489   -4.8304   -2.1765 H   0  0  0  0  0  0  0  0  0  0  0  0
   -2.9771   -4.0994   -3.8514 H   0  0  0  0  0  0  0  0  0  0  0  0
   -2.0142    0.3435   -4.8289 H   0  0  0  0  0  0  0  0  0  0  0  0
   -4.9683   -4.6046   -0.6827 H   0  0  0  0  0  0  0  0  0  0  0  0
   -6.4411   -3.7705   -1.2150 H   0  0  0  0  0  0  0  0  0  0  0  0
   -4.9894   -2.8377   -0.8126 H   0  0  0  0  0  0  0  0  0  0  0  0
   -3.3645   -0.1855   -2.7565 H   0  0  0  0  0  0  0  0  0  0  0  0
   -3.3012   -1.8393   -2.1358 H   0  0  0  0  0  0  0  0  0  0  0  0
   -1.4285   -1.6498   -3.3775 H   0  0  0  0  0  0  0  0  0  0  0  0
  1  2  1  0  0  0  0
  1  3  2  0  0  0  0
  1 16  1  0  0  0  0
  2  4  2  0  0  0  0
  2 17  1  0  0  0  0
  3 14  1  0  0  0  0
  3 18  1  0  0  0  0
  4  5  1  0  0  0  0
  4 13  1  0  0  0  0
  5 11  1  0  0  0  0
  5 14  2  0  0  0  0
  6  7  1  0  0  0  0
  6 10  1  0  0  0  0
  6 19  1  0  0  0  0
  6 20  1  0  0  0  0
  7 10  1  0  0  0  0
  7 21  1  0  0  0  0
  7 22  1  0  0  0  0
  8  9  1  0  0  0  0
  8 11  1  0  0  0  0
  8 23  1  0  0  0  0
  8 24  1  0  0  0  0
  9 11  1  0  0  0  0
  9 25  1  0  0  0  0
  9 26  1  0  0  0  0
 10 15  1  0  0  0  0
 10 27  1  0  0  0  0
 11 12  1  0  0  0  0
 12 28  1  0  0  0  0
 12 29  1  0  0  0  0
 12 30  1  0  0  0  0
 13 15  1  0  0  0  0
 13 31  1  0  0  0  0
 13 32  1  0  0  0  0
 15 33  1  0  0  0  0
M  END
$$$$
