76
0 1 C32H38O6
C                     9.970573130239    -4.057070216004     8.645288314486
C                     9.658762041816    -5.237882879775     7.961255674737
C                     8.975808172145    -3.422305265761     9.390502735258
C                     8.369673629912    -5.768883661572     8.027240162288
C                     7.684167924853    -3.960363064879     9.452762074543
C                     4.449154132302    -4.474479712213     4.253628386522
C                     3.433786432110    -4.501546311606     3.292131085129
C                    -0.230223800232    -1.206286513845     1.962472937237
C                     0.372413870200    -2.377113714778    -0.056410036652
C                     1.776633875550    -4.304795711087     5.076187300779
C                     0.194399889514    -2.295149504243     2.741090611077
C                     7.351858733833    -5.142865835993     8.774098302728
C                     4.158344494547    -4.366678704831     5.612314571473
C                    -0.147699609081    -1.233037109775     0.570340461234
C                     2.117122743927    -4.422301140582     3.718301051851
C                     0.708182366731    -3.423235897971     2.103070474848
C                     0.804645101486    -3.472457993568     0.697023310550
C                     2.812003071986    -4.278737861044     6.028029525834
C                     0.312626111287    -4.334719571078     5.403688070157
C                     0.125856454433    -2.191246432071     4.246875587887
C                    -0.615656096578    -0.063708872084    -0.265778449710
C                     3.022939712291    -7.686833252877    -3.227098084662
C                     1.012527542602    -6.309121818968    -3.887125727396
C                     5.002531098367    -4.999752595213     9.766588566123
C                     6.021868850039    -7.213985892637     9.275766421313
C                     1.505512572257    -3.500887054941     7.940194866261
C                     2.017680238757    -6.104769746571    -1.545238027173
C                     5.315431550996    -5.737130351295     7.374938416869
C                     1.413147277811    -4.740713233157    -1.245001065660
C                     5.256035023379    -4.368639020641     6.656594958676
C                     2.293619224294    -6.348767034743    -3.039035769593
C                     5.940610704781    -5.745549576592     8.799001863813
O                    -0.204654460130    -5.199215033141     6.077869308822
O                     1.074085722082    -4.559361927598     2.807388726086
O                    -0.464901298746    -3.338352439019     4.895860201837
O                     6.484755549977    -4.052814218327     5.992502007272
O                     2.641515107799    -4.169611195956     7.381613913297
O                     1.341293781069    -4.612124303403     0.179622340734
H                    10.972370017362    -3.639042445018     8.593496698399
H                    10.418621325474    -5.742726998269     7.370066668590
H                     9.199332837603    -2.502687218157     9.925584568746
H                     8.151173957162    -6.676607107256     7.472515900461
H                     6.934349297216    -3.439742115237    10.037719701528
H                     5.490485346117    -4.526030647921     3.956365538519
H                     3.644466929477    -4.607829321241     2.232706762721
H                    -0.640114344457    -0.329658521205     2.459256432661
H                     0.438102500064    -2.400054658133    -1.138905876892
H                     1.118056924512    -2.001211577198     4.667133306348
H                    -0.522313173694    -1.356835715746     4.521360955377
H                     0.194921420114     0.326256959511    -0.891656445503
H                    -1.432220168594    -0.356934632439    -0.935237406199
H                    -0.976648010067     0.755194321957     0.362126739309
H                     2.397411788389    -8.522093764301    -2.889728530729
H                     3.956466521406    -7.716900779189    -2.654597262757
H                     3.267870114514    -7.858437653976    -4.280937359661
H                     0.287523124478    -7.050900985333    -3.530012418272
H                     1.232601168297    -6.537216924493    -4.935676304809
H                     0.526664523812    -5.328353926186    -3.861256999996
H                     4.019411526186    -5.478903562013     9.762436075508
H                     4.848992410358    -3.954154932472     9.487228666882
H                     5.387990112871    -5.026538016295    10.791223900267
H                     5.020273441847    -7.655996175898     9.312128542297
H                     6.631083060761    -7.829862963034     8.608481764022
H                     6.458656773369    -7.271543883996    10.278336335798
H                     1.827322855667    -3.150460042752     8.923084764950
H                     0.657521829889    -4.179586985435     8.042782933065
H                     1.217569953129    -2.637632412894     7.329277001261
H                     2.954752852690    -6.188681101695    -0.982700855422
H                     1.348021782460    -6.882250350880    -1.157514033665
H                     5.863436849779    -6.418647610675     6.714356312837
H                     4.300907221691    -6.134377158590     7.465889167713
H                     2.041373862610    -3.939627785056    -1.660065359598
H                     0.406714729529    -4.642791874338    -1.669116163188
H                     5.026338934537    -3.584259331949     7.387816314715
H                     2.960977908185    -5.550190849724    -3.394498612039
H                     7.197674465502    -4.115455470097     6.648816439978
