
  -OEChem-05262117483D

 31 32  0     0  0  0  0  0  0999 V2000
    0.5872   -1.7015    1.1422 C   0  0  0  0  0  0  0  0  0  0  0  0
    0.7948   -0.3824    0.7456 C   0  0  0  0  0  0  0  0  0  0  0  0
    5.2659   -7.2484    5.6061 C   0  0  0  0  0  0  0  0  0  0  0  0
    6.5325   -7.1249    6.1886 C   0  0  0  0  0  0  0  0  0  0  0  0
    1.5563   -2.3855    1.8871 C   0  0  0  0  0  0  0  0  0  0  0  0
    1.9850    0.2732    1.0929 C   0  0  0  0  0  0  0  0  0  0  0  0
    4.7084   -6.1746    4.9165 C   0  0  0  0  0  0  0  0  0  0  0  0
    7.1936   -5.9042    6.0488 C   0  0  0  0  0  0  0  0  0  0  0  0
    2.7473   -1.7424    2.2394 C   0  0  0  0  0  0  0  0  0  0  0  0
    2.9532   -0.4009    1.8335 C   0  0  0  0  0  0  0  0  0  0  0  0
    5.4658   -4.9916    4.8392 C   0  0  0  0  0  0  0  0  0  0  0  0
    3.8533   -3.6013    3.5017 C   0  0  0  0  0  0  0  0  0  0  0  0
    4.4385    1.4894    1.8597 C   0  0  0  0  0  0  0  0  0  0  0  0
    6.6819   -4.8558    5.3918 N   0  0  0  0  0  0  0  0  0  0  0  0
    3.7922   -2.3223    2.9822 N   0  0  0  0  0  0  0  0  0  0  0  0
    5.0449   -3.8269    4.1831 N   0  0  0  0  0  0  0  0  0  0  0  0
    2.9675   -4.4434    3.3811 O   0  0  0  0  0  0  0  0  0  0  0  0
    4.1579    0.1425    2.2307 O   0  0  0  0  0  0  0  0  0  0  0  0
   -0.3331   -2.2136    0.8758 H   0  0  0  0  0  0  0  0  0  0  0  0
    0.0420    0.1465    0.1680 H   0  0  0  0  0  0  0  0  0  0  0  0
    4.7099   -8.1791    5.6868 H   0  0  0  0  0  0  0  0  0  0  0  0
    6.9937   -7.9436    6.7323 H   0  0  0  0  0  0  0  0  0  0  0  0
    1.4018   -3.4092    2.1984 H   0  0  0  0  0  0  0  0  0  0  0  0
    2.1432    1.2999    0.7827 H   0  0  0  0  0  0  0  0  0  0  0  0
    3.7339   -6.2260    4.4514 H   0  0  0  0  0  0  0  0  0  0  0  0
    8.1811   -5.7544    6.4824 H   0  0  0  0  0  0  0  0  0  0  0  0
    5.4250    1.7141    2.2675 H   0  0  0  0  0  0  0  0  0  0  0  0
    3.7011    2.1788    2.2874 H   0  0  0  0  0  0  0  0  0  0  0  0
    4.4599    1.6026    0.7694 H   0  0  0  0  0  0  0  0  0  0  0  0
    4.5719   -1.6950    3.1366 H   0  0  0  0  0  0  0  0  0  0  0  0
    5.7389   -3.0902    4.2444 H   0  0  0  0  0  0  0  0  0  0  0  0
  1  2  1  0  0  0  0
  1  5  2  0  0  0  0
  1 19  1  0  0  0  0
  2  6  2  0  0  0  0
  2 20  1  0  0  0  0
  3  4  1  0  0  0  0
  3  7  2  0  0  0  0
  3 21  1  0  0  0  0
  4  8  2  0  0  0  0
  4 22  1  0  0  0  0
  5  9  1  0  0  0  0
  5 23  1  0  0  0  0
  6 10  1  0  0  0  0
  6 24  1  0  0  0  0
  7 11  1  0  0  0  0
  7 25  1  0  0  0  0
  8 14  1  0  0  0  0
  8 26  1  0  0  0  0
  9 10  2  0  0  0  0
  9 15  1  0  0  0  0
 10 18  1  0  0  0  0
 11 14  2  0  0  0  0
 11 16  1  0  0  0  0
 12 15  1  0  0  0  0
 12 16  1  0  0  0  0
 12 17  2  0  0  0  0
 13 18  1  0  0  0  0
 13 27  1  0  0  0  0
 13 28  1  0  0  0  0
 13 29  1  0  0  0  0
 15 30  1  0  0  0  0
 16 31  1  0  0  0  0
M  END
$$$$
