31
0 1 C13H13N3O2
C                     2.295219932438    -0.838726717405     0.002339122024
C                     0.968838772632    -0.885182422715     0.431042027216
C                     5.425638668945    -7.599326757744     5.007112153729
C                     6.502299827719    -7.491802562961     5.895318739535
C                     3.298298174552    -1.363246226686     0.825015137906
C                     0.644676058392    -1.423962437598     1.681944418919
C                     4.908460678530    -6.458481483418     4.399142192092
C                     7.018812282540    -6.218401567133     6.136047040780
C                     2.992328435228    -1.903297917908     2.074002193863
C                     1.651933837367    -1.914286536692     2.521976283122
C                     5.512071325932    -5.226648251797     4.712657426929
C                     4.045849849352    -3.741270422605     3.316052937820
C                     0.104985054356    -2.662323170656     4.180008528001
N                     6.543794904145    -5.105200018157     5.562890536560
N                     4.017348481204    -2.405722855156     2.917006181869
N                     5.113475725303    -3.998854997133     4.168771481683
O                     3.224543074211    -4.574473995752     2.958921472626
O                     1.443656111459    -2.389180944888     3.780285044358
H                     2.549248240315    -0.421007192144    -0.967424800542
H                     0.175286162126    -0.499234993521    -0.203278096664
H                     4.985326388350    -8.569028808911     4.788677675612
H                     6.926711825413    -8.361884702299     6.386748586161
H                     4.333018287513    -1.372419090291     0.489459788664
H                    -0.390521218952    -1.437206526074     2.003906502104
H                     4.070442026691    -6.493104362955     3.716689564367
H                     7.853943574180    -6.078211390138     6.820739686222
H                     0.179138847391    -3.135059334889     5.160051553840
H                    -0.382161928266    -3.349969037691     3.479061564229
H                    -0.485696539639    -1.741405998291     4.266007958189
H                     4.898276499065    -1.907758892377     2.895866647700
H                     5.627587694711    -3.218540479524     4.561936723985
