
  -OEChem-05262117483D

 31 32  0     0  0  0  0  0  0999 V2000
    0.8767   -1.9331    0.8305 C   0  0  0  0  0  0  0  0  0  0  0  0
    0.9256   -0.5671    0.5610 C   0  0  0  0  0  0  0  0  0  0  0  0
    7.3340   -6.4695    5.4741 C   0  0  0  0  0  0  0  0  0  0  0  0
    6.3876   -7.0324    6.3363 C   0  0  0  0  0  0  0  0  0  0  0  0
    1.8409   -2.5344    1.6491 C   0  0  0  0  0  0  0  0  0  0  0  0
    1.9485    0.2186    1.1117 C   0  0  0  0  0  0  0  0  0  0  0  0
    6.9749   -5.3632    4.7082 C   0  0  0  0  0  0  0  0  0  0  0  0
    5.1241   -6.4388    6.3951 C   0  0  0  0  0  0  0  0  0  0  0  0
    2.8692   -1.7624    2.1993 C   0  0  0  0  0  0  0  0  0  0  0  0
    2.9134   -0.3741    1.9235 C   0  0  0  0  0  0  0  0  0  0  0  0
    5.6764   -4.8425    4.8535 C   0  0  0  0  0  0  0  0  0  0  0  0
    4.0683   -3.5575    3.4674 C   0  0  0  0  0  0  0  0  0  0  0  0
    4.0457    1.7076    2.3227 C   0  0  0  0  0  0  0  0  0  0  0  0
    4.7714   -5.3581    5.6892 N   0  0  0  0  0  0  0  0  0  0  0  0
    3.8984   -2.2608    3.0187 N   0  0  0  0  0  0  0  0  0  0  0  0
    5.3080   -3.6869    4.1379 N   0  0  0  0  0  0  0  0  0  0  0  0
    3.2820   -4.4735    3.2986 O   0  0  0  0  0  0  0  0  0  0  0  0
    3.9633    0.2986    2.5151 O   0  0  0  0  0  0  0  0  0  0  0  0
    0.0833   -2.5449    0.4105 H   0  0  0  0  0  0  0  0  0  0  0  0
    0.1750   -0.1011   -0.0712 H   0  0  0  0  0  0  0  0  0  0  0  0
    8.3307   -6.8943    5.3865 H   0  0  0  0  0  0  0  0  0  0  0  0
    6.6181   -7.9009    6.9457 H   0  0  0  0  0  0  0  0  0  0  0  0
    1.8005   -3.5912    1.8754 H   0  0  0  0  0  0  0  0  0  0  0  0
    1.9816    1.2816    0.9009 H   0  0  0  0  0  0  0  0  0  0  0  0
    7.6735   -4.9196    4.0030 H   0  0  0  0  0  0  0  0  0  0  0  0
    4.3568   -6.8416    7.0549 H   0  0  0  0  0  0  0  0  0  0  0  0
    4.9211    2.0370    2.8842 H   0  0  0  0  0  0  0  0  0  0  0  0
    3.1527    2.2125    2.7095 H   0  0  0  0  0  0  0  0  0  0  0  0
    4.1783    1.9556    1.2628 H   0  0  0  0  0  0  0  0  0  0  0  0
    4.5104   -1.5482    3.3968 H   0  0  0  0  0  0  0  0  0  0  0  0
    6.0772   -3.1697    3.7303 H   0  0  0  0  0  0  0  0  0  0  0  0
  1  2  1  0  0  0  0
  1  5  2  0  0  0  0
  1 19  1  0  0  0  0
  2  6  2  0  0  0  0
  2 20  1  0  0  0  0
  3  4  1  0  0  0  0
  3  7  2  0  0  0  0
  3 21  1  0  0  0  0
  4  8  2  0  0  0  0
  4 22  1  0  0  0  0
  5  9  1  0  0  0  0
  5 23  1  0  0  0  0
  6 10  1  0  0  0  0
  6 24  1  0  0  0  0
  7 11  1  0  0  0  0
  7 25  1  0  0  0  0
  8 14  1  0  0  0  0
  8 26  1  0  0  0  0
  9 10  2  0  0  0  0
  9 15  1  0  0  0  0
 10 18  1  0  0  0  0
 11 14  2  0  0  0  0
 11 16  1  0  0  0  0
 12 15  1  0  0  0  0
 12 16  1  0  0  0  0
 12 17  2  0  0  0  0
 13 18  1  0  0  0  0
 13 27  1  0  0  0  0
 13 28  1  0  0  0  0
 13 29  1  0  0  0  0
 15 30  1  0  0  0  0
 16 31  1  0  0  0  0
M  END
$$$$
