
  -OEChem-05262117483D

 23 24  0     0  0  0  0  0  0999 V2000
   -0.9343   -0.8929    1.7731 C   0  0  0  0  0  0  0  0  0  0  0  0
   -0.2928   -0.9207    0.5307 C   0  0  0  0  0  0  0  0  0  0  0  0
   -1.2746   -2.0931    2.3977 C   0  0  0  0  0  0  0  0  0  0  0  0
    0.0102   -2.1454   -0.0709 C   0  0  0  0  0  0  0  0  0  0  0  0
   -1.0003   -3.3214    1.7814 C   0  0  0  0  0  0  0  0  0  0  0  0
   -0.3346   -3.3600    0.5366 C   0  0  0  0  0  0  0  0  0  0  0  0
   -1.4128   -4.5629    2.5243 C   0  0  0  0  0  0  0  0  0  0  0  0
    0.0437   -4.6756   -0.1094 C   0  0  0  0  0  0  0  0  0  0  0  0
   -1.1625   -5.4806   -0.6326 C   0  0  0  0  0  0  0  0  0  0  0  0
   -2.3239   -5.4750    0.3720 C   0  0  0  0  0  0  0  0  0  0  0  0
   -1.8738   -5.6090    1.7598 N   0  0  0  0  0  0  0  0  0  0  0  0
   -1.3513   -4.6394    3.7526 O   0  0  0  0  0  0  0  0  0  0  0  0
   -1.1607    0.0556    2.2529 H   0  0  0  0  0  0  0  0  0  0  0  0
   -0.0177    0.0077    0.0365 H   0  0  0  0  0  0  0  0  0  0  0  0
   -1.7534   -2.0999    3.3722 H   0  0  0  0  0  0  0  0  0  0  0  0
    0.5341   -2.1610   -1.0242 H   0  0  0  0  0  0  0  0  0  0  0  0
    0.7445   -4.4951   -0.9299 H   0  0  0  0  0  0  0  0  0  0  0  0
    0.5730   -5.2903    0.6260 H   0  0  0  0  0  0  0  0  0  0  0  0
   -1.5235   -5.0584   -1.5779 H   0  0  0  0  0  0  0  0  0  0  0  0
   -0.8376   -6.5071   -0.8368 H   0  0  0  0  0  0  0  0  0  0  0  0
   -2.8955   -4.5469    0.2663 H   0  0  0  0  0  0  0  0  0  0  0  0
   -3.0129   -6.2976    0.1638 H   0  0  0  0  0  0  0  0  0  0  0  0
   -2.2127   -6.3895    2.3101 H   0  0  0  0  0  0  0  0  0  0  0  0
  1  2  1  0  0  0  0
  1  3  2  0  0  0  0
  1 13  1  0  0  0  0
  2  4  2  0  0  0  0
  2 14  1  0  0  0  0
  3  5  1  0  0  0  0
  3 15  1  0  0  0  0
  4  6  1  0  0  0  0
  4 16  1  0  0  0  0
  5  6  2  0  0  0  0
  5  7  1  0  0  0  0
  6  8  1  0  0  0  0
  7 11  1  0  0  0  0
  7 12  2  0  0  0  0
  8  9  1  0  0  0  0
  8 17  1  0  0  0  0
  8 18  1  0  0  0  0
  9 10  1  0  0  0  0
  9 19  1  0  0  0  0
  9 20  1  0  0  0  0
 10 11  1  0  0  0  0
 10 21  1  0  0  0  0
 10 22  1  0  0  0  0
 11 23  1  0  0  0  0
M  END
$$$$
