31
0 1 C13H13N3O2
C                     0.554480231756    -1.813328261612     0.828916539226
C                     0.645411270749    -0.574585282688     0.188000665924
C                     8.821403946014    -2.183297782900     4.386434588764
C                     8.836112262540    -0.997188626761     3.635607957918
C                     1.626364296178    -2.325309620692     1.566099732723
C                     1.826522205255     0.167736750701     0.293831959309
C                     7.665955624385    -2.949339814334     4.431484587732
C                     7.670664677130    -0.643691820531     2.964176001241
C                     2.813898791134    -1.584540129737     1.673999161775
C                     2.895611007481    -0.329526396239     1.033241094408
C                     6.533342188413    -2.502850389950     3.714282236692
C                     4.100810167993    -3.101416433336     3.152785554339
C                     4.088415625904     1.340030725027     2.202361709421
N                     6.542388605124    -1.369918458090     2.999000306792
N                     3.963055195729    -1.994457492663     2.369452900967
N                     5.370656691081    -3.264881025289     3.751067101474
O                     3.240609206541    -3.949868549439     3.383168975584
O                     4.081964098438     0.386694749126     1.129840727308
H                    -0.358768109763    -2.397652040135     0.753192370484
H                    -0.189394952622    -0.190041496046    -0.391310264508
H                     9.706182939899    -2.505360663759     4.929264862517
H                     9.721465207319    -0.373005828995     3.573365737516
H                     1.556505850438    -3.285445804215     2.059210415508
H                     1.935946162100     1.130601382506    -0.198134764057
H                     7.625693911867    -3.873461927308     5.001927714636
H                     7.625139492904     0.262086046929     2.362478445874
H                     5.072520917642     1.813294515982     2.191321173060
H                     3.930442427577     0.847108905589     3.169267434745
H                     3.311837401033     2.099609174339     2.051802416110
H                     4.793960700419    -1.400811082801     2.274115969561
H                     5.393756059509    -4.112378643290     4.304519644628
