32
0 1 C18H14
C                     1.922118862129    -1.054815199487    -0.142670954467
C                     6.155271429706    -3.491402045575     3.002713358067
C                     1.305128672761    -2.117224790460     0.525852739512
C                     2.473047827959    -0.001366377892     0.594241580762
C                     6.183886052361    -2.137334889743     3.351995378942
C                     5.016322001530    -4.253364808645     3.282935070021
C                     0.546827091015    -0.501476789273     6.211239005417
C                     1.565532116080    -1.087874265114     6.968065362810
C                     1.241620819224    -2.125573084844     1.922266312067
C                     2.408078101210    -0.012363304759     1.990568839222
C                     5.079428183105    -1.550023350230     3.975944582012
C                     3.913327730603    -3.663401890220     3.906970105634
C                     0.631704771352    -0.503214310894     4.816336995815
C                     2.659722968471    -1.670594589063     6.322982081388
C                     1.792124665250    -1.073916956886     2.668398638336
C                     3.933593714909    -2.306566941781     4.259577581937
C                     1.726014048311    -1.085656922642     4.160467283636
C                     2.753206636618    -1.676931369741     4.923649826636
H                     1.974061637686    -1.048392453970    -1.228458478044
H                     7.012711096847    -3.948608837798     2.515442479184
H                     0.875673579207    -2.940711235949    -0.039355676464
H                     2.955698905124     0.827567047379     0.082441480753
H                     7.064719559172    -1.537598359284     3.136425749823
H                     4.985324869612    -5.306184634332     3.013433271247
H                    -0.308668680684    -0.045466180968     6.703059866377
H                     1.509299131539    -1.091947516733     8.053665637031
H                     0.765723710175    -2.953725254048     2.441384244970
H                     2.840279608612     0.804631395796     2.562860128119
H                     5.100699799906    -0.496512916533     4.243263805255
H                     3.026779591468    -4.255173710980     4.120589446851
H                    -0.156450543821    -0.049208305239     4.220922160383
H                     3.455893513891    -2.128574720861     6.904534839322
