27
0 1 C13H13N
C                     1.903875615377    -0.937319522728    -0.093724692491
C                     0.009557877068    -2.769681976393     8.762696740507
C                     0.845595141260    -0.385057744716     0.639113093548
C                     2.952274054341    -1.572382659037     0.577188522350
C                    -0.695619292283    -3.441009002521     7.754054607490
C                     0.961839594380    -1.816183516629     8.396390427293
C                     0.840125263980    -0.466499096416     2.033116634332
C                     2.941825249229    -1.655188806390     1.974824314341
C                    -0.456900525620    -3.159340419530     6.411452409309
C                     1.216732064517    -1.529646302212     7.050943774602
C                     1.890417580555    -1.101445438024     2.715109645191
C                     0.503264328724    -2.195497608943     6.035627600395
C                     1.873034955868    -1.187472835227     4.224902504359
N                     0.685350470924    -1.906380253449     4.679754606164
H                     1.909161592993    -0.872552301514    -1.178777654598
H                    -0.179395969306    -2.989814361926     9.809493333596
H                     0.027611196827     0.110988585687     0.122678126146
H                     3.775978753679    -2.005752880768     0.015656157578
H                    -1.439741713546    -4.189373308305     8.016067516837
H                     1.523397068611    -1.287904303810     9.163299378001
H                     0.017715789367    -0.041406238156     2.603245509350
H                     3.757920422611    -2.154604259923     2.492590469351
H                    -1.018531449648    -3.680011984972     5.637882668008
H                     1.969413212774    -0.789988893040     6.799580667747
H                     2.801545456074    -1.658751417876     4.583760722418
H                     1.846658107219    -0.175398887455     4.646850875215
H                     0.431325121148    -2.671773921090     4.065509534160
