28
0 1 BrC12FH10N4
C                     2.864718663234    -2.462748086775    -4.911312605022
C                     1.811147892751    -2.169518627471     0.572097244905
C                     0.776937832536    -1.491947035085     1.214184790637
C                     3.349499530503    -0.398241517573     1.161866817853
C                     3.229513053656    -2.863074758354    -3.604049675902
C                     3.105757596794    -1.629026338012     0.545650465488
C                     1.037324532689    -0.268373354831     1.829557502235
C                     2.315821420387     0.287273246999     1.808371109423
C                     3.278990683636    -4.180466599670    -3.043266361472
C                     3.595584137016    -2.006249582373    -2.557214241206
C                     2.974768800764    -5.471332454323    -3.734149157879
C                     4.227348811228    -2.372741700289    -0.156485839941
N                     2.562007004495    -2.106923191865    -5.982591862226
N                     3.638339904061    -4.136436071183    -1.767338253415
N                     3.851354363975    -2.801114271899    -1.491796648214
N                     3.774796778169    -0.632896309094    -2.527473032021
F                     0.029019088672     0.379783467208     2.444398507155
Br                    2.643783505289     1.969343795307     2.638396475993
H                     1.615969329556    -3.119747571131     0.082746265659
H                    -0.232283977073    -1.891141415603     1.248845516928
H                     4.344148508828     0.038578844319     1.143404232440
H                     3.661747301252    -5.636579516209    -4.570650293522
H                     3.070551897352    -6.300706033323    -3.030594355895
H                     1.959036915523    -5.467014886878    -4.142888561750
H                     5.120640377269    -1.743073753188    -0.220976095094
H                     4.492536376372    -3.284502762799     0.382689771950
H                     3.463158227976    -0.182777644520    -3.382835440480
H                     3.379241163030    -0.177189099250    -1.709326439680
