
  -OEChem-05262117483D

 31 33  0     0  0  0  0  0  0999 V2000
    2.7296    2.1550   -4.6927 C   0  0  0  0  0  0  0  0  0  0  0  0
    1.6132    2.6303   -2.5258 C   0  0  0  0  0  0  0  0  0  0  0  0
   -0.9920   -2.3376    2.2028 C   0  0  0  0  0  0  0  0  0  0  0  0
   -0.6612   -1.1021    1.6441 C   0  0  0  0  0  0  0  0  0  0  0  0
    1.0062    2.1476   -1.3870 C   0  0  0  0  0  0  0  0  0  0  0  0
    0.3122   -2.2008   -0.2989 C   0  0  0  0  0  0  0  0  0  0  0  0
    1.9167    0.3490   -3.2287 C   0  0  0  0  0  0  0  0  0  0  0  0
    2.0914    1.7148   -3.4916 C   0  0  0  0  0  0  0  0  0  0  0  0
   -0.6774   -3.5079    1.5125 C   0  0  0  0  0  0  0  0  0  0  0  0
   -0.0303   -3.4251    0.2726 C   0  0  0  0  0  0  0  0  0  0  0  0
   -0.0105   -1.0210    0.3963 C   0  0  0  0  0  0  0  0  0  0  0  0
    0.8777    0.7408   -1.2146 C   0  0  0  0  0  0  0  0  0  0  0  0
   -0.9059   -4.9540    1.9005 C   0  0  0  0  0  0  0  0  0  0  0  0
    0.2311   -4.8133   -0.2757 C   0  0  0  0  0  0  0  0  0  0  0  0
   -0.7253   -5.7042    0.5562 C   0  0  0  0  0  0  0  0  0  0  0  0
    3.2506    2.5134   -5.6733 N   0  0  0  0  0  0  0  0  0  0  0  0
    1.3315   -0.1325   -2.1315 N   0  0  0  0  0  0  0  0  0  0  0  0
    0.2704    0.2820   -0.0726 N   0  0  0  0  0  0  0  0  0  0  0  0
    1.7253    3.6986   -2.6843 H   0  0  0  0  0  0  0  0  0  0  0  0
   -1.4965   -2.3736    3.1657 H   0  0  0  0  0  0  0  0  0  0  0  0
   -0.9143   -0.1869    2.1773 H   0  0  0  0  0  0  0  0  0  0  0  0
    0.6301    2.8305   -0.6295 H   0  0  0  0  0  0  0  0  0  0  0  0
    0.8088   -2.1414   -1.2570 H   0  0  0  0  0  0  0  0  0  0  0  0
    2.2705   -0.3886   -3.9467 H   0  0  0  0  0  0  0  0  0  0  0  0
   -0.1502   -5.2742    2.6312 H   0  0  0  0  0  0  0  0  0  0  0  0
   -1.8860   -5.1296    2.3557 H   0  0  0  0  0  0  0  0  0  0  0  0
    0.0568   -4.8892   -1.3535 H   0  0  0  0  0  0  0  0  0  0  0  0
    1.2791   -5.0916   -0.0993 H   0  0  0  0  0  0  0  0  0  0  0  0
   -0.3538   -6.7247    0.6842 H   0  0  0  0  0  0  0  0  0  0  0  0
   -1.6931   -5.7647    0.0467 H   0  0  0  0  0  0  0  0  0  0  0  0
   -0.0375    1.0139    0.5541 H   0  0  0  0  0  0  0  0  0  0  0  0
  1  8  1  0  0  0  0
  1 16  3  0  0  0  0
  2  5  1  0  0  0  0
  2  8  2  0  0  0  0
  2 19  1  0  0  0  0
  3  4  2  0  0  0  0
  3  9  1  0  0  0  0
  3 20  1  0  0  0  0
  4 11  1  0  0  0  0
  4 21  1  0  0  0  0
  5 12  2  0  0  0  0
  5 22  1  0  0  0  0
  6 10  1  0  0  0  0
  6 11  2  0  0  0  0
  6 23  1  0  0  0  0
  7  8  1  0  0  0  0
  7 17  2  0  0  0  0
  7 24  1  0  0  0  0
  9 10  2  0  0  0  0
  9 13  1  0  0  0  0
 10 14  1  0  0  0  0
 11 18  1  0  0  0  0
 12 17  1  0  0  0  0
 12 18  1  0  0  0  0
 13 15  1  0  0  0  0
 13 25  1  0  0  0  0
 13 26  1  0  0  0  0
 14 15  1  0  0  0  0
 14 27  1  0  0  0  0
 14 28  1  0  0  0  0
 15 29  1  0  0  0  0
 15 30  1  0  0  0  0
 18 31  1  0  0  0  0
M  END
$$$$
