
  -OEChem-05262117483D

 27 28  0     0  0  0  0  0  0999 V2000
    1.0291    2.8312    1.9183 C   0  0  0  0  0  0  0  0  0  0  0  0
    1.2533    1.6559    1.7171 C   0  0  0  0  0  0  0  0  0  0  0  0
    1.0377   -1.8063    0.3316 C   0  0  0  0  0  0  0  0  0  0  0  0
    0.7581   -0.4579    0.5441 C   0  0  0  0  0  0  0  0  0  0  0  0
    2.0588   -2.4606    1.0264 C   0  0  0  0  0  0  0  0  0  0  0  0
    5.6113   -3.2331    4.8816 C   0  0  0  0  0  0  0  0  0  0  0  0
    2.5453   -0.3802    2.1829 C   0  0  0  0  0  0  0  0  0  0  0  0
    6.4418   -4.8214    3.2781 C   0  0  0  0  0  0  0  0  0  0  0  0
    6.6721   -3.5973    5.7112 C   0  0  0  0  0  0  0  0  0  0  0  0
    1.5189    0.2685    1.4799 C   0  0  0  0  0  0  0  0  0  0  0  0
    5.4974   -3.8551    3.6290 C   0  0  0  0  0  0  0  0  0  0  0  0
    2.8180   -1.7374    1.9616 C   0  0  0  0  0  0  0  0  0  0  0  0
    7.4678   -5.0883    4.1896 C   0  0  0  0  0  0  0  0  0  0  0  0
    4.3888   -3.5764    2.6442 C   0  0  0  0  0  0  0  0  0  0  0  0
    7.5982   -4.5062    5.3721 N   0  0  0  0  0  0  0  0  0  0  0  0
    3.8617   -2.3096    2.7245 N   0  0  0  0  0  0  0  0  0  0  0  0
    4.0232   -4.4347    1.8462 O   0  0  0  0  0  0  0  0  0  0  0  0
    8.6825   -6.2808    3.7579 Cl  0  0  0  0  0  0  0  0  0  0  0  0
    0.8282    3.8673    2.0916 H   0  0  0  0  0  0  0  0  0  0  0  0
    0.4523   -2.3681   -0.3911 H   0  0  0  0  0  0  0  0  0  0  0  0
   -0.0366    0.0409   -0.0014 H   0  0  0  0  0  0  0  0  0  0  0  0
    2.2726   -3.5053    0.8507 H   0  0  0  0  0  0  0  0  0  0  0  0
    4.8799   -2.5146    5.2400 H   0  0  0  0  0  0  0  0  0  0  0  0
    3.1286    0.1870    2.9046 H   0  0  0  0  0  0  0  0  0  0  0  0
    6.3682   -5.3416    2.3302 H   0  0  0  0  0  0  0  0  0  0  0  0
    6.7857   -3.1464    6.6949 H   0  0  0  0  0  0  0  0  0  0  0  0
    4.3363   -1.6664    3.3447 H   0  0  0  0  0  0  0  0  0  0  0  0
  1  2  3  0  0  0  0
  1 19  1  0  0  0  0
  2 10  1  0  0  0  0
  3  4  2  0  0  0  0
  3  5  1  0  0  0  0
  3 20  1  0  0  0  0
  4 10  1  0  0  0  0
  4 21  1  0  0  0  0
  5 12  2  0  0  0  0
  5 22  1  0  0  0  0
  6  9  2  0  0  0  0
  6 11  1  0  0  0  0
  6 23  1  0  0  0  0
  7 10  2  0  0  0  0
  7 12  1  0  0  0  0
  7 24  1  0  0  0  0
  8 11  2  0  0  0  0
  8 13  1  0  0  0  0
  8 25  1  0  0  0  0
  9 15  1  0  0  0  0
  9 26  1  0  0  0  0
 11 14  1  0  0  0  0
 12 16  1  0  0  0  0
 13 15  2  0  0  0  0
 13 18  1  0  0  0  0
 14 16  1  0  0  0  0
 14 17  2  0  0  0  0
 16 27  1  0  0  0  0
M  END
$$$$
