
  -OEChem-05262117483D

 28 29  0     0  0  0  0  0  0999 V2000
    2.8647   -2.4627   -4.9113 C   0  0  0  0  0  0  0  0  0  0  0  0
    1.8111   -2.1695    0.5721 C   0  0  0  0  0  0  0  0  0  0  0  0
    0.7769   -1.4919    1.2142 C   0  0  0  0  0  0  0  0  0  0  0  0
    3.3495   -0.3982    1.1619 C   0  0  0  0  0  0  0  0  0  0  0  0
    3.2295   -2.8631   -3.6040 C   0  0  0  0  0  0  0  0  0  0  0  0
    3.1058   -1.6290    0.5457 C   0  0  0  0  0  0  0  0  0  0  0  0
    1.0373   -0.2684    1.8296 C   0  0  0  0  0  0  0  0  0  0  0  0
    2.3158    0.2873    1.8084 C   0  0  0  0  0  0  0  0  0  0  0  0
    3.2790   -4.1805   -3.0433 C   0  0  0  0  0  0  0  0  0  0  0  0
    3.5956   -2.0062   -2.5572 C   0  0  0  0  0  0  0  0  0  0  0  0
    2.9748   -5.4713   -3.7341 C   0  0  0  0  0  0  0  0  0  0  0  0
    4.2273   -2.3727   -0.1565 C   0  0  0  0  0  0  0  0  0  0  0  0
    2.5620   -2.1069   -5.9826 N   0  0  0  0  0  0  0  0  0  0  0  0
    3.6383   -4.1364   -1.7673 N   0  0  0  0  0  0  0  0  0  0  0  0
    3.8514   -2.8011   -1.4918 N   0  0  0  0  0  0  0  0  0  0  0  0
    3.7748   -0.6329   -2.5275 N   0  0  0  0  0  0  0  0  0  0  0  0
    0.0290    0.3798    2.4444 F   0  0  0  0  0  0  0  0  0  0  0  0
    2.6438    1.9693    2.6384 Br  0  0  0  0  0  0  0  0  0  0  0  0
    1.6160   -3.1197    0.0827 H   0  0  0  0  0  0  0  0  0  0  0  0
   -0.2323   -1.8911    1.2488 H   0  0  0  0  0  0  0  0  0  0  0  0
    4.3441    0.0386    1.1434 H   0  0  0  0  0  0  0  0  0  0  0  0
    3.6617   -5.6366   -4.5707 H   0  0  0  0  0  0  0  0  0  0  0  0
    3.0706   -6.3007   -3.0306 H   0  0  0  0  0  0  0  0  0  0  0  0
    1.9590   -5.4670   -4.1429 H   0  0  0  0  0  0  0  0  0  0  0  0
    5.1206   -1.7431   -0.2210 H   0  0  0  0  0  0  0  0  0  0  0  0
    4.4925   -3.2845    0.3827 H   0  0  0  0  0  0  0  0  0  0  0  0
    3.4632   -0.1828   -3.3828 H   0  0  0  0  0  0  0  0  0  0  0  0
    3.3792   -0.1772   -1.7093 H   0  0  0  0  0  0  0  0  0  0  0  0
  1  5  1  0  0  0  0
  1 13  3  0  0  0  0
  2  3  1  0  0  0  0
  2  6  2  0  0  0  0
  2 19  1  0  0  0  0
  3  7  2  0  0  0  0
  3 20  1  0  0  0  0
  4  6  1  0  0  0  0
  4  8  2  0  0  0  0
  4 21  1  0  0  0  0
  5  9  1  0  0  0  0
  5 10  2  0  0  0  0
  6 12  1  0  0  0  0
  7  8  1  0  0  0  0
  7 17  1  0  0  0  0
  8 18  1  0  0  0  0
  9 11  1  0  0  0  0
  9 14  2  0  0  0  0
 10 15  1  0  0  0  0
 10 16  1  0  0  0  0
 11 22  1  0  0  0  0
 11 23  1  0  0  0  0
 11 24  1  0  0  0  0
 12 15  1  0  0  0  0
 12 25  1  0  0  0  0
 12 26  1  0  0  0  0
 14 15  1  0  0  0  0
 16 27  1  0  0  0  0
 16 28  1  0  0  0  0
M  END
$$$$
