
  -OEChem-05262117483D

 28 29  0     0  0  0  0  0  0999 V2000
    2.8796   -4.5494   -3.8066 C   0  0  0  0  0  0  0  0  0  0  0  0
    2.1847   -2.7494    1.3205 C   0  0  0  0  0  0  0  0  0  0  0  0
    1.0917   -2.6280    2.1765 C   0  0  0  0  0  0  0  0  0  0  0  0
    2.6532   -0.3894    1.5700 C   0  0  0  0  0  0  0  0  0  0  0  0
    3.1122   -3.4452   -2.9529 C   0  0  0  0  0  0  0  0  0  0  0  0
    2.9728   -1.6303    1.0131 C   0  0  0  0  0  0  0  0  0  0  0  0
    0.7911   -1.3856    2.7305 C   0  0  0  0  0  0  0  0  0  0  0  0
    1.5637   -0.2631    2.4363 C   0  0  0  0  0  0  0  0  0  0  0  0
    2.8283   -2.0560   -3.1640 C   0  0  0  0  0  0  0  0  0  0  0  0
    3.7289   -3.5048   -1.6979 C   0  0  0  0  0  0  0  0  0  0  0  0
    2.1843   -1.4348   -4.3618 C   0  0  0  0  0  0  0  0  0  0  0  0
    4.1635   -1.7614    0.0830 C   0  0  0  0  0  0  0  0  0  0  0  0
    2.7032   -5.4815   -4.4893 N   0  0  0  0  0  0  0  0  0  0  0  0
    3.2389   -1.3329   -2.1335 N   0  0  0  0  0  0  0  0  0  0  0  0
    3.7938   -2.2299   -1.2454 N   0  0  0  0  0  0  0  0  0  0  0  0
    4.1271   -4.6103   -0.9516 N   0  0  0  0  0  0  0  0  0  0  0  0
   -0.2654   -1.2803    3.5615 F   0  0  0  0  0  0  0  0  0  0  0  0
    1.1281    1.4239    3.2079 Br  0  0  0  0  0  0  0  0  0  0  0  0
    2.4230   -3.7160    0.8858 H   0  0  0  0  0  0  0  0  0  0  0  0
    0.4655   -3.4789    2.4273 H   0  0  0  0  0  0  0  0  0  0  0  0
    3.2432    0.4894    1.3279 H   0  0  0  0  0  0  0  0  0  0  0  0
    1.1992   -1.8754   -4.5458 H   0  0  0  0  0  0  0  0  0  0  0  0
    2.0690   -0.3605   -4.2056 H   0  0  0  0  0  0  0  0  0  0  0  0
    2.7884   -1.5989   -5.2604 H   0  0  0  0  0  0  0  0  0  0  0  0
    4.6611   -0.7987   -0.0452 H   0  0  0  0  0  0  0  0  0  0  0  0
    4.8971   -2.4589    0.4981 H   0  0  0  0  0  0  0  0  0  0  0  0
    5.0436   -4.5177   -0.5233 H   0  0  0  0  0  0  0  0  0  0  0  0
    4.0834   -5.4658   -1.4992 H   0  0  0  0  0  0  0  0  0  0  0  0
  1  5  1  0  0  0  0
  1 13  3  0  0  0  0
  2  3  1  0  0  0  0
  2  6  2  0  0  0  0
  2 19  1  0  0  0  0
  3  7  2  0  0  0  0
  3 20  1  0  0  0  0
  4  6  1  0  0  0  0
  4  8  2  0  0  0  0
  4 21  1  0  0  0  0
  5  9  1  0  0  0  0
  5 10  2  0  0  0  0
  6 12  1  0  0  0  0
  7  8  1  0  0  0  0
  7 17  1  0  0  0  0
  8 18  1  0  0  0  0
  9 11  1  0  0  0  0
  9 14  2  0  0  0  0
 10 15  1  0  0  0  0
 10 16  1  0  0  0  0
 11 22  1  0  0  0  0
 11 23  1  0  0  0  0
 11 24  1  0  0  0  0
 12 15  1  0  0  0  0
 12 25  1  0  0  0  0
 12 26  1  0  0  0  0
 14 15  1  0  0  0  0
 16 27  1  0  0  0  0
 16 28  1  0  0  0  0
M  END
$$$$
