
  -OEChem-05262117483D

 28 29  0     0  0  0  0  0  0999 V2000
    2.0717   -4.6909   -4.5488 C   0  0  0  0  0  0  0  0  0  0  0  0
    2.2960   -2.9864    1.7996 C   0  0  0  0  0  0  0  0  0  0  0  0
    1.1596   -2.9508    2.6119 C   0  0  0  0  0  0  0  0  0  0  0  0
    1.0757   -1.8902    0.0219 C   0  0  0  0  0  0  0  0  0  0  0  0
    2.5661   -3.7360   -3.6289 C   0  0  0  0  0  0  0  0  0  0  0  0
    2.2643   -2.4529    0.5061 C   0  0  0  0  0  0  0  0  0  0  0  0
   -0.0114   -2.3878    2.1167 C   0  0  0  0  0  0  0  0  0  0  0  0
   -0.0648   -1.8594    0.8237 C   0  0  0  0  0  0  0  0  0  0  0  0
    2.9727   -2.3819   -3.8616 C   0  0  0  0  0  0  0  0  0  0  0  0
    2.7272   -3.9343   -2.2511 C   0  0  0  0  0  0  0  0  0  0  0  0
    2.9947   -1.6540   -5.1677 C   0  0  0  0  0  0  0  0  0  0  0  0
    3.5058   -2.4689   -0.3690 C   0  0  0  0  0  0  0  0  0  0  0  0
    1.6564   -5.4956   -5.2875 N   0  0  0  0  0  0  0  0  0  0  0  0
    3.3448   -1.8001   -2.7296 N   0  0  0  0  0  0  0  0  0  0  0  0
    3.2100   -2.7700   -1.7566 N   0  0  0  0  0  0  0  0  0  0  0  0
    2.5441   -5.0621   -1.4682 N   0  0  0  0  0  0  0  0  0  0  0  0
   -1.1073   -2.3646    2.9002 F   0  0  0  0  0  0  0  0  0  0  0  0
   -1.6893   -1.1122    0.1694 Br  0  0  0  0  0  0  0  0  0  0  0  0
    3.2102   -3.4348    2.1807 H   0  0  0  0  0  0  0  0  0  0  0  0
    1.1628   -3.3590    3.6180 H   0  0  0  0  0  0  0  0  0  0  0  0
    1.0386   -1.4803   -0.9829 H   0  0  0  0  0  0  0  0  0  0  0  0
    2.0017   -1.6470   -5.6289 H   0  0  0  0  0  0  0  0  0  0  0  0
    3.3210   -0.6237   -5.0129 H   0  0  0  0  0  0  0  0  0  0  0  0
    3.6781   -2.1392   -5.8723 H   0  0  0  0  0  0  0  0  0  0  0  0
    3.9918   -1.4908   -0.3763 H   0  0  0  0  0  0  0  0  0  0  0  0
    4.2247   -3.2016    0.0129 H   0  0  0  0  0  0  0  0  0  0  0  0
    2.0901   -5.8170   -1.9736 H   0  0  0  0  0  0  0  0  0  0  0  0
    2.0783   -4.8834   -0.5824 H   0  0  0  0  0  0  0  0  0  0  0  0
  1  5  1  0  0  0  0
  1 13  3  0  0  0  0
  2  3  1  0  0  0  0
  2  6  2  0  0  0  0
  2 19  1  0  0  0  0
  3  7  2  0  0  0  0
  3 20  1  0  0  0  0
  4  6  1  0  0  0  0
  4  8  2  0  0  0  0
  4 21  1  0  0  0  0
  5  9  1  0  0  0  0
  5 10  2  0  0  0  0
  6 12  1  0  0  0  0
  7  8  1  0  0  0  0
  7 17  1  0  0  0  0
  8 18  1  0  0  0  0
  9 11  1  0  0  0  0
  9 14  2  0  0  0  0
 10 15  1  0  0  0  0
 10 16  1  0  0  0  0
 11 22  1  0  0  0  0
 11 23  1  0  0  0  0
 11 24  1  0  0  0  0
 12 15  1  0  0  0  0
 12 25  1  0  0  0  0
 12 26  1  0  0  0  0
 14 15  1  0  0  0  0
 16 27  1  0  0  0  0
 16 28  1  0  0  0  0
M  END
$$$$
