
  -OEChem-05262117483D

 27 28  0     0  0  0  0  0  0999 V2000
   -2.3189   -0.9486    0.4904 C   0  0  0  0  0  0  0  0  0  0  0  0
    1.5300   -2.4820    0.8742 C   0  0  0  0  0  0  0  0  0  0  0  0
    0.7012   -1.8164    1.7794 C   0  0  0  0  0  0  0  0  0  0  0  0
    2.3343   -1.7634   -0.0136 C   0  0  0  0  0  0  0  0  0  0  0  0
    1.4865    0.3153    0.9287 C   0  0  0  0  0  0  0  0  0  0  0  0
   -1.6234    0.0134   -0.2914 C   0  0  0  0  0  0  0  0  0  0  0  0
    0.6545   -0.4148    1.7951 C   0  0  0  0  0  0  0  0  0  0  0  0
    2.3046   -0.3672    0.0343 C   0  0  0  0  0  0  0  0  0  0  0  0
   -1.1560    1.2388    0.1169 C   0  0  0  0  0  0  0  0  0  0  0  0
   -0.6363    0.8825   -1.9801 C   0  0  0  0  0  0  0  0  0  0  0  0
   -0.2787    0.2607    2.7260 C   0  0  0  0  0  0  0  0  0  0  0  0
   -0.0323    1.2320   -3.2914 C   0  0  0  0  0  0  0  0  0  0  0  0
   -2.8721   -1.7255    1.1604 N   0  0  0  0  0  0  0  0  0  0  0  0
   -1.2641   -0.1963   -1.6273 N   0  0  0  0  0  0  0  0  0  0  0  0
   -1.0395    1.2868    2.5573 N   0  0  0  0  0  0  0  0  0  0  0  0
   -1.0858    1.9319    1.3182 N   0  0  0  0  0  0  0  0  0  0  0  0
   -0.5261    1.8069   -0.9622 O   0  0  0  0  0  0  0  0  0  0  0  0
    3.3044    0.5549   -1.0816 Cl  0  0  0  0  0  0  0  0  0  0  0  0
    1.5429   -3.5678    0.8480 H   0  0  0  0  0  0  0  0  0  0  0  0
    0.0550   -2.3819    2.4445 H   0  0  0  0  0  0  0  0  0  0  0  0
    2.9714   -2.2726   -0.7296 H   0  0  0  0  0  0  0  0  0  0  0  0
    1.4842    1.3992    0.9434 H   0  0  0  0  0  0  0  0  0  0  0  0
   -0.3643   -0.1682    3.7240 H   0  0  0  0  0  0  0  0  0  0  0  0
   -0.4613    2.1590   -3.6845 H   0  0  0  0  0  0  0  0  0  0  0  0
    1.0479    1.3739   -3.1863 H   0  0  0  0  0  0  0  0  0  0  0  0
   -0.2227    0.4199   -3.9935 H   0  0  0  0  0  0  0  0  0  0  0  0
   -1.7104    2.7288    1.3834 H   0  0  0  0  0  0  0  0  0  0  0  0
  1  6  1  0  0  0  0
  1 13  3  0  0  0  0
  2  3  1  0  0  0  0
  2  4  2  0  0  0  0
  2 19  1  0  0  0  0
  3  7  2  0  0  0  0
  3 20  1  0  0  0  0
  4  8  1  0  0  0  0
  4 21  1  0  0  0  0
  5  7  1  0  0  0  0
  5  8  2  0  0  0  0
  5 22  1  0  0  0  0
  6  9  2  0  0  0  0
  6 14  1  0  0  0  0
  7 11  1  0  0  0  0
  8 18  1  0  0  0  0
  9 16  1  0  0  0  0
  9 17  1  0  0  0  0
 10 12  1  0  0  0  0
 10 14  2  0  0  0  0
 10 17  1  0  0  0  0
 11 15  2  0  0  0  0
 11 23  1  0  0  0  0
 12 24  1  0  0  0  0
 12 25  1  0  0  0  0
 12 26  1  0  0  0  0
 15 16  1  0  0  0  0
 16 27  1  0  0  0  0
M  END
$$$$
