
  -OEChem-05262117483D

 27 28  0     0  0  0  0  0  0999 V2000
   -0.2393   -3.4747   -1.3146 C   0  0  0  0  0  0  0  0  0  0  0  0
    0.4089   -2.8179   -0.5273 C   0  0  0  0  0  0  0  0  0  0  0  0
    1.6053    0.0670    1.5149 C   0  0  0  0  0  0  0  0  0  0  0  0
    0.8563   -0.6822    0.6077 C   0  0  0  0  0  0  0  0  0  0  0  0
    2.6581   -0.5187    2.2158 C   0  0  0  0  0  0  0  0  0  0  0  0
    5.8616   -3.2315    4.9128 C   0  0  0  0  0  0  0  0  0  0  0  0
    2.2326   -2.6370    1.1044 C   0  0  0  0  0  0  0  0  0  0  0  0
    6.7380   -4.7948    3.3093 C   0  0  0  0  0  0  0  0  0  0  0  0
    6.9490   -3.5423    5.7294 C   0  0  0  0  0  0  0  0  0  0  0  0
    1.1708   -2.0376    0.4021 C   0  0  0  0  0  0  0  0  0  0  0  0
    5.7573   -3.8679    3.6667 C   0  0  0  0  0  0  0  0  0  0  0  0
    2.9760   -1.8733    2.0134 C   0  0  0  0  0  0  0  0  0  0  0  0
    7.7878   -5.0086    4.2075 C   0  0  0  0  0  0  0  0  0  0  0  0
    4.6240   -3.6450    2.6957 C   0  0  0  0  0  0  0  0  0  0  0  0
    7.9097   -4.4119    5.3837 N   0  0  0  0  0  0  0  0  0  0  0  0
    4.0487   -2.3985    2.7696 N   0  0  0  0  0  0  0  0  0  0  0  0
    4.2813   -4.5255    1.9126 O   0  0  0  0  0  0  0  0  0  0  0  0
    9.0484   -6.1488    3.7668 Cl  0  0  0  0  0  0  0  0  0  0  0  0
   -0.8072   -4.0581   -2.0081 H   0  0  0  0  0  0  0  0  0  0  0  0
    1.3700    1.1147    1.6794 H   0  0  0  0  0  0  0  0  0  0  0  0
    0.0353   -0.2327    0.0583 H   0  0  0  0  0  0  0  0  0  0  0  0
    3.2361    0.0752    2.9214 H   0  0  0  0  0  0  0  0  0  0  0  0
    5.1041   -2.5431    5.2763 H   0  0  0  0  0  0  0  0  0  0  0  0
    2.4756   -3.6769    0.9394 H   0  0  0  0  0  0  0  0  0  0  0  0
    6.6735   -5.3257    2.3666 H   0  0  0  0  0  0  0  0  0  0  0  0
    7.0565   -3.0794    6.7082 H   0  0  0  0  0  0  0  0  0  0  0  0
    4.5060   -1.7306    3.3765 H   0  0  0  0  0  0  0  0  0  0  0  0
  1  2  3  0  0  0  0
  1 19  1  0  0  0  0
  2 10  1  0  0  0  0
  3  4  2  0  0  0  0
  3  5  1  0  0  0  0
  3 20  1  0  0  0  0
  4 10  1  0  0  0  0
  4 21  1  0  0  0  0
  5 12  2  0  0  0  0
  5 22  1  0  0  0  0
  6  9  2  0  0  0  0
  6 11  1  0  0  0  0
  6 23  1  0  0  0  0
  7 10  2  0  0  0  0
  7 12  1  0  0  0  0
  7 24  1  0  0  0  0
  8 11  2  0  0  0  0
  8 13  1  0  0  0  0
  8 25  1  0  0  0  0
  9 15  1  0  0  0  0
  9 26  1  0  0  0  0
 11 14  1  0  0  0  0
 12 16  1  0  0  0  0
 13 15  2  0  0  0  0
 13 18  1  0  0  0  0
 14 16  1  0  0  0  0
 14 17  2  0  0  0  0
 16 27  1  0  0  0  0
M  END
$$$$
