31
0 1 C15Cl2H10N4
C                     9.275992358815     3.938992211475    -1.099168467863
C                     8.601362383167     5.151795590296    -0.817115739259
C                     8.713142554459     2.729776733520    -0.738030781927
C                     8.766498243753    -3.220342544889    -1.571897027819
C                     7.379820658732     5.140150093256    -0.174458878225
C                    10.000647387685    -3.457146049890    -2.169647291618
C                     9.759691624908    -1.500484674367    -0.198056202408
C                     5.080687862996     2.765736806826     1.196670115069
C                     7.454657111536     2.690837911112    -0.083243173643
C                     8.620817154683    -2.224730411123    -0.589984313060
C                     6.781063211948     3.912493191683     0.210040658619
C                    11.125405320258    -2.714343407174    -1.792665606070
C                    11.000546978713    -1.737867697206    -0.793150393493
C                     6.766153802791     1.495873863370     0.338712446940
C                     7.289657138366    -2.003547042608     0.020164091233
N                     5.573918594922     3.938566520160     0.859042306782
N                     5.609676109776     1.535990750669     0.973257624596
N                     6.714966290116    -0.895126921945     0.344254054191
N                     7.361498389948     0.272118400160     0.090196726237
Cl                   12.650162797643    -3.031634104446    -2.572600010397
Cl                   12.373385685365    -0.801906895177    -0.259482627347
H                    10.240634274616     3.959994656997    -1.598412235142
H                     9.054080620204     6.096392400358    -1.106983087030
H                     9.263965314423     1.819069040582    -0.959803172304
H                     7.903341420113    -3.805508344897    -1.877446203555
H                     6.846164640321     6.056781925067     0.057811419617
H                    10.105629732654    -4.218661621175    -2.935868311952
H                     9.704099870851    -0.777727153264     0.609500506176
H                     4.125693302838     2.766248621733     1.720336648895
H                     6.680331609927    -2.887645033048     0.201569452244
H                     8.165351524820     0.262077569510    -0.529635594553
