31
0 1 C15H13N3
C                    -2.366547173028     5.321635169522     0.509318772193
C                    -0.695701283000     3.862216398279    -0.605527099713
C                    -1.710396229621    -2.516758590533     1.758613333027
C                    -1.493643577223    -1.222442389338     1.269637582758
C                    -0.163867592149     2.602586260381    -0.774963557031
C                     0.331468233180    -2.069948320714    -0.102436917917
C                    -2.245114068565     2.904187763542     0.967007999404
C                    -1.773832231476     4.038868059863     0.292156139751
C                    -0.923287743390    -3.579622284346     1.323300464714
C                     0.098320104430    -3.347654548866     0.389725235884
C                    -0.468732483542    -0.993404771575     0.334504403302
C                    -0.714690992417     1.514606768378    -0.041445995240
C                    -0.957955444237    -5.041553197394     1.717987546589
C                     0.835077336732    -4.635426283202     0.082923936908
C                    -0.144242319735    -5.724710615079     0.589540587385
N                    -2.850003832537     6.368729408916     0.686290670658
N                    -1.740267970949     1.679625061664     0.812901498955
N                    -0.169015226967     0.268650035135    -0.225725000175
H                    -0.295819818792     4.711174524215    -1.151702826500
H                    -2.508860853501    -2.678862329203     2.479570767888
H                    -2.106951852103    -0.396599269018     1.597971456985
H                     0.665199646163     2.440296484171    -1.459061550166
H                     1.124714492416    -1.896946526646    -0.829778140269
H                    -3.073672508281     2.997014659269     1.666772130399
H                    -0.469673646378    -5.183125669931     2.692009874588
H                    -1.973565930934    -5.440022160624     1.808111468625
H                     1.085889093851    -4.748461768673    -0.976750617528
H                     1.779504651334    -4.668340311939     0.643083568369
H                     0.366081100685    -6.633145412520     0.921603927965
H                    -0.822575096496    -6.003502050992    -0.224082111315
H                     0.597260092240     0.247546770772    -0.885797527721
