
  -OEChem-05262117483D

 41 42  0     0  0  0  0  0  0999 V2000
   -7.5111    0.1000   -3.8541 C   0  0  0  0  0  0  0  0  0  0  0  0
   -3.2356    0.5589   -3.3133 C   0  0  0  0  0  0  0  0  0  0  0  0
   -7.8575   -0.6464   -2.7220 C   0  0  0  0  0  0  0  0  0  0  0  0
   -6.9251    1.3599   -3.6943 C   0  0  0  0  0  0  0  0  0  0  0  0
   -2.0231    1.1709   -2.9734 C   0  0  0  0  0  0  0  0  0  0  0  0
   -3.7564   -0.4415   -2.4890 C   0  0  0  0  0  0  0  0  0  0  0  0
   -7.6136   -0.1357   -1.4437 C   0  0  0  0  0  0  0  0  0  0  0  0
   -6.6815    1.8631   -2.4131 C   0  0  0  0  0  0  0  0  0  0  0  0
   -1.3479    0.7941   -1.8085 C   0  0  0  0  0  0  0  0  0  0  0  0
   -3.0724   -0.8168   -1.3279 C   0  0  0  0  0  0  0  0  0  0  0  0
   -7.0205    1.1240   -1.2710 C   0  0  0  0  0  0  0  0  0  0  0  0
   -1.8681   -0.1997   -0.9625 C   0  0  0  0  0  0  0  0  0  0  0  0
   -3.3935    0.8593    2.1333 C   0  0  0  0  0  0  0  0  0  0  0  0
   -6.6451    1.6165    0.1092 C   0  0  0  0  0  0  0  0  0  0  0  0
   -1.1896   -0.5470    0.3460 C   0  0  0  0  0  0  0  0  0  0  0  0
   -4.7292    1.5398    1.8559 C   0  0  0  0  0  0  0  0  0  0  0  0
   -5.2629    1.0648    0.4939 C   0  0  0  0  0  0  0  0  0  0  0  0
   -1.0747    0.6601    1.3045 C   0  0  0  0  0  0  0  0  0  0  0  0
   -2.3242    1.3994    1.4618 N   0  0  0  0  0  0  0  0  0  0  0  0
   -3.2858   -0.1250    2.8646 O   0  0  0  0  0  0  0  0  0  0  0  0
   -7.7001   -0.2947   -4.8491 H   0  0  0  0  0  0  0  0  0  0  0  0
   -3.7743    0.8620   -4.2068 H   0  0  0  0  0  0  0  0  0  0  0  0
   -8.3181   -1.6246   -2.8354 H   0  0  0  0  0  0  0  0  0  0  0  0
   -6.6562    1.9495   -4.5674 H   0  0  0  0  0  0  0  0  0  0  0  0
   -1.6051    1.9438   -3.6140 H   0  0  0  0  0  0  0  0  0  0  0  0
   -4.7079   -0.9055   -2.7345 H   0  0  0  0  0  0  0  0  0  0  0  0
   -7.8805   -0.7244   -0.5681 H   0  0  0  0  0  0  0  0  0  0  0  0
   -6.2104    2.8373   -2.2981 H   0  0  0  0  0  0  0  0  0  0  0  0
   -0.4078    1.2808   -1.5542 H   0  0  0  0  0  0  0  0  0  0  0  0
   -3.4944   -1.5805   -0.6788 H   0  0  0  0  0  0  0  0  0  0  0  0
   -7.3899    1.2967    0.8473 H   0  0  0  0  0  0  0  0  0  0  0  0
   -6.6243    2.7127    0.1273 H   0  0  0  0  0  0  0  0  0  0  0  0
   -0.1781   -0.9339    0.1679 H   0  0  0  0  0  0  0  0  0  0  0  0
   -1.7519   -1.3360    0.8514 H   0  0  0  0  0  0  0  0  0  0  0  0
   -4.6204    2.6314    1.8600 H   0  0  0  0  0  0  0  0  0  0  0  0
   -5.4147    1.2611    2.6597 H   0  0  0  0  0  0  0  0  0  0  0  0
   -5.3078   -0.0292    0.4936 H   0  0  0  0  0  0  0  0  0  0  0  0
   -4.5553    1.3322   -0.2967 H   0  0  0  0  0  0  0  0  0  0  0  0
   -0.7593    0.3113    2.2901 H   0  0  0  0  0  0  0  0  0  0  0  0
   -0.3222    1.3677    0.9447 H   0  0  0  0  0  0  0  0  0  0  0  0
   -2.5442    2.0582    0.7253 H   0  0  0  0  0  0  0  0  0  0  0  0
  1  3  1  0  0  0  0
  1  4  2  0  0  0  0
  1 21  1  0  0  0  0
  2  5  1  0  0  0  0
  2  6  2  0  0  0  0
  2 22  1  0  0  0  0
  3  7  2  0  0  0  0
  3 23  1  0  0  0  0
  4  8  1  0  0  0  0
  4 24  1  0  0  0  0
  5  9  2  0  0  0  0
  5 25  1  0  0  0  0
  6 10  1  0  0  0  0
  6 26  1  0  0  0  0
  7 11  1  0  0  0  0
  7 27  1  0  0  0  0
  8 11  2  0  0  0  0
  8 28  1  0  0  0  0
  9 12  1  0  0  0  0
  9 29  1  0  0  0  0
 10 12  2  0  0  0  0
 10 30  1  0  0  0  0
 11 14  1  0  0  0  0
 12 15  1  0  0  0  0
 13 16  1  0  0  0  0
 13 19  1  0  0  0  0
 13 20  2  0  0  0  0
 14 17  1  0  0  0  0
 14 31  1  0  0  0  0
 14 32  1  0  0  0  0
 15 18  1  0  0  0  0
 15 33  1  0  0  0  0
 15 34  1  0  0  0  0
 16 17  1  0  0  0  0
 16 35  1  0  0  0  0
 16 36  1  0  0  0  0
 17 37  1  0  0  0  0
 17 38  1  0  0  0  0
 18 19  1  0  0  0  0
 18 39  1  0  0  0  0
 18 40  1  0  0  0  0
 19 41  1  0  0  0  0
M  END
$$$$
