34
0 1 C12H19NO2
C                     1.657036142865    -1.575022099712    -0.041114068834
C                     0.522997727917    -1.312985504394     0.740543241239
C                     3.038363127148    -1.530974208921     1.922683436003
C                     2.927806572320    -1.685924355429     0.528992977624
C                     0.644106642546    -1.152126517525     2.123570762947
C                     1.923863919233    -1.268691487990     2.712805819287
C                    -4.087581928375    -0.168832692580     3.039265321375
C                     1.571732501333    -2.106374863731     4.902041684879
C                     4.138781167618    -1.958025721375    -0.339049919122
C                    -2.658071554566    -0.386957316274     3.546801983476
C                     5.237907243094    -0.882047862674    -0.274721396400
C                    -1.696091654140    -0.703096666814     2.410669831268
N                     6.008180385001    -0.979586388240     0.977559083887
O                     2.099761709670    -1.068749578466     4.067333925511
O                    -0.395247734546    -0.878240813651     2.973569965668
H                     1.535812280363    -1.691232135146    -1.116008680617
H                    -0.443859286645    -1.227902413339     0.257428673630
H                     4.010812258927    -1.582538241765     2.400549655787
H                    -4.137498664313     0.668027167002     2.333276780481
H                    -4.471377987619    -1.059321005849     2.528199158406
H                    -4.766097350651     0.055905942441     3.867924791604
H                     1.820746336545    -1.827857329941     5.928525990657
H                     2.040997146645    -3.069450489073     4.661685945558
H                     0.485493833017    -2.188459165742     4.796977788410
H                     3.810269241134    -2.051721372620    -1.380039215666
H                     4.588595190162    -2.925121765283    -0.073379495649
H                    -2.633358687780    -1.211104852268     4.268714154569
H                    -2.299193857495     0.505167429893     4.071556754361
H                     5.869591641124    -0.971736467661    -1.174579591242
H                     4.770578365061     0.107861624631    -0.307540755335
H                    -2.005383869624    -1.618690088893     1.886517189964
H                    -1.677937108073     0.117402795575     1.679529428758
H                     6.628360031253    -0.176847981037     1.068149644971
H                     6.606279842258    -1.804366052871     0.943143065013
