35
1 1 C12H20NO2
C                     1.971425890668    -0.219569171644    -0.084533556396
C                     1.186648848101     0.530470355728     0.797710578105
C                     2.874033028825    -1.448487192469     1.782072134492
C                     2.811319925374    -1.224367303193     0.398748591052
C                     1.225401807597     0.289842635195     2.177527290630
C                     2.103065574667    -0.709392113460     2.678340184758
C                    -2.261042979953     3.515843994796     3.463639186559
C                     2.303095671573    -0.022380618773     4.989744176668
C                     3.686038218005    -2.029793205653    -0.539039560430
C                    -1.223355579867     2.457326883214     3.853767708395
C                     5.093224325122    -1.436181885532    -0.554936350761
C                    -0.487558613700     1.920890789992     2.636060042189
N                     6.018797669554    -2.249728298046    -1.473063150527
O                     2.187102127827    -1.058939855380     3.992979283266
O                     0.452777891184     0.929335683272     3.090025682206
H                     1.897750410331    -0.025950358276    -1.152363186741
H                     0.520269295511     1.284661378861     0.396986256312
H                     3.507393473959    -2.226290272079     2.203750021708
H                    -1.793714228922     4.370682697737     2.962293934865
H                    -3.019322436799     3.103629261928     2.788900189822
H                    -2.777631789754     3.894151036419     4.349988127517
H                     2.743345339920    -0.509237300070     5.861341091062
H                     1.326906733320     0.392544506850     5.240800545952
H                     2.966103777944     0.776686981371     4.641252106241
H                     3.730153981065    -3.077371991453    -0.214294957637
H                     3.265659593135    -2.014243597906    -1.551501918983
H                    -1.708378418708     1.620769395490     4.368189114177
H                    -0.491892416302     2.881952361579     4.550239658626
H                     5.556242335093    -1.451732350546     0.432871038284
H                     5.102721082222    -0.414538873886    -0.938301056493
H                    -1.187612569761     1.458456578904     1.928376758361
H                     0.051723526856     2.725496446609     2.119246109819
H                     6.973909320753    -1.871120376845    -1.497647522502
H                     5.662717234968    -2.261873946927    -2.436664629847
H                     6.077840415747    -3.226597848153    -1.160300061719
