34
0 1 C12H19NO2
C                     1.504159275626    -1.399777573250    -0.162145072702
C                     0.399926401937    -1.130357490021     0.656852971062
C                     2.919285834958    -1.512678859381     1.771094353257
C                     2.779328966904    -1.589561524039     0.376067156201
C                     0.552713430761    -1.044187098552     2.044727570808
C                     1.835281860836    -1.246630693339     2.603073680218
C                    -4.105261675482     0.136025256008     3.096092201500
C                     1.463882201094    -2.150528320084     4.766095625533
C                     3.960878065432    -1.924643286137    -0.504208031610
C                    -2.681038226517    -0.179801858810     3.565716121095
C                     4.206580018612    -3.437900462124    -0.600427493018
C                    -1.756779654616    -0.490376582890     2.397360431741
N                     5.332096807181    -3.716889132968    -1.506835954501
O                     2.054577812994    -1.123034688154     3.958805384133
O                    -0.456534276781    -0.760360213389     2.925913858899
H                     1.361253144223    -1.454304887347    -1.239092177673
H                    -0.570894472731    -0.974643735506     0.200164841299
H                     3.891034743576    -1.647281512418     2.240843201008
H                    -4.122799428469     1.007512583094     2.431771518683
H                    -4.543620948205    -0.707746652799     2.550887160346
H                    -4.757093776127     0.355144637606     3.947275909197
H                     1.767559983958    -1.940339105547     5.793890433381
H                     1.841931618084    -3.137317328755     4.468568966815
H                     0.372597843949    -2.135397259760     4.693825073647
H                     4.865974045722    -1.441852320976    -0.112801530935
H                     3.808820909568    -1.537994236755    -1.516957511134
H                    -2.687915455881    -1.037839437990     4.247438881153
H                    -2.267112811896     0.666526886109     4.124649728336
H                     4.341324702812    -3.843218550117     0.416599907994
H                     3.311186068555    -3.915161477808    -1.014242214350
H                    -2.122272468995    -1.362551496385     1.836989960203
H                    -1.706698011183     0.362345681089     1.705971927133
H                     5.465940546013    -4.723544364312    -1.590363883693
H                     6.192667510042    -3.348125701796    -1.102999647367
