
  -OEChem-05262117483D

 35 35  0     0  0  0  0  0  0999 V2000
    2.0234   -1.6181   -0.0753 C   0  0  0  0  0  0  0  0  0  0  0  0
    0.8873   -1.2649    0.6683 C   0  0  0  0  0  0  0  0  0  0  0  0
    3.2278   -2.0429    1.9785 C   0  0  0  0  0  0  0  0  0  0  0  0
    3.1970   -2.0125    0.5650 C   0  0  0  0  0  0  0  0  0  0  0  0
    0.9059   -1.2975    2.0648 C   0  0  0  0  0  0  0  0  0  0  0  0
    2.0995   -1.7062    2.7316 C   0  0  0  0  0  0  0  0  0  0  0  0
   -3.7615    0.0151    2.8499 C   0  0  0  0  0  0  0  0  0  0  0  0
    3.1481   -2.2348    4.8133 C   0  0  0  0  0  0  0  0  0  0  0  0
    4.4542   -2.3108   -0.2261 C   0  0  0  0  0  0  0  0  0  0  0  0
   -2.3820   -0.3723    3.3942 C   0  0  0  0  0  0  0  0  0  0  0  0
    5.0824   -1.0166   -0.7615 C   0  0  0  0  0  0  0  0  0  0  0  0
   -1.3916   -0.6311    2.2704 C   0  0  0  0  0  0  0  0  0  0  0  0
    5.2075   -0.0224    0.3849 N   0  3  0  0  0  0  0  0  0  0  0  0
    2.0282   -1.7365    4.0817 O   0  0  0  0  0  0  0  0  0  0  0  0
   -0.1284   -0.9851    2.8687 O   0  0  0  0  0  0  0  0  0  0  0  0
    1.9676   -1.6039   -1.1616 H   0  0  0  0  0  0  0  0  0  0  0  0
   -0.0167   -0.9771    0.1452 H   0  0  0  0  0  0  0  0  0  0  0  0
    4.1217   -2.3962    2.4841 H   0  0  0  0  0  0  0  0  0  0  0  0
   -3.7142    0.9294    2.2479 H   0  0  0  0  0  0  0  0  0  0  0  0
   -4.1836   -0.7785    2.2235 H   0  0  0  0  0  0  0  0  0  0  0  0
   -4.4615    0.1956    3.6703 H   0  0  0  0  0  0  0  0  0  0  0  0
    2.8500   -2.2107    5.8608 H   0  0  0  0  0  0  0  0  0  0  0  0
    4.0302   -1.5966    4.6740 H   0  0  0  0  0  0  0  0  0  0  0  0
    3.3836   -3.2652    4.5231 H   0  0  0  0  0  0  0  0  0  0  0  0
    5.1835   -2.8510    0.3875 H   0  0  0  0  0  0  0  0  0  0  0  0
    4.2448   -2.9441   -1.0938 H   0  0  0  0  0  0  0  0  0  0  0  0
   -2.4546   -1.2733    4.0122 H   0  0  0  0  0  0  0  0  0  0  0  0
   -1.9873    0.4234    4.0352 H   0  0  0  0  0  0  0  0  0  0  0  0
    4.4348   -0.5371   -1.4967 H   0  0  0  0  0  0  0  0  0  0  0  0
    6.0788   -1.1531   -1.1863 H   0  0  0  0  0  0  0  0  0  0  0  0
   -1.7311   -1.4549    1.6293 H   0  0  0  0  0  0  0  0  0  0  0  0
   -1.2606    0.2646    1.6487 H   0  0  0  0  0  0  0  0  0  0  0  0
    5.4047    0.9325    0.0650 H   0  0  0  0  0  0  0  0  0  0  0  0
    5.9450   -0.2963    1.0437 H   0  0  0  0  0  0  0  0  0  0  0  0
    4.3134   -0.0340    0.9108 H   0  0  0  0  0  0  0  0  0  0  0  0
  1  2  1  0  0  0  0
  1  4  2  0  0  0  0
  1 16  1  0  0  0  0
  2  5  2  0  0  0  0
  2 17  1  0  0  0  0
  3  4  1  0  0  0  0
  3  6  2  0  0  0  0
  3 18  1  0  0  0  0
  4  9  1  0  0  0  0
  5  6  1  0  0  0  0
  5 15  1  0  0  0  0
  6 14  1  0  0  0  0
  7 10  1  0  0  0  0
  7 19  1  0  0  0  0
  7 20  1  0  0  0  0
  7 21  1  0  0  0  0
  8 14  1  0  0  0  0
  8 22  1  0  0  0  0
  8 23  1  0  0  0  0
  8 24  1  0  0  0  0
  9 11  1  0  0  0  0
  9 25  1  0  0  0  0
  9 26  1  0  0  0  0
 10 12  1  0  0  0  0
 10 27  1  0  0  0  0
 10 28  1  0  0  0  0
 11 13  1  0  0  0  0
 11 29  1  0  0  0  0
 11 30  1  0  0  0  0
 12 15  1  0  0  0  0
 12 31  1  0  0  0  0
 12 32  1  0  0  0  0
 13 33  1  0  0  0  0
 13 34  1  0  0  0  0
 13 35  1  0  0  0  0
M  CHG  1  13   1
M  END
$$$$
