
  -OEChem-05262117483D

 41 42  0     0  0  0  0  0  0999 V2000
   -3.4070   -0.0007   -6.5023 C   0  0  0  0  0  0  0  0  0  0  0  0
    0.4632    2.2623   -3.9823 C   0  0  0  0  0  0  0  0  0  0  0  0
   -3.1150   -1.0875   -5.6718 C   0  0  0  0  0  0  0  0  0  0  0  0
   -3.9548    1.1591   -5.9441 C   0  0  0  0  0  0  0  0  0  0  0  0
    1.3692    2.5081   -2.9427 C   0  0  0  0  0  0  0  0  0  0  0  0
   -0.4503    1.2104   -3.8678 C   0  0  0  0  0  0  0  0  0  0  0  0
   -3.3640   -1.0075   -4.2986 C   0  0  0  0  0  0  0  0  0  0  0  0
   -4.1999    1.2324   -4.5696 C   0  0  0  0  0  0  0  0  0  0  0  0
    1.3552    1.7097   -1.7955 C   0  0  0  0  0  0  0  0  0  0  0  0
   -0.4576    0.4173   -2.7156 C   0  0  0  0  0  0  0  0  0  0  0  0
   -3.9035    0.1526   -3.7228 C   0  0  0  0  0  0  0  0  0  0  0  0
    0.4384    0.6536   -1.6649 C   0  0  0  0  0  0  0  0  0  0  0  0
   -2.5931    0.6822    0.4645 C   0  0  0  0  0  0  0  0  0  0  0  0
   -4.1378    0.2188   -2.2268 C   0  0  0  0  0  0  0  0  0  0  0  0
    0.3705   -0.1700   -0.3987 C   0  0  0  0  0  0  0  0  0  0  0  0
   -3.7551    1.5235   -0.0500 C   0  0  0  0  0  0  0  0  0  0  0  0
   -3.7898    1.5750   -1.5914 C   0  0  0  0  0  0  0  0  0  0  0  0
   -0.1448    0.6420    0.8083 C   0  0  0  0  0  0  0  0  0  0  0  0
   -1.3968    1.3442    0.5485 N   0  0  0  0  0  0  0  0  0  0  0  0
   -2.7108   -0.5065    0.7696 O   0  0  0  0  0  0  0  0  0  0  0  0
   -3.2084   -0.0559   -7.5695 H   0  0  0  0  0  0  0  0  0  0  0  0
    0.4736    2.8833   -4.8745 H   0  0  0  0  0  0  0  0  0  0  0  0
   -2.6854   -1.9940   -6.0908 H   0  0  0  0  0  0  0  0  0  0  0  0
   -4.1871    2.0106   -6.5792 H   0  0  0  0  0  0  0  0  0  0  0  0
    2.0883    3.3193   -3.0284 H   0  0  0  0  0  0  0  0  0  0  0  0
   -1.1600    1.0066   -4.6644 H   0  0  0  0  0  0  0  0  0  0  0  0
   -3.1252   -1.8560   -3.6605 H   0  0  0  0  0  0  0  0  0  0  0  0
   -4.6160    2.1469   -4.1557 H   0  0  0  0  0  0  0  0  0  0  0  0
    2.0674    1.9063   -0.9956 H   0  0  0  0  0  0  0  0  0  0  0  0
   -1.1719   -0.3963   -2.6329 H   0  0  0  0  0  0  0  0  0  0  0  0
   -3.5573   -0.5698   -1.7394 H   0  0  0  0  0  0  0  0  0  0  0  0
   -5.1893   -0.0120   -2.0079 H   0  0  0  0  0  0  0  0  0  0  0  0
    1.3603   -0.5664   -0.1404 H   0  0  0  0  0  0  0  0  0  0  0  0
   -0.2934   -1.0254   -0.5461 H   0  0  0  0  0  0  0  0  0  0  0  0
   -3.6829    2.5427    0.3467 H   0  0  0  0  0  0  0  0  0  0  0  0
   -4.6756    1.0771    0.3349 H   0  0  0  0  0  0  0  0  0  0  0  0
   -2.8222    1.9190   -1.9736 H   0  0  0  0  0  0  0  0  0  0  0  0
   -4.5276    2.3276   -1.8903 H   0  0  0  0  0  0  0  0  0  0  0  0
   -0.3047   -0.0287    1.6558 H   0  0  0  0  0  0  0  0  0  0  0  0
    0.5935    1.3923    1.1063 H   0  0  0  0  0  0  0  0  0  0  0  0
   -1.3333    2.2477    0.0971 H   0  0  0  0  0  0  0  0  0  0  0  0
  1  3  1  0  0  0  0
  1  4  2  0  0  0  0
  1 21  1  0  0  0  0
  2  5  1  0  0  0  0
  2  6  2  0  0  0  0
  2 22  1  0  0  0  0
  3  7  2  0  0  0  0
  3 23  1  0  0  0  0
  4  8  1  0  0  0  0
  4 24  1  0  0  0  0
  5  9  2  0  0  0  0
  5 25  1  0  0  0  0
  6 10  1  0  0  0  0
  6 26  1  0  0  0  0
  7 11  1  0  0  0  0
  7 27  1  0  0  0  0
  8 11  2  0  0  0  0
  8 28  1  0  0  0  0
  9 12  1  0  0  0  0
  9 29  1  0  0  0  0
 10 12  2  0  0  0  0
 10 30  1  0  0  0  0
 11 14  1  0  0  0  0
 12 15  1  0  0  0  0
 13 16  1  0  0  0  0
 13 19  1  0  0  0  0
 13 20  2  0  0  0  0
 14 17  1  0  0  0  0
 14 31  1  0  0  0  0
 14 32  1  0  0  0  0
 15 18  1  0  0  0  0
 15 33  1  0  0  0  0
 15 34  1  0  0  0  0
 16 17  1  0  0  0  0
 16 35  1  0  0  0  0
 16 36  1  0  0  0  0
 17 37  1  0  0  0  0
 17 38  1  0  0  0  0
 18 19  1  0  0  0  0
 18 39  1  0  0  0  0
 18 40  1  0  0  0  0
 19 41  1  0  0  0  0
M  END
$$$$
