35
-1 1 C16H17O2
C                    -0.563162230581     0.307330417978    -0.853088724489
C                    -1.410345004017     0.842821162571    -1.547551949779
C                     1.541827638804    -0.962053149135    -0.629381154220
C                     0.336399498020    -0.317501225134     1.359511203973
C                     0.431777075529    -0.324896492528    -0.043004236913
C                     2.516401395915    -1.588416982526     0.147706715931
C                     1.298034411947    -0.937025527745     2.160405026422
C                     2.392365999017    -1.607659278809     1.560741914009
C                     4.605188658167    -1.259813175003     2.795335894888
C                    -3.180506142679     0.608989934836    -3.395266083039
C                    -3.894441395955     1.088019312588    -2.154827027654
C                    -2.429242459083     1.451666848991    -2.369702968950
C                     3.708540309407    -2.231163607890    -0.526999884578
C                     0.351328645488    -2.085339815602     4.221990717341
C                     3.442998841128    -2.278536313804     2.401594881322
C                     1.137222876399    -0.882416365809     3.667919439025
O                     4.428119158258    -0.654454581190     3.884514692954
O                     5.548957977950    -1.181581960433     1.966277218663
H                     1.639461866068    -0.953138762139    -1.712726990646
H                    -0.502801288081     0.193861176530     1.827007540134
H                    -2.909716326575    -0.440115527216    -3.453901913124
H                    -3.425679611871     1.076463553420    -4.345331278103
H                    -4.628529791787     1.883110272997    -2.255630735362
H                    -4.105389027270     0.362033662330    -1.376468878193
H                    -2.245124054139     2.484042415862    -2.662688123011
H                     4.637709624656    -1.897893044756    -0.052971162674
H                     3.670828828870    -3.325915208204    -0.440300755115
H                     3.729443132027    -1.982595456308    -1.593556859606
H                    -0.655854133201    -2.131756642262     3.789880715262
H                     0.253798835471    -2.022273967914     5.313070616287
H                     0.855337611215    -3.028174132171     3.984181685680
H                     3.008789931728    -2.668138870535     3.323507203182
H                     3.890252296861    -3.111606920593     1.855133943894
H                     2.123624966569    -0.814279889170     4.136377840522
H                     0.599138729548     0.037382787404     3.929100286001
