41
0 1 C18H21NO
C                    -9.756777403674    -0.346603394628    -2.885420536100
C                     0.569529010316     4.302813455590     2.503858006860
C                    -9.763919274561    -0.454939236124    -1.490406753686
C                    -8.755777827854     0.402148041328    -3.512717700504
C                    -0.692342695788     3.865425905688     2.919406503238
C                     1.516786608062     3.366006044108     2.075404772768
C                    -8.776386406777     0.180401210211    -0.732369056741
C                    -7.770697791693     1.035557218391    -2.748397833967
C                    -1.003761261723     2.501763872717     2.902394937611
C                     1.199484401186     2.004566809427     2.059836463899
C                    -7.766802380659     0.934535965931    -1.349522481403
C                    -0.063503736538     1.552302749315     2.472977225135
C                    -3.329830611553     0.237160038146     0.976113504042
C                    -6.671098684708     1.575134279989    -0.527851838720
C                    -0.431522811171     0.090442756597     2.381302940874
C                    -4.394389148845     1.252861045897     0.582853644855
C                    -5.517075389681     0.599722607807    -0.236165290826
C                    -0.921930372094    -0.295253890224     0.968710463034
N                    -2.062679219750     0.496952292371     0.525131984276
O                    -3.602099086369    -0.767611825046     1.635144886009
H                   -10.525157302983    -0.837979757313    -3.476806443795
H                     0.815058578728     5.361552160129     2.519670610389
H                   -10.539827587542    -1.032288146796    -0.993670482036
H                    -8.744058579386     0.495371560666    -4.595957844365
H                    -1.432507120228     4.584974469727     3.260897866090
H                     2.502926803139     3.695838008435     1.757909400334
H                    -8.788825119289     0.091572571109     0.352334516113
H                    -6.996471431434     1.618725628434    -3.243734738818
H                    -1.984077030788     2.166731260599     3.234126722209
H                     1.943360426956     1.282390504821     1.727947836467
H                    -7.081530905309     1.934673369197     0.423780853327
H                    -6.280452627560     2.454583697347    -1.054155521884
H                    -1.224229505447    -0.151890533836     3.094470781359
H                     0.432267268254    -0.538846500708     2.624812449369
H                    -3.960155436909     2.094451151773     0.030010883184
H                    -4.810941801314     1.655093406322     1.513921161093
H                    -5.893721037117    -0.269175047721     0.311388974345
H                    -5.111813563809     0.222759432877    -1.182813662725
H                    -0.117204258869    -0.161734589940     0.239257273268
H                    -1.223541104106    -1.344652119568     0.960489335226
H                    -1.873878601928     1.424079697976     0.167671513735
