36
0 1 C16H18O2
C                    -0.354741647993     0.040876563519    -0.335731178954
C                    -1.289843251444     0.523435204009    -0.947455234851
C                     1.767319028407    -1.210412445055    -0.275487226951
C                     0.821749056162    -0.382753955854     1.786609654445
C                     0.739844325146    -0.520596252942     0.391920818590
C                     2.841230471267    -1.761980963878     0.423708869351
C                     1.885155881589    -0.928562200819     2.509974977909
C                     2.892365182640    -1.639606871207     1.828482912656
C                     5.279372151127    -1.326741518903     2.667720809955
C                    -2.097092402234     1.823153341422    -3.007717850449
C                    -2.776241858184     0.480277071779    -3.039304491072
C                    -2.381243450772     1.091766924427    -1.697882342195
C                     3.940881813335    -2.463070805497    -0.342438537142
C                     1.230169286799    -1.923392835096     4.759614490603
C                     4.053164369596    -2.241343019467     2.584646422675
C                     1.897088679520    -0.751662302206     4.015867203064
O                     5.379464956879    -0.237289554269     2.161582699721
O                     6.323551491942    -1.846590653000     3.386452102126
H                     1.721255930254    -1.304173984155    -1.356900492329
H                     0.042631299274     0.167225099840     2.307903886836
H                    -1.059632426638     1.879326158514    -3.320031911227
H                    -2.689070215806     2.709414010329    -3.216073328365
H                    -3.836605009757     0.440180293215    -3.270367772739
H                    -2.200387714380    -0.376080348589    -3.374277496669
H                    -3.195243145901     1.490824290381    -1.097741705559
H                     4.914355982537    -1.996515616296    -0.157741577462
H                     4.022229987511    -3.521961844279    -0.067938014017
H                     3.752611526330    -2.420201566982    -1.417837465390
H                     0.187200311852    -2.033149157563     4.446099282225
H                     1.247275887361    -1.761952801067     5.842949182557
H                     1.732268928233    -2.874469943989     4.550661582200
H                     4.377488467010    -3.176801246025     2.114259815841
H                     3.765250701752    -2.508277578504     3.605814518942
H                     2.918890476081    -0.608064393311     4.381771278097
H                     1.363179444522     0.171170359367     4.264056056296
H                     6.087463402779    -2.726923140120     3.725633177821
