18
0 1 BrC8H6N3
C                     0.389919856678    -0.160866718148     1.118346172776
C                    -1.807149805463    -2.789437944995    -1.649403169068
C                     0.496750400682    -3.008068917194    -2.237227931098
C                    -0.801476224304    -3.518917953462    -2.285944022155
C                    -0.260537150525    -1.234530098606    -1.015389512877
C                     0.745712450612     1.175350422518    -1.013117257685
C                    -0.704734412071     1.311406672435    -0.639212949288
C                     0.050058650683     0.041177353137    -0.273755097647
N                     0.664021533647    -0.317494419915     2.239357869371
N                    -1.536310670043    -1.644935352337    -1.013576853384
N                     0.767552827079    -1.863594355053    -1.601369224478
Br                   -1.187795617450    -5.147652810083    -3.194231295573
H                    -2.840958114340    -3.128649421920    -1.651349138883
H                     1.327041715843    -3.524143938258    -2.714839717188
H                     1.002353380462     0.970747319036    -2.047360227431
H                     1.482662081163     1.746670216141    -0.459209172329
H                    -0.973189826412     1.977088975840     0.173875164011
H                    -1.457083766217     1.201418120549    -1.413318424305
