
  -OEChem-05262117483D

 32 34  0     0  0  0  0  0  0999 V2000
    6.7837   -3.1651    5.0852 C   0  0  0  0  0  0  0  0  0  0  0  0
    7.6779    3.4360    4.9093 C   0  0  0  0  0  0  0  0  0  0  0  0
    8.0450    4.4119    3.9789 C   0  0  0  0  0  0  0  0  0  0  0  0
    6.4302   -7.5972    4.2553 C   0  0  0  0  0  0  0  0  0  0  0  0
    7.6090    2.1036    4.5108 C   0  0  0  0  0  0  0  0  0  0  0  0
    8.3376    4.0419    2.6643 C   0  0  0  0  0  0  0  0  0  0  0  0
    6.5742   -6.1951    4.3935 C   0  0  0  0  0  0  0  0  0  0  0  0
    6.7021   -8.0419    2.9779 C   0  0  0  0  0  0  0  0  0  0  0  0
    7.9032    1.7261    3.1865 C   0  0  0  0  0  0  0  0  0  0  0  0
    8.2762    2.7082    2.2355 C   0  0  0  0  0  0  0  0  0  0  0  0
    6.9588   -5.5693    3.2107 C   0  0  0  0  0  0  0  0  0  0  0  0
    7.7995    0.2919    2.8726 C   0  0  0  0  0  0  0  0  0  0  0  0
    7.4530   -1.7648    3.1896 C   0  0  0  0  0  0  0  0  0  0  0  0
    7.2174   -4.1958    2.8924 C   0  0  0  0  0  0  0  0  0  0  0  0
    7.1495   -3.0943    3.7035 C   0  0  0  0  0  0  0  0  0  0  0  0
    8.6068    2.3870    0.7987 C   0  0  0  0  0  0  0  0  0  0  0  0
    6.4815   -3.2629    6.2065 N   0  0  0  0  0  0  0  0  0  0  0  0
    7.4312   -0.6354    3.8389 N   0  0  0  0  0  0  0  0  0  0  0  0
    8.0353   -0.2466    1.6883 N   0  0  0  0  0  0  0  0  0  0  0  0
    7.8049   -1.6270    1.8931 O   0  0  0  0  0  0  0  0  0  0  0  0
    7.1378   -6.7544    1.9263 S   0  0  0  0  0  0  0  0  0  0  0  0
    7.4474    3.7092    5.9353 H   0  0  0  0  0  0  0  0  0  0  0  0
    8.1039    5.4569    4.2728 H   0  0  0  0  0  0  0  0  0  0  0  0
    6.1373   -8.2580    5.0641 H   0  0  0  0  0  0  0  0  0  0  0  0
    7.3262    1.3321    5.2185 H   0  0  0  0  0  0  0  0  0  0  0  0
    8.6224    4.8072    1.9464 H   0  0  0  0  0  0  0  0  0  0  0  0
    6.4037   -5.6626    5.3202 H   0  0  0  0  0  0  0  0  0  0  0  0
    6.6672   -9.0586    2.6069 H   0  0  0  0  0  0  0  0  0  0  0  0
    7.5089   -3.9929    1.8643 H   0  0  0  0  0  0  0  0  0  0  0  0
    9.4457    1.6887    0.7259 H   0  0  0  0  0  0  0  0  0  0  0  0
    7.7664    1.9041    0.2914 H   0  0  0  0  0  0  0  0  0  0  0  0
    8.8643    3.3003    0.2561 H   0  0  0  0  0  0  0  0  0  0  0  0
  1 15  1  0  0  0  0
  1 17  3  0  0  0  0
  2  3  1  0  0  0  0
  2  5  2  0  0  0  0
  2 22  1  0  0  0  0
  3  6  2  0  0  0  0
  3 23  1  0  0  0  0
  4  7  1  0  0  0  0
  4  8  2  0  0  0  0
  4 24  1  0  0  0  0
  5  9  1  0  0  0  0
  5 25  1  0  0  0  0
  6 10  1  0  0  0  0
  6 26  1  0  0  0  0
  7 11  2  0  0  0  0
  7 27  1  0  0  0  0
  8 21  1  0  0  0  0
  8 28  1  0  0  0  0
  9 10  2  0  0  0  0
  9 12  1  0  0  0  0
 10 16  1  0  0  0  0
 11 14  1  0  0  0  0
 11 21  1  0  0  0  0
 12 18  1  0  0  0  0
 12 19  2  0  0  0  0
 13 15  1  0  0  0  0
 13 18  2  0  0  0  0
 13 20  1  0  0  0  0
 14 15  2  0  0  0  0
 14 29  1  0  0  0  0
 16 30  1  0  0  0  0
 16 31  1  0  0  0  0
 16 32  1  0  0  0  0
 19 20  1  0  0  0  0
M  END
$$$$
