25
0 1 BrC10FH10O3
C                    -1.318153591911    -1.619598781415    -1.343322392490
C                    -1.744198561684    -2.278151781892    -0.188371894321
C                    -2.717831198294    -0.203556639673     0.611600328974
C                    -1.578771606006    -0.261022088521    -1.551922810661
C                    -2.295438255080     0.416759915307    -0.556679486952
C                    -2.437105884264    -1.558983976732     0.785211354180
C                     1.800412448220     3.375343190778    -1.087784040400
C                     0.850594950425     2.672089675839    -0.121555778324
C                     0.839487700693     1.526121992572    -2.097081374181
C                    -0.535437234194     1.569049795129    -2.762980031688
O                     1.478716387711     2.776784121947    -2.352794582296
O                     0.766193561328     1.358724481505    -0.688891587232
O                    -1.186072113734     0.286836485297    -2.745628998881
F                    -2.595078701583     1.734744043508    -0.718296557217
Br                   -3.025827225950    -2.435033621015     2.385081880004
H                    -0.767596918124    -2.153331070138    -2.112191362668
H                    -1.530040798531    -3.332199235206    -0.048426625831
H                    -3.263830645568     0.371539494820     1.351525210766
H                     1.635737172894     4.452922064546    -1.163533122805
H                     2.849611278299     3.177325888187    -0.836399644746
H                     1.237119447366     2.575134076014     0.894527951552
H                    -0.137066004703     3.150052449298    -0.096546365922
H                     1.436077097861     0.694714309293    -2.490907077267
H                    -0.405519651592     1.801170976125    -3.821720101504
H                    -1.153255104346     2.342510912224    -2.303891818686
