21
0 1 C8H11NS
C                    -1.591480235937     4.016359708294     0.496291688708
C                    -2.893396580775     3.734130213335     0.178986370270
C                    -0.821975348213     2.847729095504     0.822008982716
C                    -1.577620571488     1.698162483319     0.744220721222
C                    -1.335014532536    -1.288929034312    -1.071109973415
C                    -0.704381022238    -0.317804740015    -0.404291087321
C                     0.645743170696     2.910082326701     1.164489547112
C                    -1.136607744934     0.264558151187     0.928403728120
N                    -2.223872434944    -0.519769461176     1.526668817843
S                    -3.223468209460     2.036149904562     0.267406336396
H                    -1.183949747987     5.023173814513     0.510655140446
H                    -3.682662924668     4.428841728572    -0.080238949950
H                    -0.964358594322    -1.640093851827    -2.030713635327
H                    -2.248175644484    -1.737833745196    -0.690660203305
H                     0.191014356598     0.139585031104    -0.823758156819
H                     0.874772496252     3.822413731117     1.724224243982
H                     0.964308010272     2.058132873121     1.771498872192
H                     1.266167725453     2.918235656325     0.260013482049
H                    -0.236584690224     0.291256400907     1.566015339542
H                    -2.481385295377    -0.112426799385     2.423550607838
H                    -1.902955788966    -1.470489867587     1.703011307641
