32
0 1 C16H11N3OS
C                     6.684222909253    -4.261179824695     2.652853676765
C                     6.726520265957     2.974231976942     5.932330885929
C                     7.303833991635     4.051030049736     5.253901645454
C                     4.665079135668    -7.152545687924     5.489075940826
C                     6.729189615728     1.713968519759     5.340310769930
C                     7.874648929032     3.851580005138     3.995178967096
C                     5.275858414449    -6.158013890601     4.687478958282
C                     4.196630730328    -6.661963408560     6.690716680935
C                     7.302953996393     1.507354294163     4.071369547339
C                     7.891003907451     2.593232375836     3.375955665774
C                     5.271595675054    -4.900138853590     5.285291754952
C                     7.251206868233     0.136180728272     3.537047861039
C                     6.824314590494    -1.926800588163     3.455744195957
C                     5.768722220189    -3.629867237158     4.848703574853
C                     6.405076035591    -3.305813020120     3.679794509014
C                     8.527198392887     2.459604636558     2.014304612039
N                     6.896844370420    -5.064496701966     1.835187926589
N                     6.672746367914    -0.902593691764     4.251088986799
N                     7.732558100958    -0.236449125606     2.362292090828
O                     7.448828415064    -1.616697249851     2.304148014541
S                     4.495338946506    -4.978182437797     6.859412274284
H                     6.278850480053     3.114620584808     6.912400772803
H                     7.310931252883     5.042022408243     5.700631988347
H                     4.571548503044    -8.192706673963     5.196109847728
H                     6.286028086277     0.866747687897     5.851630779207
H                     8.322147092182     4.694159730607     3.473772422133
H                     5.702408695540    -6.351787996312     3.711724702065
H                     3.693400771664    -7.206805455315     7.479672043257
H                     5.629661836539    -2.792574547659     5.529681052310
H                     9.346710347099     1.735226250950     2.022783099892
H                     7.811795011525     2.096680464234     1.270630435624
H                     8.917038872984     3.425418462917     1.682576849187
