24
0 1 C8H12N2O2
C                     1.174880380861     0.049766555446     1.472231797254
C                    -0.237673784550    -1.991483728410     1.255598183269
C                    -1.137940017355     0.265858143798     0.617675606150
C                     0.663131261783    -0.831805883839    -0.783224129709
C                    -0.885000528632     1.556548555039    -0.161991256763
C                     0.842439631094     0.503762025182    -1.505614655833
C                     0.139017006994    -0.623705924431     0.668141135898
C                     0.132453151083    -3.571362695938     2.969763466989
N                     1.988478462237     0.642014947910     2.054265233307
N                    -0.431172003722     1.231133220131    -1.518257757750
O                    -1.072532571094    -2.712070802725     0.746493098125
O                     0.445770844067    -2.292846244558     2.370998437096
H                    -1.470780195372     0.494268601898     1.634771456235
H                    -1.915800343356    -0.318292604360     0.119824977254
H                    -0.079701237111    -1.437304762531    -1.308316801410
H                     1.608513677750    -1.382412437870    -0.760355651882
H                    -1.823394857900     2.115796043742    -0.232242780627
H                    -0.164735802615     2.184517213572     0.390990339841
H                     1.656373083820     1.074644861307    -1.025488881110
H                     1.143242140168     0.307787563586    -2.539727045811
H                     0.774248776206    -3.641227909855     3.846902935863
H                     0.345005935631    -4.378786681586     2.265906795866
H                    -0.921350499707    -3.605520830882     3.254187036500
H                    -0.327592502247     2.088001920937    -2.056482168313
