
  -OEChem-05262117483D

 21 21  0     1  0  0  0  0  0999 V2000
   -1.5915    4.0164    0.4963 C   0  0  0  0  0  0  0  0  0  0  0  0
   -2.8934    3.7341    0.1790 C   0  0  0  0  0  0  0  0  0  0  0  0
   -0.8220    2.8477    0.8220 C   0  0  0  0  0  0  0  0  0  0  0  0
   -1.5776    1.6982    0.7442 C   0  0  0  0  0  0  0  0  0  0  0  0
   -1.3350   -1.2889   -1.0711 C   0  0  0  0  0  0  0  0  0  0  0  0
   -0.7044   -0.3178   -0.4043 C   0  0  0  0  0  0  0  0  0  0  0  0
    0.6457    2.9101    1.1645 C   0  0  0  0  0  0  0  0  0  0  0  0
   -1.1366    0.2646    0.9284 C   0  0  2  0  0  0  0  0  0  0  0  0
   -2.2239   -0.5198    1.5267 N   0  0  0  0  0  0  0  0  0  0  0  0
   -3.2235    2.0361    0.2674 S   0  0  0  0  0  0  0  0  0  0  0  0
   -1.1839    5.0232    0.5107 H   0  0  0  0  0  0  0  0  0  0  0  0
   -3.6827    4.4288   -0.0802 H   0  0  0  0  0  0  0  0  0  0  0  0
   -0.9644   -1.6401   -2.0307 H   0  0  0  0  0  0  0  0  0  0  0  0
   -2.2482   -1.7378   -0.6907 H   0  0  0  0  0  0  0  0  0  0  0  0
    0.1910    0.1396   -0.8238 H   0  0  0  0  0  0  0  0  0  0  0  0
    0.8748    3.8224    1.7242 H   0  0  0  0  0  0  0  0  0  0  0  0
    0.9643    2.0581    1.7715 H   0  0  0  0  0  0  0  0  0  0  0  0
    1.2662    2.9182    0.2600 H   0  0  0  0  0  0  0  0  0  0  0  0
   -0.2366    0.2913    1.5660 H   0  0  0  0  0  0  0  0  0  0  0  0
   -2.4814   -0.1124    2.4236 H   0  0  0  0  0  0  0  0  0  0  0  0
   -1.9030   -1.4705    1.7030 H   0  0  0  0  0  0  0  0  0  0  0  0
  1  2  2  0  0  0  0
  1  3  1  0  0  0  0
  1 11  1  0  0  0  0
  2 10  1  0  0  0  0
  2 12  1  0  0  0  0
  3  4  2  0  0  0  0
  3  7  1  0  0  0  0
  4  8  1  0  0  0  0
  4 10  1  0  0  0  0
  5  6  2  0  0  0  0
  5 13  1  0  0  0  0
  5 14  1  0  0  0  0
  6  8  1  0  0  0  0
  6 15  1  0  0  0  0
  7 16  1  0  0  0  0
  7 17  1  0  0  0  0
  7 18  1  0  0  0  0
  8  9  1  0  0  0  0
  8 19  1  0  0  0  0
  9 20  1  0  0  0  0
  9 21  1  0  0  0  0
M  END
$$$$
