25
0 1 BrC10FH10O3
C                    -3.263875853177     1.456093442817    -2.860807673223
C                    -4.610730048456     1.262187598440    -3.195719638229
C                    -4.392935668384    -1.103084299845    -2.696487179467
C                    -2.466990352303     0.384661147564    -2.441417503757
C                    -3.063749557147    -0.887303666606    -2.370419903527
C                    -5.163211853059    -0.011332430510    -3.111086353096
C                     2.360894417396     3.133618718726    -0.858114548005
C                     1.518210967901     2.554605376390     0.272651546200
C                     0.918839744346     1.548459795618    -1.702621759130
C                    -0.524796263670     1.735512937995    -2.152415397768
O                     1.616529759972     2.750253631986    -2.022247202130
O                     1.036879198315     1.334246336563    -0.302405302177
O                    -1.154467385834     0.458395387739    -2.094121834211
F                    -2.307052927547    -1.932453613677    -1.970760741373
Br                   -7.004266815009    -0.286725331624    -3.567193478032
H                    -2.846525069180     2.453661606058    -2.933249821403
H                    -5.214029259194     2.103628867933    -3.518912508229
H                    -4.803696767330    -2.104253693924    -2.624320055266
H                     2.438868367173     4.222914517873    -0.847618418575
H                     3.363662593414     2.688085872110    -0.882036178442
H                     2.084314550631     2.305247232027     1.172376531262
H                     0.684707520613     3.220354604838     0.535116759184
H                     1.365408338933     0.681364845759    -2.205021348790
H                    -0.531400580471     2.124859415291    -3.178014278945
H                    -1.025661324088     2.450869455423    -1.488727383349
