39
0 1 C15H19NO4
C                     0.844543846063    -3.098055507161    -1.553416884306
C                     1.254227349704    -4.385468226509    -1.929857464989
C                     2.676057510066    -2.976883054224     0.012496096488
C                     1.549673685805    -2.388608486273    -0.583734920706
C                     2.375414611423    -4.973837458972    -1.344794965664
C                     3.097424664424    -4.255278869075    -0.357020782489
C                     1.227357223226     0.113986109997     1.861104840866
C                     7.307012436342    -4.502634204699     2.181161939009
C                     7.323740299482    -5.157297249959     0.816158658772
C                    -0.306008750268    -1.027602663603     0.524381378153
C                     6.045861570143    -5.126816002320     1.621268944069
C                     1.084533167209    -1.005039896742    -0.170055430610
C                     1.124962089141    -0.005533145708    -1.330029005865
C                     2.164108642468    -6.967279402358    -2.635529901876
C                     4.922830422184    -4.225355247214     1.194343105911
N                    -0.113298386002    -0.008580814850     1.545901117969
O                     1.720555045622     0.665411793307     2.820255124911
O                     1.961180517151    -0.488694122158     0.873606448977
O                     2.855393968104    -6.216486612394    -1.645413500989
O                     4.181361189620    -4.893893361272     0.163829909440
H                    -0.033351515413    -2.668066457926    -2.028878295299
H                     0.688266586612    -4.918353170224    -2.685400662898
H                     3.213919132609    -2.416225239461     0.764474068775
H                     7.801471748414    -5.009515343239     3.004214115220
H                     7.361893891703    -3.418168528752     2.226659521353
H                     7.380077690687    -4.513745031669    -0.057304203261
H                     7.833840168989    -6.109462140818     0.707189291610
H                    -1.105331509080    -0.761821266376    -0.172906409875
H                    -0.516420282735    -2.014871535460     0.952465103674
H                     5.725505423374    -6.066282518702     2.064405808569
H                     0.757832683111     0.971644570747    -1.001018938415
H                     0.506146344232    -0.352839991477    -2.161735171550
H                     2.152626523600     0.102382333288    -1.685288019833
H                     2.704723325324    -7.910515528476    -2.724530470654
H                     2.168597986127    -6.453343336747    -3.605294660542
H                     1.127834648253    -7.169845813883    -2.335770448710
H                     5.318752709504    -3.275157456216     0.810864526535
H                     4.256906284794    -4.002298162739     2.038782958068
H                    -0.763256220343     0.102673301377     2.313550027754
