52
-1 1 C26FH21NO3
C                    -1.402170004586     1.905781267181     0.290186034163
C                    -1.665488425863     0.700316491460    -0.392390357529
C                    -3.614439446004     4.449140040313     5.188530977008
C                    -1.963535043524     2.164603052735     1.542248382312
C                    -3.558243958960     3.505656428598     4.156901899262
C                    -2.738134463134    -3.308482475727     3.506162094465
C                    -2.718896585480    -3.995680526548     1.189292813241
C                    -2.491033312491    -0.274188583742     0.175028368156
C                    -3.683656677135     4.054190036741     6.525249248492
C                    -1.751169106157    -4.253053371982     3.795350873007
C                    -1.732068899247    -4.951723794226     1.462317630461
C                    -3.607407527558     1.733441362677     5.806062916838
C                    -2.812977255480     1.209741961654     2.132274585040
C                    -3.556052239248     2.129809979224     4.455321316977
C                    -3.509495699221     1.109646510016     3.397568601876
C                    -3.231543437820    -3.171950061572     2.196882640332
C                    -3.057692446624    -0.005356358185     1.424362236273
C                    -3.694338759437     2.682482832676     6.825439658287
C                    -1.268351338170    -5.057306083274     2.766760256719
C                    -4.144005845346    -0.131009926076     3.410924447286
C                    -5.030982141762    -0.835502504162     4.447652105124
C                    -4.816263101509    -0.457876365439    10.420000620582
C                    -5.555137524204     0.865550525002    10.439897921833
C                    -4.130835503006     0.802975049960     9.938063805648
C                    -4.302807962731    -2.140318512568     1.889181200337
C                    -3.860344740819     0.947486239344     8.466208888404
N                    -3.888764483382    -0.783034440846     2.209535939494
O                    -4.442268975863    -1.192390034537     5.509531259445
O                    -6.216333457926    -1.032110242709     4.087728177081
O                    -3.795532708880     2.348529593898     8.156643755066
F                    -0.302996255535    -5.985260497608     3.049180403644
H                    -0.740978050277     2.641648629793    -0.162895864037
H                    -1.210975389064     0.519054669767    -1.363821489940
H                    -3.623753345920     5.510208812654     4.945651819115
H                    -1.725617673413     3.086999333613     2.063741204327
H                    -3.562393131634     3.835435162989     3.122883893332
H                    -3.127202529715    -2.675923765818     4.302735433702
H                    -3.088867657257    -3.892737244249     0.171019967204
H                    -2.669768058997    -1.216301875195    -0.335964678398
H                    -3.744746428949     4.777535648354     7.334039918955
H                    -1.360533505551    -4.370463480786     4.802032944219
H                    -1.324562367149    -5.594343872152     0.687291471766
H                    -3.604625034408     0.671274399454     6.016498315197
H                    -4.496030041359    -0.883737731887    11.367110403258
H                    -5.105711293303    -1.188981731126     9.670103986932
H                    -6.335365685384     1.021164286191     9.700165866924
H                    -5.740330381140     1.337852875050    11.400945941190
H                    -3.367681112234     1.224051807740    10.589220284581
H                    -4.566501983407    -2.180014238308     0.827294928582
H                    -5.213061330574    -2.335680038784     2.460834936530
H                    -4.649371753736     0.462477603620     7.879986623137
H                    -2.910555284125     0.467491896365     8.195018538069
