
  -OEChem-05262117483D

 66 70  0     0  0  0  0  0  0999 V2000
   -2.2170    4.3973  -10.9272 C   0  0  0  0  0  0  0  0  0  0  0  0
   -1.6068   -0.9729   -6.5082 C   0  0  0  0  0  0  0  0  0  0  0  0
   -2.3534    3.0071  -10.9439 C   0  0  0  0  0  0  0  0  0  0  0  0
   -1.6738   -1.3099   -5.1565 C   0  0  0  0  0  0  0  0  0  0  0  0
    0.7206   -0.3840   -6.2696 C   0  0  0  0  0  0  0  0  0  0  0  0
   -0.9774    4.9399  -10.5786 C   0  0  0  0  0  0  0  0  0  0  0  0
   -0.0493    2.8641  -10.2950 C   0  0  0  0  0  0  0  0  0  0  0  0
   -0.4150   -0.5040   -7.0768 C   0  0  0  0  0  0  0  0  0  0  0  0
   -1.2513    2.2109  -10.6176 C   0  0  0  0  0  0  0  0  0  0  0  0
   -0.5412   -1.1879   -4.3421 C   0  0  0  0  0  0  0  0  0  0  0  0
    0.6531   -0.7162   -4.9227 C   0  0  0  0  0  0  0  0  0  0  0  0
    0.3261   -0.9898   -2.0782 C   0  0  0  0  0  0  0  0  0  0  0  0
   -0.2516   -0.1268   -8.5242 C   0  0  0  0  0  0  0  0  0  0  0  0
    3.0121   -0.9546   -4.3563 C   0  0  0  0  0  0  0  0  0  0  0  0
    1.3650   -0.0633   -2.7117 C   0  0  0  0  0  0  0  0  0  0  0  0
    8.1646   -4.2808   -2.4286 C   0  0  0  0  0  0  0  0  0  0  0  0
    7.1591   -3.6697   -1.4447 C   0  0  0  0  0  0  0  0  0  0  0  0
    7.5328   -4.4994   -3.8090 C   0  0  0  0  0  0  0  0  0  0  0  0
   -1.2684   -3.6400   -1.7021 C   0  0  0  0  0  0  0  0  0  0  0  0
   -1.8762   -3.7382   -3.0787 C   0  0  0  0  0  0  0  0  0  0  0  0
    6.5556   -2.3650   -1.9935 C   0  0  0  0  0  0  0  0  0  0  0  0
    6.9290   -3.1983   -4.3641 C   0  0  0  0  0  0  0  0  0  0  0  0
   -1.6319   -2.3842   -2.4503 C   0  0  0  0  0  0  0  0  0  0  0  0
    5.9296   -2.6123   -3.3657 C   0  0  0  0  0  0  0  0  0  0  0  0
   -1.3413    0.6995  -10.5791 C   0  0  0  0  0  0  0  0  0  0  0  0
    4.1301   -0.7738   -3.2998 C   0  0  0  0  0  0  0  0  0  0  0  0
    0.0944    4.1945  -10.2675 N   0  0  0  0  0  0  0  0  0  0  0  0
   -0.5602   -1.5576   -2.9739 N   0  0  0  0  0  0  0  0  0  0  0  0
    1.7659   -0.5574   -4.0309 N   0  0  0  0  0  0  0  0  0  0  0  0
   -1.3974    0.1707   -9.2097 N   0  0  0  0  0  0  0  0  0  0  0  0
    5.3714   -1.3165   -3.9420 N   0  3  0  0  0  0  0  0  0  0  0  0
    0.3092   -1.1769   -0.8720 O   0  0  0  0  0  0  0  0  0  0  0  0
    0.8666   -0.1007   -9.0413 O   0  0  0  0  0  0  0  0  0  0  0  0
    3.3406   -1.4406   -5.4451 O   0  0  0  0  0  0  0  0  0  0  0  0
   -3.0484    5.0484  -11.1816 H   0  0  0  0  0  0  0  0  0  0  0  0
   -2.4944   -1.1111   -7.1185 H   0  0  0  0  0  0  0  0  0  0  0  0
   -3.3030    2.5494  -11.2154 H   0  0  0  0  0  0  0  0  0  0  0  0
   -2.6005   -1.6810   -4.7366 H   0  0  0  0  0  0  0  0  0  0  0  0
    1.6445   -0.0429   -6.7200 H   0  0  0  0  0  0  0  0  0  0  0  0
   -0.8355    6.0191  -10.5532 H   0  0  0  0  0  0  0  0  0  0  0  0
    0.8326    2.2748  -10.0496 H   0  0  0  0  0  0  0  0  0  0  0  0
    0.9362    0.9396   -2.8217 H   0  0  0  0  0  0  0  0  0  0  0  0
    2.2010    0.0016   -2.0207 H   0  0  0  0  0  0  0  0  0  0  0  0
    8.5390   -5.2307   -2.0355 H   0  0  0  0  0  0  0  0  0  0  0  0
    9.0335   -3.6167   -2.5238 H   0  0  0  0  0  0  0  0  0  0  0  0
    6.3510   -4.3856   -1.2476 H   0  0  0  0  0  0  0  0  0  0  0  0
    7.6357   -3.4639   -0.4820 H   0  0  0  0  0  0  0  0  0  0  0  0
    8.2740   -4.8784   -4.5182 H   0  0  0  0  0  0  0  0  0  0  0  0
    6.7460   -5.2612   -3.7409 H   0  0  0  0  0  0  0  0  0  0  0  0
   -1.8716   -3.8870   -0.8351 H   0  0  0  0  0  0  0  0  0  0  0  0
   -0.2129   -3.8646   -1.5973 H   0  0  0  0  0  0  0  0  0  0  0  0
   -1.2275   -4.0300   -3.8989 H   0  0  0  0  0  0  0  0  0  0  0  0
   -2.9077   -4.0613   -3.1788 H   0  0  0  0  0  0  0  0  0  0  0  0
    5.8189   -1.9663   -1.2870 H   0  0  0  0  0  0  0  0  0  0  0  0
    7.3501   -1.6121   -2.0944 H   0  0  0  0  0  0  0  0  0  0  0  0
    7.7340   -2.4710   -4.5398 H   0  0  0  0  0  0  0  0  0  0  0  0
    6.4376   -3.3842   -5.3262 H   0  0  0  0  0  0  0  0  0  0  0  0
   -2.4890   -1.8186   -2.0934 H   0  0  0  0  0  0  0  0  0  0  0  0
    5.0619   -3.2748   -3.2803 H   0  0  0  0  0  0  0  0  0  0  0  0
   -2.2340    0.3565  -11.1095 H   0  0  0  0  0  0  0  0  0  0  0  0
   -0.4701    0.2456  -11.0531 H   0  0  0  0  0  0  0  0  0  0  0  0
    3.9281   -1.3325   -2.3865 H   0  0  0  0  0  0  0  0  0  0  0  0
    4.2793    0.2756   -3.0420 H   0  0  0  0  0  0  0  0  0  0  0  0
   -2.2233    0.4012   -8.6716 H   0  0  0  0  0  0  0  0  0  0  0  0
    6.1147   -0.6122   -3.9608 H   0  0  0  0  0  0  0  0  0  0  0  0
    5.0592   -1.4948   -4.9291 H   0  0  0  0  0  0  0  0  0  0  0  0
  1  3  1  0  0  0  0
  1  6  2  0  0  0  0
  1 35  1  0  0  0  0
  2  4  2  0  0  0  0
  2  8  1  0  0  0  0
  2 36  1  0  0  0  0
  3  9  2  0  0  0  0
  3 37  1  0  0  0  0
  4 10  1  0  0  0  0
  4 38  1  0  0  0  0
  5  8  2  0  0  0  0
  5 11  1  0  0  0  0
  5 39  1  0  0  0  0
  6 27  1  0  0  0  0
  6 40  1  0  0  0  0
  7  9  1  0  0  0  0
  7 27  2  0  0  0  0
  7 41  1  0  0  0  0
  8 13  1  0  0  0  0
  9 25  1  0  0  0  0
 10 11  2  0  0  0  0
 10 28  1  0  0  0  0
 11 29  1  0  0  0  0
 12 15  1  0  0  0  0
 12 28  1  0  0  0  0
 12 32  2  0  0  0  0
 13 30  1  0  0  0  0
 13 33  2  0  0  0  0
 14 26  1  0  0  0  0
 14 29  1  0  0  0  0
 14 34  2  0  0  0  0
 15 29  1  0  0  0  0
 15 42  1  0  0  0  0
 15 43  1  0  0  0  0
 16 17  1  0  0  0  0
 16 18  1  0  0  0  0
 16 44  1  0  0  0  0
 16 45  1  0  0  0  0
 17 21  1  0  0  0  0
 17 46  1  0  0  0  0
 17 47  1  0  0  0  0
 18 22  1  0  0  0  0
 18 48  1  0  0  0  0
 18 49  1  0  0  0  0
 19 20  1  0  0  0  0
 19 23  1  0  0  0  0
 19 50  1  0  0  0  0
 19 51  1  0  0  0  0
 20 23  1  0  0  0  0
 20 52  1  0  0  0  0
 20 53  1  0  0  0  0
 21 24  1  0  0  0  0
 21 54  1  0  0  0  0
 21 55  1  0  0  0  0
 22 24  1  0  0  0  0
 22 56  1  0  0  0  0
 22 57  1  0  0  0  0
 23 28  1  0  0  0  0
 23 58  1  0  0  0  0
 24 31  1  0  0  0  0
 24 59  1  0  0  0  0
 25 30  1  0  0  0  0
 25 60  1  0  0  0  0
 25 61  1  0  0  0  0
 26 31  1  0  0  0  0
 26 62  1  0  0  0  0
 26 63  1  0  0  0  0
 30 64  1  0  0  0  0
 31 65  1  0  0  0  0
 31 66  1  0  0  0  0
M  CHG  1  31   1
M  END
$$$$
