65
0 1 C26H31N5O3
C                     7.766754955798     4.122658794333     6.326645363546
C                     5.999411108979     1.064180747098     1.373168791521
C                     6.606430996436     3.997895239010     5.564039316783
C                     6.354482820674     0.465843567563     0.165763242504
C                     5.006611017619     2.916637631109     0.180268704237
C                     7.980246495426     3.225965243256     7.380601581417
C                     6.010798753840     2.142891652630     6.960551125795
C                     5.313747174643     2.287536178796     1.391588910463
C                     5.697295880582     2.978408841459     5.881910664333
C                     6.007232977874     1.072466868451    -1.048185672683
C                     5.336531566211     2.312016578033    -1.029189941230
C                     6.471642718617     1.232833117252    -3.433126352332
C                     4.938315502062     2.999459749029     2.656742192620
C                     3.804776455772     3.412567680112    -2.589407086074
C                     6.128551912354     2.709762161308    -3.265167003237
C                     0.277465270198     5.978175799026    -7.628400547464
C                     1.709341664109     5.444690175677    -7.773761293818
C                    -0.499917542163     5.191826264043    -6.563494467747
C                     5.853722214546    -1.816697527621    -3.304917419442
C                     5.641945103245    -1.945405331743    -1.815849552892
C                     2.443571001000     5.434196385210    -6.425535783424
C                     0.244367087791     5.182658337661    -5.221496701068
C                     6.634529147425    -0.942264906016    -2.359936532559
C                     1.670618566082     4.637851624069    -5.363624560964
C                     4.436277118182     2.769958376234     5.069923123214
C                     3.598401016101     3.977380282118    -3.996198030109
N                     7.122898672282     2.248701387335     7.702863104818
N                     6.299306994613     0.463100312903    -2.293317196401
N                     5.062224944201     2.910368013602    -2.289066024820
N                     4.702573484212     2.206748181031     3.746873615501
N                     2.343659396108     4.701399679198    -4.064050925972
O                     6.878267339851     0.783839531054    -4.495556369546
O                     4.835364668405     4.228354110342     2.703948408800
O                     2.892828429662     3.398287129276    -1.769714079171
H                     8.495953066273     4.900140494039     6.115959272776
H                     6.309819496786     0.585806781780     2.298280582297
H                     6.399143747388     4.668134313835     4.733887445109
H                     6.897525379156    -0.471694838734     0.164563804146
H                     4.499066650698     3.872896369164     0.193650373496
H                     8.878186512839     3.298150417691     7.992837483972
H                     5.324738613942     1.343627124478     7.245086309363
H                     7.033047747477     3.243885003979    -2.944563307369
H                     5.852670247293     3.081596593046    -4.246433978922
H                    -0.245017462458     5.932551515783    -8.591290092932
H                     0.314740364748     7.037407971898    -7.338977877887
H                     1.674905600002     4.423275133573    -8.177642803269
H                     2.269074852824     6.047111275043    -8.498603741380
H                    -1.501336713177     5.617280523879    -6.430613572142
H                    -0.642388457061     4.158618280253    -6.909055192766
H                     6.405310212382    -2.588137298898    -3.832091757871
H                     5.075563967068    -1.336495831843    -3.887293688243
H                     4.719733177123    -1.551318278616    -1.400551637798
H                     6.040949387433    -2.812639222370    -1.298070935758
H                     3.449940672446     5.017393945222    -6.554137990234
H                     2.569401366996     6.459866255510    -6.054785238908
H                     0.304063701221     6.202210755360    -4.819560447043
H                    -0.307336344762     4.582707474556    -4.486064634338
H                     7.694590302855    -1.157445092458    -2.245170246018
H                     1.599884305599     3.588809075896    -5.718472600035
H                     3.753538570718     2.096892378540     5.596460173528
H                     3.921512937863     3.720051892862     4.913215547438
H                     3.634768328313     3.123485588987    -4.700356311076
H                     4.437053474068     4.633562118891    -4.258740936891
H                     4.795511993996     1.204707877682     3.660984259465
H                     1.736014121732     4.349177216359    -3.325853400305
