66
1 1 C26H32N5O3
C                     1.579117111098    -1.227797413997   -11.929272827584
C                    -0.904615349796    -0.486386639639    -5.637575575889
C                     0.920611514316    -0.317085127801   -11.103505072682
C                    -0.716260923615    -0.896368646853    -4.318042641244
C                     1.398663194837     0.217994795357    -5.775070521056
C                     0.853306597330    -2.298412495593   -12.464575359720
C                    -1.072015506749    -1.607140547556   -11.443241054182
C                     0.148536926181     0.061720192375    -6.382871987377
C                    -0.444230626169    -0.506154313641   -10.845875973183
C                     0.541511029675    -0.772644972375    -3.715628802189
C                     1.589203969582    -0.202366747672    -4.466144911848
C                     1.795061244220    -0.654684603940    -1.633823631058
C                     0.020587618214     0.553510006508    -7.799309953673
C                     4.010484375435    -0.423886630559    -4.301811326247
C                     2.639429980253     0.378561898660    -2.380005594149
C                     7.436798280277    -5.171074569143    -4.122910603309
C                     8.560616886259    -4.127863289243    -4.091953048554
C                     6.231496962105    -4.715468749653    -3.291219730845
C                     0.433471262827    -3.428643697472    -1.186333511401
C                    -0.421486155729    -3.464454394636    -2.428372994467
C                     8.055594604383    -2.747637559777    -4.545628080322
C                     5.717113874045    -3.339650230253    -3.749497974625
C                    -0.124391580787    -2.146948732593    -1.748111297980
C                     6.855791130506    -2.319276799403    -3.699048473655
C                    -1.215508363384     0.422053745913    -9.932812309219
C                     5.274898280609    -0.307366465529    -3.417788008003
N                    -0.451422742432    -2.494365753057   -12.232194241586
N                     0.788139545692    -1.221541338135    -2.393788591405
N                     2.833656521896    -0.035478130453    -3.771448748042
N                    -1.050018065194     0.091568480569    -8.510563612017
N                     6.376080617016    -0.957758219891    -4.199481741344
O                     2.019516473095    -0.927094490783    -0.465076027769
O                     0.843137695212     1.346245302813    -8.263793900937
O                     4.164016289976    -0.852697143936    -5.451377504507
H                     2.633720967791    -1.112852498396   -12.163849930598
H                    -1.901073198705    -0.563945142972    -6.062139860200
H                     1.443568273333     0.525208217545   -10.659124631153
H                    -1.544902227191    -1.307910488564    -3.754691462648
H                     2.202248227368     0.671233012505    -6.342789925231
H                     1.339594825883    -3.026161935828   -13.112432508704
H                    -2.137684384832    -1.778990941973   -11.282757952470
H                     2.126212743673     1.346673888727    -2.370366027995
H                     3.576502673562     0.491826025729    -1.841995114057
H                     7.808300743276    -6.129138256579    -3.747279774885
H                     7.122348994746    -5.340632451464    -5.160666754098
H                     8.965596279670    -4.048584885890    -3.075209768078
H                     9.389867267513    -4.432688778100    -4.736532018803
H                     5.415687750795    -5.440261269346    -3.366173719199
H                     6.510163501613    -4.665532698747    -2.230865411240
H                     0.019691446024    -3.774058898758    -0.245079884202
H                     1.499033829208    -3.594278169994    -1.299540688419
H                     0.070408768873    -3.656521030700    -3.376892859781
H                    -1.436838922541    -3.842178701023    -2.359530521345
H                     8.861707743995    -2.006671532406    -4.469326452241
H                     7.753008201890    -2.798197891622    -5.600041988855
H                     5.337917380782    -3.406745979363    -4.776007395153
H                     4.879397731651    -3.027515507632    -3.116121924056
H                    -0.922330546485    -1.661894344208    -1.191723816304
H                     7.170714045517    -2.152302630104    -2.663322982202
H                    -0.884401050229     1.453536262740   -10.059616673498
H                    -2.284487043832     0.378723234208   -10.158265375809
H                     5.175212861933    -0.813841524061    -2.458753576725
H                     5.531573876859     0.738602753699    -3.238450629198
H                    -1.516331314574    -0.744389862134    -8.182590424977
H                     7.182099626586    -0.331698113052    -4.283077018919
H                     5.953409289547    -1.074588503934    -5.151942209425
