32
0 1 C13ClFH13N3O
C                     2.098355389482    -0.684893917994     0.112943159924
C                     3.362648631669    -1.837155915468     1.808087258767
C                     0.963623937600    -0.714651192999     0.924185048020
C                     2.235712579238    -1.875940202256     2.633544291395
C                     3.469755898311    -5.116752850976    -1.164542538918
C                     2.451859847615    -3.529977863001    -2.097382719435
C                     3.310375765951    -1.248373824238     0.540508207110
C                     1.041763895561    -1.315227585901     2.182041076985
C                     5.936853197329     0.840112246221     0.575086725722
C                     6.541214810694     0.494639375202    -0.787068141760
C                     5.107151867132     0.197242708866    -0.481233337333
C                     4.254408023307    -1.762146215338    -1.763320306107
C                     4.562753286755    -1.225475913574    -0.342657277833
N                     2.293695986740    -4.809223880417    -1.777835224237
N                     4.339647512686    -4.112297441047    -1.096821064215
N                     3.670701831632    -3.092883651902    -1.712412474171
O                     5.619857532227    -1.983014220694     0.231602761958
F                     4.177719127467     1.024360463626    -1.115292232883
Cl                   -0.383154458334    -1.362557851803     3.207673179907
H                     2.028187433283    -0.196548301363    -0.853386751802
H                     4.295954011872    -2.268037496154     2.152826827758
H                     0.030224284477    -0.275585892042     0.586134088468
H                     2.284868956317    -2.337560411792     3.614828867514
H                     3.697816369188    -6.094878932369    -0.761416890319
H                     1.729536960922    -2.897515876103    -2.596708308095
H                     6.222074919534     0.231572059096     1.426333643637
H                     5.729365294866     1.884959472176     0.782592434997
H                     6.725794636998     1.315735458437    -1.472963019615
H                     7.231431156030    -0.339919463115    -0.836170892021
H                     3.555116918528    -1.111096561408    -2.286961571721
H                     5.188465830002    -1.801270678403    -2.329193596206
H                     5.448633413747    -2.927019410635     0.024100539960
