46
0 1 C17ClH17N4O6S
C                    -2.115073314675     1.258687128233    -0.849036327744
C                    -2.774513015070     2.476665103450    -0.733658143010
C                    -2.988409084217     1.715015459827     5.876548178276
C                    -1.962219456061     0.421115393008     0.266462654676
C                    -3.199237809413     2.034095993179     1.624141270342
C                    -3.335717120635     2.851626713207     0.490538410573
C                    -2.501386759870     0.813071872850     1.503177863571
C                    -0.278866944210    -1.513334557571    -2.158857013744
C                    -1.654730009748    -3.143592677251    -0.719651197959
C                    -1.154871820101    -0.837324530091     0.109443774531
C                     0.742663903035    -2.628986212908    -2.227911115416
C                    -0.430895619757    -3.997356377856    -0.437560913648
C                     0.899357847206    -3.382017814064    -0.899825380563
C                    -1.434913304881    -1.684016883256    -1.149044181984
C                    -5.812896954758     3.945001807177    -0.280552802259
C                    -5.130655378779     2.412767637901     4.688103001092
C                    -4.985697452702     2.089728160499     3.210546204694
N                    -2.591450789629     0.619611489848     6.497469471681
N                    -3.666293367417    -0.221309042811     6.483987195251
N                    -4.679224090135     0.327241737133     5.887095410349
N                    -4.275452993509     1.564582814498     5.503491236054
O                    -0.239300861595    -0.526533065610    -2.872563731258
O                    -2.789439484900    -3.576105197976    -0.637815508693
O                    -0.319369056642    -1.175658287236     0.927376679822
O                    -4.542156217436     4.859966196305     1.861963817189
O                    -3.551937923478     5.316202816197    -0.448905229478
O                    -3.634443254753     2.422679317560     2.856035981771
S                    -4.247357435488     4.427907730795     0.491004435775
Cl                   -2.380217466121    -0.184306426899     2.922431052628
H                    -1.677639922151     0.967080565475    -1.799654761706
H                    -2.842266811916     3.148627671408    -1.583356291524
H                    -2.395784732512     2.595868292191     5.676602411051
H                     0.388689249783    -3.315611021932    -3.011981193106
H                     1.683646612669    -2.203017338817    -2.584963913126
H                    -0.417334427130    -4.191199213104     0.640437592356
H                    -0.618332981832    -4.961798561010    -0.922237850513
H                     1.274844892890    -2.698289265999    -0.136228248386
H                     1.644862124794    -4.173363215841    -1.018780623321
H                    -2.352685338952    -1.336923407030    -1.624164723476
H                    -6.419027607538     4.852875772027    -0.317677494063
H                    -5.615544150573     3.574159318120    -1.286810288137
H                    -6.299411919871     3.183893607092     0.330872469601
H                    -6.162485427447     2.253196229146     5.006609340127
H                    -4.860012621022     3.456041868722     4.862564265906
H                    -5.176331891813     1.027668233951     3.023418818754
H                    -5.685732739392     2.708391084322     2.639940747388
