35
0 1 C11H17N3O2S2
C                     9.480464326893    -1.578248514333    -0.703005373161
C                     7.872343383302    -0.325862812449     0.457491865278
C                    10.532278763505    -2.534929673388    -1.181709555642
C                    13.325220406687    -3.073523058053    -2.765351571109
C                    12.840111984016    -2.526911215160    -4.091380822778
C                    11.865665419939    -3.170054564679    -3.134397619954
C                     0.144989433288    -0.525872948790     1.243639804911
C                     1.439264358660     0.028081381363     1.849122363778
C                     2.685740262373    -0.359204014198     1.044195036210
C                     3.981607667184     0.194367339823     1.652636277780
C                     5.205354779977    -0.208532365982     0.834601982135
N                     8.942315541045    -0.645559276323    -1.450029844582
N                     8.009200463550     0.091715824672    -0.771478655219
N                    10.924715492833    -2.315906427414    -2.464565884578
O                    10.966277552510    -3.411969312981    -0.437938762052
O                     6.919953110577    -0.364603928960     2.935003710475
S                     8.885850946222    -1.657540930298     0.929571574598
S                     6.734862866394     0.430903287535     1.657892425677
H                    13.898294777312    -3.994890935940    -2.755827402629
H                    13.586348928620    -2.361399337123    -1.990028416996
H                    12.793416053420    -1.447136023130    -4.200987419845
H                    13.080734000019    -3.066853086235    -5.001886661068
H                    11.484060101430    -4.157420307716    -3.384921636965
H                    -0.006152838680    -0.153348925062     0.223907223539
H                     0.167362230822    -1.620678742142     1.196693266572
H                    -0.728031735110    -0.235561494337     1.837466246152
H                     1.548522587786    -0.334450427226     2.879192432545
H                     1.375882332880     1.122048195998     1.913929135696
H                     2.579775314700     0.001656340545     0.012229301214
H                     2.752530215848    -1.453620386041     0.982948610900
H                     4.096565441791    -0.177169704906     2.676747959324
H                     3.920833950584     1.288459130240     1.712495200444
H                     5.200620247349     0.214796802844    -0.174740802676
H                     5.318098016751    -1.295594058323     0.777103237457
H                    10.421892873619    -1.605777741610    -2.986986687625
