46
0 1 C17ClH17N4O6S
C                    -2.995678126971     1.646284352049    -2.366058615460
C                    -4.236699600086     2.265862434940    -2.292334921787
C                    -3.472770388042     3.062810362850     4.185797705519
C                    -2.314561290695     1.265244348263    -1.200468660214
C                    -4.169008187941     2.135566241919     0.139379133543
C                    -4.831575076938     2.490817593401    -1.045485974599
C                    -2.906230932628     1.514587331699     0.043292532657
C                     1.041034874577     0.087871653867     0.095106940407
C                     1.091522052964     2.023882449672    -1.624387814005
C                    -0.967042247753     0.618726578549    -1.396107660501
C                     2.415449650882     0.513033744382     0.574823285431
C                     2.469173494053     2.405042920650    -1.121172185460
C                     3.218560276043     1.193531252818    -0.544247886582
C                     0.242021896104     1.177589387172    -0.651894543555
C                    -7.507668343508     1.789025824671    -1.540607525492
C                    -5.663479694661     1.995538040776     3.456293540112
C                    -5.492025437012     1.495006070954     2.030783195671
N                    -2.387983829618     2.625449467604     4.798047827065
N                    -2.647198650962     1.324222503086     5.120465224904
N                    -3.834321795305     0.975617664995     4.729537153345
N                    -4.383342415819     2.069180278202     4.144479040899
O                     0.571365763247    -1.010556235781     0.304563524971
O                     0.650622496793     2.380278088662    -2.700538237393
O                    -0.829433513610    -0.252866171221    -2.230520911584
O                    -6.912866856214     3.636591947066     0.265407411817
O                    -6.528276819484     4.161891320677    -2.205041510441
O                    -4.655953098954     2.458214413940     1.371523177398
S                    -6.497612672326     3.219316835410    -1.079424437499
Cl                   -2.134001845915     1.024190655951     1.534077129456
H                    -2.520700087610     1.462428302583    -3.323945462456
H                    -4.742603025520     2.597320137494    -3.193853330751
H                    -3.628336343362     4.047143423043     3.768661360002
H                     2.277425830136     1.217086734959     1.407594070996
H                     2.923675185293    -0.370476748227     0.966656408773
H                     3.012086827461     2.872445158520    -1.945514082952
H                     2.339056184096     3.160836890347    -0.333615004580
H                     3.420110397444     0.471328023676    -1.343740601239
H                     4.188741322546     1.516276015555    -0.155676733277
H                    -0.059973902288     1.887233045019     0.130149462764
H                    -8.536359069541     2.153172793234    -1.586785629729
H                    -7.185857022911     1.422263985131    -2.515711597546
H                    -7.407710933037     1.016129466663    -0.777318580831
H                    -6.311823961851     1.320292102855     4.017648080174
H                    -6.108785852343     2.992329059657     3.443958631002
H                    -5.018408970613     0.507920940008     2.018421520778
H                    -6.471711823869     1.453935966162     1.543752314528
