
  -OEChem-05262117493D

 47 49  0     1  0  0  0  0  0999 V2000
    0.6622    4.6309   -6.1695 C   0  0  0  0  0  0  0  0  0  0  0  0
    1.7786    6.4397   -7.3024 C   0  0  0  0  0  0  0  0  0  0  0  0
   -0.3691    4.6714   -7.1131 C   0  0  0  0  0  0  0  0  0  0  0  0
    0.7587    6.4936   -8.2550 C   0  0  0  0  0  0  0  0  0  0  0  0
    1.7500    5.5127   -6.2490 C   0  0  0  0  0  0  0  0  0  0  0  0
   -0.3115    5.6033   -8.1492 C   0  0  0  0  0  0  0  0  0  0  0  0
    2.1963    0.8435   -0.6137 C   0  0  0  0  0  0  0  0  0  0  0  0
    3.0073    2.9525   -0.6104 C   0  0  0  0  0  0  0  0  0  0  0  0
    1.3626    3.7509   -2.3797 C   0  0  0  0  0  0  0  0  0  0  0  0
    1.1059   -1.4516   -0.9994 C   0  0  0  0  0  0  0  0  0  0  0  0
    0.6883   -1.0021    0.3731 C   0  0  0  0  0  0  0  0  0  0  0  0
    2.0341   -0.5577   -0.2041 C   0  0  0  0  0  0  0  0  0  0  0  0
    1.1481    7.2704   -2.1365 C   0  0  0  0  0  0  0  0  0  0  0  0
    3.6770    1.8581    2.2589 C   0  0  0  0  0  0  0  0  0  0  0  0
    2.8513    5.5113   -5.2102 C   0  0  0  0  0  0  0  0  0  0  0  0
    2.6139    6.5356   -4.0819 C   0  0  0  0  0  0  0  0  0  0  0  0
    1.5199    6.1240   -3.0831 C   0  0  1  0  0  0  0  0  0  0  0  0
    1.4664    1.4764   -1.4877 N   0  0  0  0  0  0  0  0  0  0  0  0
    3.1436    1.6873   -0.0517 N   0  0  0  0  0  0  0  0  0  0  0  0
    1.9537    2.7823   -1.4952 N   0  0  0  0  0  0  0  0  0  0  0  0
    1.9627    4.9626   -2.3053 N   0  0  0  0  0  0  0  0  0  0  0  0
    4.0740    1.3408    0.9348 N   0  0  0  0  0  0  0  0  0  0  0  0
    3.6977    3.9467   -0.3645 O   0  0  0  0  0  0  0  0  0  0  0  0
    0.4250    3.4396   -3.0966 O   0  0  0  0  0  0  0  0  0  0  0  0
   -1.6031    5.6576   -9.3447 Cl  0  0  0  0  0  0  0  0  0  0  0  0
    0.6036    3.9138   -5.3556 H   0  0  0  0  0  0  0  0  0  0  0  0
    2.6152    7.1307   -7.3876 H   0  0  0  0  0  0  0  0  0  0  0  0
   -1.2075    3.9855   -7.0412 H   0  0  0  0  0  0  0  0  0  0  0  0
    0.7943    7.2105   -9.0695 H   0  0  0  0  0  0  0  0  0  0  0  0
    1.4168   -2.4827   -1.1352 H   0  0  0  0  0  0  0  0  0  0  0  0
    0.6112   -0.9957   -1.8504 H   0  0  0  0  0  0  0  0  0  0  0  0
   -0.0850   -0.2434    0.4395 H   0  0  0  0  0  0  0  0  0  0  0  0
    0.7149   -1.7163    1.1907 H   0  0  0  0  0  0  0  0  0  0  0  0
    2.9252   -0.9923    0.2355 H   0  0  0  0  0  0  0  0  0  0  0  0
    2.0186    7.6031   -1.5586 H   0  0  0  0  0  0  0  0  0  0  0  0
    0.7728    8.1274   -2.7044 H   0  0  0  0  0  0  0  0  0  0  0  0
    0.3714    6.9535   -1.4344 H   0  0  0  0  0  0  0  0  0  0  0  0
    2.7604    1.3519    2.5717 H   0  0  0  0  0  0  0  0  0  0  0  0
    3.5194    2.9430    2.2662 H   0  0  0  0  0  0  0  0  0  0  0  0
    4.4713    1.6009    2.9647 H   0  0  0  0  0  0  0  0  0  0  0  0
    2.9595    4.5130   -4.7738 H   0  0  0  0  0  0  0  0  0  0  0  0
    3.8049    5.7457   -5.6960 H   0  0  0  0  0  0  0  0  0  0  0  0
    2.3428    7.5017   -4.5231 H   0  0  0  0  0  0  0  0  0  0  0  0
    3.5487    6.6933   -3.5277 H   0  0  0  0  0  0  0  0  0  0  0  0
    0.6291    5.8068   -3.6278 H   0  0  0  0  0  0  0  0  0  0  0  0
    2.7347    5.0716   -1.6483 H   0  0  0  0  0  0  0  0  0  0  0  0
    4.9600    1.7584    0.6517 H   0  0  0  0  0  0  0  0  0  0  0  0
  1  3  1  0  0  0  0
  1  5  2  0  0  0  0
  1 26  1  0  0  0  0
  2  4  2  0  0  0  0
  2  5  1  0  0  0  0
  2 27  1  0  0  0  0
  3  6  2  0  0  0  0
  3 28  1  0  0  0  0
  4  6  1  0  0  0  0
  4 29  1  0  0  0  0
  5 15  1  0  0  0  0
  6 25  1  0  0  0  0
  7 12  1  0  0  0  0
  7 18  2  0  0  0  0
  7 19  1  0  0  0  0
  8 19  1  0  0  0  0
  8 20  1  0  0  0  0
  8 23  2  0  0  0  0
  9 20  1  0  0  0  0
  9 21  1  0  0  0  0
  9 24  2  0  0  0  0
 10 11  1  0  0  0  0
 10 12  1  0  0  0  0
 10 30  1  0  0  0  0
 10 31  1  0  0  0  0
 11 12  1  0  0  0  0
 11 32  1  0  0  0  0
 11 33  1  0  0  0  0
 12 34  1  0  0  0  0
 13 17  1  0  0  0  0
 13 35  1  0  0  0  0
 13 36  1  0  0  0  0
 13 37  1  0  0  0  0
 14 22  1  0  0  0  0
 14 38  1  0  0  0  0
 14 39  1  0  0  0  0
 14 40  1  0  0  0  0
 15 16  1  0  0  0  0
 15 41  1  0  0  0  0
 15 42  1  0  0  0  0
 16 17  1  0  0  0  0
 16 43  1  0  0  0  0
 16 44  1  0  0  0  0
 17 21  1  0  0  0  0
 17 45  1  0  0  0  0
 18 20  1  0  0  0  0
 19 22  1  0  0  0  0
 21 46  1  0  0  0  0
 22 47  1  0  0  0  0
M  END
$$$$
