52
0 1 C22H24O5S
C                     3.356193357629    -2.038581045212     0.580342058686
C                     2.161774076659    -2.038136880320    -0.143637925276
C                    -2.984078451386     0.651258927641     0.826196504862
C                    -3.198693143185    -1.740117742831     0.741256042941
C                     2.133854141972     0.380024465093    -0.033092705423
C                    -1.814305784215     0.597470852940     0.068182599724
C                     3.955474742769    -0.845208826021     0.999560515438
C                    -3.700680482631    -0.508228688307     1.163648335267
C                    -2.023254887834    -1.817298747017    -0.016487971236
C                     3.344607742283     0.373599094858     0.663976267829
C                     1.534914705853    -0.824898972925    -0.434157383415
C                    -1.327637500589    -0.653047170897    -0.377317580783
C                     1.367993528360     1.635684800225    -0.328775335023
C                     4.328408635414     0.749252482106     4.663880057151
C                     3.876790520756    -0.338226223043     4.025076706900
C                    -1.026470033868     1.863096902016    -0.180759817731
C                    -4.975853317222    -0.417385714985     1.968159078660
C                     2.407291505746    -0.676599245137     3.956917549726
C                    -2.063201988624    -3.584991935463    -1.584725595766
C                     4.719626653751     2.205394588060     0.088048536642
C                     4.840678343156    -1.283753427186     3.332863876491
C                     5.184876410398    -0.883310013823     1.876942791983
O                     1.632088982869     2.463412331177    -1.171432415617
O                     0.258251898741     1.661787455703     0.461862879622
O                     6.091866665182    -1.836207682825     1.298211950901
O                    -1.538934648160    -3.061935669963    -0.357282608789
O                     3.889761273327     1.570261409854     1.079862030010
S                     0.074478845428    -0.782257846831    -1.497405217549
H                     3.842378349001    -2.978218205369     0.824561654204
H                     1.705623421605    -2.966927468731    -0.470953498505
H                    -3.338491718461     1.617157295351     1.180859781710
H                    -3.698429595615    -2.667501809967     1.010377453261
H                     5.391242224336     0.977724705770     4.719121506477
H                     3.651290214516     1.454504276028     5.139604680888
H                    -0.866386826082     2.068129263468    -1.241827473508
H                    -1.509693437354     2.725484164406     0.282287334029
H                    -5.807115667272    -0.071538710387     1.342301842488
H                    -5.255859728136    -1.388212415894     2.385605913612
H                    -4.874015819498     0.292181122207     2.795305022690
H                     2.055322074282    -0.754152938249     2.923669798268
H                     1.801114957426     0.076910398836     4.466616530454
H                     2.216445803217    -1.649242643161     4.428469759327
H                    -1.625217722624    -4.577301236127    -1.708278457132
H                    -1.777242572220    -2.950466538451    -2.431254417297
H                    -3.156403523053    -3.668167601970    -1.539037774215
H                     5.099178653555     3.117370814024     0.552543157410
H                     4.134894207544     2.455899200142    -0.802082767223
H                     5.557510248982     1.552910816264    -0.187501784109
H                     4.438183156286    -2.303063106007     3.314180296091
H                     5.783516840226    -1.314984190843     3.894192629748
H                     5.640687608855     0.111808170059     1.898365467711
H                     6.853697647251    -1.916317894543     1.894158074961
