47
0 1 C17ClH22N5O2
C                     3.964254110201     5.248931634258    -4.191804824670
C                     1.960059518732     3.921589319301    -4.212902717885
C                     4.739538454457     4.100177462553    -4.031328374716
C                     2.718481864008     2.757797502925    -4.052964605199
C                     2.564217668751     5.184141367378    -4.276477305960
C                     4.104811573222     2.859236207411    -3.958599333111
C                     3.362064023146     2.676845523726    -0.439727836116
C                     1.158744010839     2.508528980014    -0.997845335680
C                     0.941277101500     4.972399239982    -1.485923855405
C                     5.541783927797     3.157742129725     0.851809009948
C                     5.906821337561     3.018106985539    -0.597690027557
C                     4.712408200338     2.251879456325    -0.050772563657
C                     1.557664547442     8.507385691196    -1.123525822815
C                     2.279053822657    -0.331215566937    -1.684456851772
C                     1.735963077298     6.439267625118    -4.476061507564
C                     1.963266057456     7.562518254616    -3.444391053451
C                     1.293694513224     7.337680266573    -2.077043936221
N                     2.986915941924     3.902741715133    -0.676965271722
N                     2.313830534010     1.799037952749    -0.615613275558
N                     1.627473165856     3.822747435558    -1.006166197517
N                     1.719878534892     6.086956858478    -1.454481907707
N                     2.359330217187     0.415327363805    -0.413387564196
O                     0.064094404141     2.022525729264    -1.221366857825
O                    -0.215027529400     4.910688789759    -1.876225021306
Cl                    5.078531354735     1.405695145034    -3.752054853071
H                     4.467135219372     6.211080040583    -4.256391538245
H                     0.877634715241     3.839678597999    -4.257003679859
H                     5.821748491377     4.163233345834    -3.972170421352
H                     2.231010839721     1.790035928715    -3.999791302123
H                     6.162739374299     2.670657161380     1.597483481512
H                     5.068932466433     4.081659033068     1.168967439377
H                     5.675241637146     3.844806049998    -1.260419866092
H                     6.780151005689     2.433447534037    -0.868084590619
H                     4.809909995713     1.180526765200     0.078571882983
H                     2.629130323737     8.608229595206    -0.912072536216
H                     1.213353760162     9.449738387711    -1.561713435742
H                     1.035560811504     8.353526501718    -0.175060642674
H                     3.177121615200    -0.126819763336    -2.269922441254
H                     1.387255912210    -0.081036901558    -2.270233660955
H                     2.261031951900    -1.395950553079    -1.435591096219
H                     1.965746565048     6.844233095876    -5.469794924646
H                     0.674619757237     6.172807357031    -4.488613802672
H                     1.564387828572     8.498457265128    -3.853340958725
H                     3.038284957091     7.730529346659    -3.298910945886
H                     0.216980267392     7.234091292826    -2.230385309924
H                     2.696823079993     5.949834215938    -1.218844264770
H                     1.552333912561     0.186551937474     0.166666738506
