
  -OEChem-05262117493D

 35 36  0     1  0  0  0  0  0999 V2000
    9.6546   -2.0971   -0.9752 C   0  0  0  0  0  0  0  0  0  0  0  0
    8.1929   -0.8567    0.3788 C   0  0  0  0  0  0  0  0  0  0  0  0
   10.5703   -3.0971   -1.6186 C   0  0  0  0  0  0  0  0  0  0  0  0
   13.3648   -3.7578   -3.1481 C   0  0  0  0  0  0  0  0  0  0  0  0
   13.0965   -2.8474   -4.3279 C   0  0  0  0  0  0  0  0  0  0  0  0
   11.9482   -3.5046   -3.6009 C   0  0  0  0  0  0  0  0  0  0  0  0
    2.1469    0.5598   -2.7819 C   0  0  0  0  0  0  0  0  0  0  0  0
    3.4905    0.9092   -2.1330 C   0  0  0  0  0  0  0  0  0  0  0  0
    3.8450   -0.0177   -0.9639 C   0  0  0  0  0  0  0  0  0  0  0  0
    5.1952    0.3302   -0.3205 C   0  0  0  0  0  0  0  0  0  0  0  0
    5.5185   -0.6024    0.8436 C   0  0  0  0  0  0  0  0  0  0  0  0
    9.3385   -0.9434   -1.5110 N   0  0  0  0  0  0  0  0  0  0  0  0
    8.4945   -0.2138   -0.7166 N   0  0  0  0  0  0  0  0  0  0  0  0
   11.1032   -2.6693   -2.7935 N   0  0  0  0  0  0  0  0  0  0  0  0
   10.7863   -4.1830   -1.0853 O   0  0  0  0  0  0  0  0  0  0  0  0
    7.2627   -1.1827    2.8332 O   0  0  0  0  0  0  0  0  0  0  0  0
    8.9380   -2.4184    0.5753 S   0  0  0  0  0  0  0  0  0  0  0  0
    7.1172   -0.1975    1.6905 S   0  0  1  0  0  0  0  0  0  0  0  0
   13.7769   -4.7449   -3.3303 H   0  0  0  0  0  0  0  0  0  0  0  0
   13.6676   -3.2982   -2.2135 H   0  0  0  0  0  0  0  0  0  0  0  0
   13.2366   -1.7805   -4.1792 H   0  0  0  0  0  0  0  0  0  0  0  0
   13.3268   -3.2018   -5.3278 H   0  0  0  0  0  0  0  0  0  0  0  0
   11.4345   -4.3246   -4.0979 H   0  0  0  0  0  0  0  0  0  0  0  0
    2.1522   -0.4628   -3.1763 H   0  0  0  0  0  0  0  0  0  0  0  0
    1.3271    0.6313   -2.0578 H   0  0  0  0  0  0  0  0  0  0  0  0
    1.9182    1.2362   -3.6121 H   0  0  0  0  0  0  0  0  0  0  0  0
    3.4681    1.9474   -1.7771 H   0  0  0  0  0  0  0  0  0  0  0  0
    4.2873    0.8607   -2.8862 H   0  0  0  0  0  0  0  0  0  0  0  0
    3.8673   -1.0569   -1.3184 H   0  0  0  0  0  0  0  0  0  0  0  0
    3.0516    0.0319   -0.2061 H   0  0  0  0  0  0  0  0  0  0  0  0
    5.1742    1.3674    0.0361 H   0  0  0  0  0  0  0  0  0  0  0  0
    5.9865    0.2758   -1.0747 H   0  0  0  0  0  0  0  0  0  0  0  0
    5.5748   -1.6557    0.5524 H   0  0  0  0  0  0  0  0  0  0  0  0
    4.7923   -0.5111    1.6584 H   0  0  0  0  0  0  0  0  0  0  0  0
   10.7745   -1.7793   -3.1537 H   0  0  0  0  0  0  0  0  0  0  0  0
  1  3  1  0  0  0  0
  1 12  2  0  0  0  0
  1 17  1  0  0  0  0
  2 13  2  0  0  0  0
  2 17  1  0  0  0  0
  2 18  1  0  0  0  0
  3 14  1  0  0  0  0
  3 15  2  0  0  0  0
  4  5  1  0  0  0  0
  4  6  1  0  0  0  0
  4 19  1  0  0  0  0
  4 20  1  0  0  0  0
  5  6  1  0  0  0  0
  5 21  1  0  0  0  0
  5 22  1  0  0  0  0
  6 14  1  0  0  0  0
  6 23  1  0  0  0  0
  7  8  1  0  0  0  0
  7 24  1  0  0  0  0
  7 25  1  0  0  0  0
  7 26  1  0  0  0  0
  8  9  1  0  0  0  0
  8 27  1  0  0  0  0
  8 28  1  0  0  0  0
  9 10  1  0  0  0  0
  9 29  1  0  0  0  0
  9 30  1  0  0  0  0
 10 11  1  0  0  0  0
 10 31  1  0  0  0  0
 10 32  1  0  0  0  0
 11 18  1  0  0  0  0
 11 33  1  0  0  0  0
 11 34  1  0  0  0  0
 12 13  1  0  0  0  0
 14 35  1  0  0  0  0
 16 18  2  0  0  0  0
M  END
$$$$
