35
-1 1 C16H15O4
C                    -4.457157101514    -1.559909804012     0.370997019386
C                    -4.982100841580    -1.031369257028     1.555540165529
C                    -3.320443283007    -0.990915278555    -0.213038489851
C                    -3.230597993940     0.619334671958     1.583766700201
C                    -4.378861157987     0.073178122553     2.170698867280
C                    -2.689381911767     0.104179022213     0.398960616485
C                     1.435677278020    -1.321948512192    -1.340982143318
C                     0.213066313989    -0.128077749860     1.468175341719
C                     1.923255884034    -2.230301223665    -2.192253191714
C                    -4.985579636688     0.703803949198     3.451506820027
C                     2.182784285210    -0.103461595501    -0.832857110243
C                     0.023091123847    -1.305417841647    -0.773409892741
C                     1.364491925715     1.754646610072     0.765067144134
C                     1.077880510069     0.912696885948    -0.479562005198
C                    -0.109669690866     0.034394661282    -0.023592709758
C                    -1.470704284901     0.755384143114    -0.218732907606
O                    -4.389227485539     1.731382847452     3.876999672757
O                    -0.107453417331    -1.019044523996     2.212066300871
O                    -6.008083249232     0.120221479155     3.905083334873
O                     1.010896756024     0.913837395131     1.885334579442
H                    -4.940132998234    -2.409141922032    -0.111380414952
H                    -5.871248452636    -1.442004644636     2.026305435700
H                    -2.936297898012    -1.392017776842    -1.149942539675
H                    -2.785804233259     1.477012876310     2.084505583604
H                     1.327535903856    -3.080584435795    -2.518535758110
H                     2.936344185143    -2.159144071214    -2.583643674195
H                     2.732772252248    -0.371583458862     0.079821524383
H                     2.913261131248     0.280387275628    -1.551518101222
H                    -0.706785571733    -1.363920673624    -1.585619174987
H                    -0.176371007158    -2.146018412598    -0.102977578274
H                     2.417957199429     2.025460905914     0.880233414563
H                     0.755862244141     2.664018098803     0.803586334307
H                     0.820777682599     1.533676320053    -1.343596564494
H                    -1.600989910253     0.857499337163    -1.304546212697
H                    -1.382975699384     1.772251542106     0.180059827409
