
  -OEChem-05262117493D

 46 48  0     1  0  0  0  0  0999 V2000
    2.0984   -2.3244    4.1916 C   0  0  0  0  0  0  0  0  0  0  0  0
    1.9111   -2.5335    2.8230 C   0  0  0  0  0  0  0  0  0  0  0  0
    1.9570   -0.1284    2.3452 C   0  0  0  0  0  0  0  0  0  0  0  0
    2.2150   -1.0095    4.6418 C   0  0  0  0  0  0  0  0  0  0  0  0
    1.8408   -1.4613    1.9011 C   0  0  0  0  0  0  0  0  0  0  0  0
    2.1386    0.0323    3.7061 C   0  0  0  0  0  0  0  0  0  0  0  0
    2.4297    0.8162    5.7194 C   0  0  0  0  0  0  0  0  0  0  0  0
    1.3487   -0.8528   -0.4677 C   0  0  0  0  0  0  0  0  0  0  0  0
    2.4800   -3.7002   -4.4959 C   0  0  0  0  0  0  0  0  0  0  0  0
    2.6882    4.7438    6.8146 C   0  0  0  0  0  0  0  0  0  0  0  0
    1.6154   -3.1294    0.0271 C   0  0  0  0  0  0  0  0  0  0  0  0
    1.5813   -2.9108   -1.4922 C   0  0  2  0  0  0  0  0  0  0  0  0
    2.3379   -3.1940   -5.9193 C   0  0  0  0  0  0  0  0  0  0  0  0
    2.5963    8.2490    5.8095 C   0  0  0  0  0  0  0  0  0  0  0  0
    2.5336    3.5285    5.9203 C   0  0  0  0  0  0  0  0  0  0  0  0
    2.9427   -3.1107   -2.1589 C   0  0  0  0  0  0  0  0  0  0  0  0
    2.7307    7.1205    6.8137 C   0  0  0  0  0  0  0  0  0  0  0  0
    2.4009   -0.4653    5.9184 N   0  0  0  0  0  0  0  0  0  0  0  0
    1.6677   -1.7608    0.5278 N   0  0  0  0  0  0  0  0  0  0  0  0
    2.9154   -2.7806   -3.5722 N   0  0  0  0  0  0  0  0  0  0  0  0
    1.2223    0.3504   -0.3877 O   0  0  0  0  0  0  0  0  0  0  0  0
    2.2395   -4.8671   -4.1878 O   0  0  0  0  0  0  0  0  0  0  0  0
    2.8668    4.7124    8.0155 O   0  0  0  0  0  0  0  0  0  0  0  0
    2.2780    1.2219    4.4005 O   0  0  0  0  0  0  0  0  0  0  0  0
    1.1826   -1.5286   -1.6488 O   0  0  0  0  0  0  0  0  0  0  0  0
    2.5990    5.8681    6.0796 O   0  0  0  0  0  0  0  0  0  0  0  0
    2.6452    2.0264    6.9634 S   0  0  0  0  0  0  0  0  0  0  0  0
    2.1479   -3.1606    4.8818 H   0  0  0  0  0  0  0  0  0  0  0  0
    1.8120   -3.5535    2.4717 H   0  0  0  0  0  0  0  0  0  0  0  0
    1.8942    0.7061    1.6612 H   0  0  0  0  0  0  0  0  0  0  0  0
    0.7235   -3.6519    0.3922 H   0  0  0  0  0  0  0  0  0  0  0  0
    2.5005   -3.6967    0.3315 H   0  0  0  0  0  0  0  0  0  0  0  0
    0.8307   -3.5258   -1.9898 H   0  0  0  0  0  0  0  0  0  0  0  0
    2.9460   -3.8218   -6.5755 H   0  0  0  0  0  0  0  0  0  0  0  0
    1.2955   -3.3079   -6.2295 H   0  0  0  0  0  0  0  0  0  0  0  0
    2.6368   -2.1499   -6.0449 H   0  0  0  0  0  0  0  0  0  0  0  0
    3.3776    8.1899    5.0463 H   0  0  0  0  0  0  0  0  0  0  0  0
    1.6221    8.2179    5.3130 H   0  0  0  0  0  0  0  0  0  0  0  0
    2.6900    9.2100    6.3252 H   0  0  0  0  0  0  0  0  0  0  0  0
    3.3180    3.5350    5.1605 H   0  0  0  0  0  0  0  0  0  0  0  0
    1.5717    3.5755    5.4056 H   0  0  0  0  0  0  0  0  0  0  0  0
    3.2375   -4.1583   -2.0632 H   0  0  0  0  0  0  0  0  0  0  0  0
    3.6925   -2.4875   -1.6595 H   0  0  0  0  0  0  0  0  0  0  0  0
    1.9527    7.1532    7.5810 H   0  0  0  0  0  0  0  0  0  0  0  0
    3.7020    7.1251    7.3153 H   0  0  0  0  0  0  0  0  0  0  0  0
    2.8960   -1.7999   -3.8200 H   0  0  0  0  0  0  0  0  0  0  0  0
  1  2  1  0  0  0  0
  1  4  2  0  0  0  0
  1 28  1  0  0  0  0
  2  5  2  0  0  0  0
  2 29  1  0  0  0  0
  3  5  1  0  0  0  0
  3  6  2  0  0  0  0
  3 30  1  0  0  0  0
  4  6  1  0  0  0  0
  4 18  1  0  0  0  0
  5 19  1  0  0  0  0
  6 24  1  0  0  0  0
  7 18  2  0  0  0  0
  7 24  1  0  0  0  0
  7 27  1  0  0  0  0
  8 19  1  0  0  0  0
  8 21  2  0  0  0  0
  8 25  1  0  0  0  0
  9 13  1  0  0  0  0
  9 20  1  0  0  0  0
  9 22  2  0  0  0  0
 10 15  1  0  0  0  0
 10 23  2  0  0  0  0
 10 26  1  0  0  0  0
 11 12  1  0  0  0  0
 11 19  1  0  0  0  0
 11 31  1  0  0  0  0
 11 32  1  0  0  0  0
 12 16  1  0  0  0  0
 12 25  1  0  0  0  0
 12 33  1  0  0  0  0
 13 34  1  0  0  0  0
 13 35  1  0  0  0  0
 13 36  1  0  0  0  0
 14 17  1  0  0  0  0
 14 37  1  0  0  0  0
 14 38  1  0  0  0  0
 14 39  1  0  0  0  0
 15 27  1  0  0  0  0
 15 40  1  0  0  0  0
 15 41  1  0  0  0  0
 16 20  1  0  0  0  0
 16 42  1  0  0  0  0
 16 43  1  0  0  0  0
 17 26  1  0  0  0  0
 17 44  1  0  0  0  0
 17 45  1  0  0  0  0
 20 46  1  0  0  0  0
M  END
$$$$
