35
-1 1 C16H15O4
C                    -1.255459258375     3.177241622008    -4.045986218319
C                    -1.620643594192     2.292623434494    -5.066413223070
C                    -1.329340922030     2.775784426820    -2.707280060893
C                    -2.156255986043     0.621290431552    -3.415645464729
C                    -2.078424083304     1.003946166824    -4.760537089903
C                    -1.773883492873     1.483821947649    -2.378689789723
C                     1.274010936064    -1.181972498506    -1.194703480883
C                    -0.571474953673     0.254128184783     1.062959591308
C                     1.928695667007    -2.238537755822    -1.684533968767
C                    -2.491845160292     0.015462960270    -5.882771767950
C                     1.924109896676     0.084157697699    -0.662635396278
C                    -0.237107834815    -1.037494858957    -1.113294070319
C                     0.813698275790     2.045289509380     0.580833690773
C                     0.804546431103     1.147891708104    -0.653278220251
C                    -0.490755844197     0.331931459035    -0.462802846517
C                    -1.802444409332     1.033897925037    -0.936376835861
O                    -2.877484280259    -1.116939191116    -5.481327442351
O                    -1.190741896239    -0.529511682418     1.746157072999
O                    -2.388146932618     0.464194222741    -7.056628608957
O                     0.157082418453     1.274392017741     1.622142287554
H                    -0.915933757110     4.183853259733    -4.287450472770
H                    -1.572924764047     2.570004576099    -6.115920039577
H                    -1.054327922528     3.471392960930    -1.913923013116
H                    -2.540016018902    -0.376522952408    -3.215110813229
H                     1.398609578602    -3.113268473533    -2.054776741291
H                     3.015210195403    -2.256800841427    -1.746577969969
H                     2.275106028371    -0.091668336309     0.363792541543
H                     2.792516539253     0.392003952330    -1.252649819522
H                    -0.660280557691    -1.051914371729    -2.121241996921
H                    -0.711645561694    -1.840741249824    -0.541407718408
H                     1.813805415411     2.293911536493     0.945754406378
H                     0.245886048640     2.969605803931     0.429483198156
H                     0.792552079279     1.720106335098    -1.582230144210
H                    -1.995467649624     1.895845658128    -0.285782025620
H                    -2.621143446805     0.327198334018    -0.766456186686
