
  -OEChem-05262117493D

 52 54  0     1  0  0  0  0  0999 V2000
    3.7776   -0.3919    1.8508 C   0  0  0  0  0  0  0  0  0  0  0  0
    2.6082    0.3409    2.0716 C   0  0  0  0  0  0  0  0  0  0  0  0
   -2.7893    0.2357   -0.9257 C   0  0  0  0  0  0  0  0  0  0  0  0
   -3.0507   -0.7656    1.2383 C   0  0  0  0  0  0  0  0  0  0  0  0
    2.0166    0.0955   -0.2732 C   0  0  0  0  0  0  0  0  0  0  0  0
   -1.6147    0.8687   -0.5162 C   0  0  0  0  0  0  0  0  0  0  0  0
    4.0870   -0.8903    0.5889 C   0  0  0  0  0  0  0  0  0  0  0  0
   -3.5320   -0.5760   -0.0594 C   0  0  0  0  0  0  0  0  0  0  0  0
   -1.8657   -0.1585    1.6637 C   0  0  0  0  0  0  0  0  0  0  0  0
    3.1990   -0.6420   -0.4772 C   0  0  0  0  0  0  0  0  0  0  0  0
    1.7252    0.5967    1.0216 C   0  0  0  0  0  0  0  0  0  0  0  0
   -1.1331    0.6798    0.7975 C   0  0  0  0  0  0  0  0  0  0  0  0
    0.9829    0.2505   -1.3343 C   0  0  0  0  0  0  0  0  0  0  0  0
    8.7636   -1.4621    0.0736 C   0  0  0  0  0  0  0  0  0  0  0  0
    7.6716   -1.5154   -0.7067 C   0  0  0  0  0  0  0  0  0  0  0  0
   -0.8693    1.7176   -1.5241 C   0  0  0  0  0  0  0  0  0  0  0  0
   -4.7881   -1.2684   -0.5320 C   0  0  0  0  0  0  0  0  0  0  0  0
    7.6060   -2.3766   -1.9441 C   0  0  0  0  0  0  0  0  0  0  0  0
   -0.5454   -1.4550    3.1252 C   0  0  0  0  0  0  0  0  0  0  0  0
    3.3464   -0.4657   -2.9079 C   0  0  0  0  0  0  0  0  0  0  0  0
    6.4179   -0.7463   -0.3611 C   0  0  0  0  0  0  0  0  0  0  0  0
    5.3678   -1.6531    0.3334 C   0  0  1  0  0  0  0  0  0  0  0  0
    0.5187   -0.6471   -2.0090 O   0  0  0  0  0  0  0  0  0  0  0  0
    0.5574    1.5407   -1.3992 O   0  0  0  0  0  0  0  0  0  0  0  0
    5.8668   -2.1304    1.5827 O   0  0  0  0  0  0  0  0  0  0  0  0
   -1.4653   -0.3647    2.9636 O   0  0  0  0  0  0  0  0  0  0  0  0
    3.5913   -1.1633   -1.6798 O   0  0  0  0  0  0  0  0  0  0  0  0
    0.2773    1.5791    1.4642 S   0  0  0  0  0  0  0  0  0  0  0  0
    4.4579   -0.5995    2.6696 H   0  0  0  0  0  0  0  0  0  0  0  0
    2.3642    0.6922    3.0695 H   0  0  0  0  0  0  0  0  0  0  0  0
   -3.1246    0.3655   -1.9527 H   0  0  0  0  0  0  0  0  0  0  0  0
   -3.5890   -1.3878    1.9491 H   0  0  0  0  0  0  0  0  0  0  0  0
    8.8058   -0.8147    0.9470 H   0  0  0  0  0  0  0  0  0  0  0  0
    9.6573   -2.0386   -0.1552 H   0  0  0  0  0  0  0  0  0  0  0  0
   -1.1964    1.4772   -2.5387 H   0  0  0  0  0  0  0  0  0  0  0  0
   -1.0156    2.7846   -1.3391 H   0  0  0  0  0  0  0  0  0  0  0  0
   -4.5464   -2.2310   -0.9984 H   0  0  0  0  0  0  0  0  0  0  0  0
   -5.4712   -1.4668    0.2988 H   0  0  0  0  0  0  0  0  0  0  0  0
   -5.3195   -0.6678   -1.2760 H   0  0  0  0  0  0  0  0  0  0  0  0
    6.7529   -3.0642   -1.9068 H   0  0  0  0  0  0  0  0  0  0  0  0
    8.5170   -2.9651   -2.0809 H   0  0  0  0  0  0  0  0  0  0  0  0
    7.4630   -1.7510   -2.8340 H   0  0  0  0  0  0  0  0  0  0  0  0
   -0.2839   -1.4795    4.1848 H   0  0  0  0  0  0  0  0  0  0  0  0
    0.3589   -1.3035    2.5278 H   0  0  0  0  0  0  0  0  0  0  0  0
   -1.0169   -2.4038    2.8388 H   0  0  0  0  0  0  0  0  0  0  0  0
    4.2093   -0.6711   -3.5464 H   0  0  0  0  0  0  0  0  0  0  0  0
    3.2696    0.6137   -2.7386 H   0  0  0  0  0  0  0  0  0  0  0  0
    2.4341   -0.8298   -3.3829 H   0  0  0  0  0  0  0  0  0  0  0  0
    5.9685   -0.3290   -1.2670 H   0  0  0  0  0  0  0  0  0  0  0  0
    6.6437    0.0799    0.3200 H   0  0  0  0  0  0  0  0  0  0  0  0
    5.1432   -2.5011   -0.3252 H   0  0  0  0  0  0  0  0  0  0  0  0
    6.7766   -2.4378    1.4247 H   0  0  0  0  0  0  0  0  0  0  0  0
  1  2  1  0  0  0  0
  1  7  2  0  0  0  0
  1 29  1  0  0  0  0
  2 11  2  0  0  0  0
  2 30  1  0  0  0  0
  3  6  1  0  0  0  0
  3  8  2  0  0  0  0
  3 31  1  0  0  0  0
  4  8  1  0  0  0  0
  4  9  2  0  0  0  0
  4 32  1  0  0  0  0
  5 10  2  0  0  0  0
  5 11  1  0  0  0  0
  5 13  1  0  0  0  0
  6 12  2  0  0  0  0
  6 16  1  0  0  0  0
  7 10  1  0  0  0  0
  7 22  1  0  0  0  0
  8 17  1  0  0  0  0
  9 12  1  0  0  0  0
  9 26  1  0  0  0  0
 10 27  1  0  0  0  0
 11 28  1  0  0  0  0
 12 28  1  0  0  0  0
 13 23  2  0  0  0  0
 13 24  1  0  0  0  0
 14 15  2  0  0  0  0
 14 33  1  0  0  0  0
 14 34  1  0  0  0  0
 15 18  1  0  0  0  0
 15 21  1  0  0  0  0
 16 24  1  0  0  0  0
 16 35  1  0  0  0  0
 16 36  1  0  0  0  0
 17 37  1  0  0  0  0
 17 38  1  0  0  0  0
 17 39  1  0  0  0  0
 18 40  1  0  0  0  0
 18 41  1  0  0  0  0
 18 42  1  0  0  0  0
 19 26  1  0  0  0  0
 19 43  1  0  0  0  0
 19 44  1  0  0  0  0
 19 45  1  0  0  0  0
 20 27  1  0  0  0  0
 20 46  1  0  0  0  0
 20 47  1  0  0  0  0
 20 48  1  0  0  0  0
 21 22  1  0  0  0  0
 21 49  1  0  0  0  0
 21 50  1  0  0  0  0
 22 25  1  0  0  0  0
 22 51  1  0  0  0  0
 25 52  1  0  0  0  0
M  END
$$$$
