60
0 1 C27H26N4O3
C                    10.964205686144    -5.347929731115    -0.655899409603
C                     9.170924890400    -3.899671037365    -1.524790736172
C                     9.005960996532    -4.789715598501     0.730685849869
C                     7.952208130879    -3.251247187214    -1.350555440610
C                     7.788709676877    -4.135305473489     0.892499525343
C                     5.589115246762    -2.092609959045     1.274093207245
C                     5.024101086447    -2.562883570669    -1.022092351891
C                     4.370513937833    -1.446706061355     1.444710015500
C                     3.803824259591    -1.910076752061    -0.853960480442
C                     2.143238454207     0.722638535607    -1.518531670458
C                    -0.577324086968     0.268134336068    -1.880976445271
C                     9.707258825961    -4.675779104159    -0.482428923281
C                     7.238368960310    -3.355603928301    -0.142050536522
C                     5.941578956199    -2.664714485428     0.036091912516
C                     3.456405244129    -1.337804021409     0.381194338320
C                     1.446958854600    -0.092776899064    -0.615493824386
C                     0.074863832433    -0.334080468855    -0.803619100959
C                     1.486980897467     1.324722575550    -2.590316847535
C                     0.105468949873     1.107362200167    -2.765209079561
C                     2.147395469286    -0.661124463047     0.564348963394
C                     0.375911668061     0.880026040597     3.106555685987
C                    -0.638761788673    -1.238030399476     0.164940779408
C                    -0.784066304656    -0.617926314437     1.562162447897
C                    -1.199281572853    -1.674859254662     2.592421126005
C                     1.592781323945     1.868954237559     4.980728267023
C                     2.383708458763     1.627143917087    -4.761049497488
C                    -0.716907112491     3.098375521787    -3.757555930640
N                    11.984690821011    -5.893606867134    -0.796899444693
N                     1.698874269001    -0.584096438701     1.779319709191
N                     0.465717872100     0.083460538474     1.951426426465
N                     1.574678362072     1.180410457341     3.698794484469
O                    -0.707503982714     1.323239598751     3.495535231805
O                     2.202610375084     2.149628835245    -3.433890018549
O                    -0.586744356795     1.664892831620    -3.816048697667
H                     9.717066273586    -3.803055899573    -2.458146086579
H                     9.414867461649    -5.396921227159     1.532459440015
H                     7.561656214356    -2.631872964552    -2.152513676560
H                     7.242896288310    -4.253897351423     1.823769012647
H                     6.292268704873    -2.128717752169     2.101583021210
H                     5.249952104883    -3.027917110800    -1.977634113036
H                     4.114989111513    -1.012058591049     2.404896761905
H                     3.105927055212    -1.863052054248    -1.683669356706
H                     3.205297375318     0.913039681653    -1.396113417949
H                    -1.638814063202     0.106044064958    -2.049256523382
H                    -1.638634296411    -1.486813714511    -0.201305572736
H                    -0.091333478262    -2.184535237348     0.250872014528
H                    -1.538621332917     0.169624992575     1.526926680606
H                    -0.415602350743    -2.431811757318     2.703487532492
H                    -2.118138922925    -2.177302813657     2.269909397035
H                    -1.387365150262    -1.210155968736     3.562337403982
H                     2.599663752233     2.254400133759     5.161436172470
H                     1.303098934193     1.215078814367     5.813961902727
H                     0.893026818683     2.705067909648     4.946931560114
H                     2.966666393863     2.373426460892    -5.304074407910
H                     1.422590635640     1.468660676598    -5.259644530549
H                     2.940719946206     0.682715708176    -4.724940460797
H                    -1.295098674369     3.383545374042    -4.638183143008
H                     0.261706166485     3.586200576212    -3.776357665728
H                    -1.259023965403     3.390830847749    -2.850802165152
H                     2.347589378289     0.574525490955     3.452494116532
