
  -OEChem-05262117483D

 41 42  0     1  0  0  0  0  0999 V2000
    0.4711    1.1047    1.9004 C   0  0  0  0  0  0  0  0  0  0  0  0
   -4.4442    0.8894   -1.0412 C   0  0  0  0  0  0  0  0  0  0  0  0
   -4.2092    1.8062    1.1768 C   0  0  0  0  0  0  0  0  0  0  0  0
   -5.8238    0.7670   -0.8584 C   0  0  0  0  0  0  0  0  0  0  0  0
   -5.5876    1.6917    1.3820 C   0  0  0  0  0  0  0  0  0  0  0  0
   -1.7792   -2.4099   -3.1434 C   0  0  0  0  0  0  0  0  0  0  0  0
   -1.5480   -0.3450   -3.4690 C   0  0  0  0  0  0  0  0  0  0  0  0
   -3.6209    1.4132   -0.0330 C   0  0  0  0  0  0  0  0  0  0  0  0
   -6.3697    1.1736    0.3554 C   0  0  0  0  0  0  0  0  0  0  0  0
    2.4199    0.2760    0.6833 C   0  0  0  0  0  0  0  0  0  0  0  0
    1.1634    2.2982   -0.1112 C   0  0  0  0  0  0  0  0  0  0  0  0
   -2.1218    1.4911   -0.2236 C   0  0  0  0  0  0  0  0  0  0  0  0
   -1.4650    0.1344    0.0890 C   0  0  0  0  0  0  0  0  0  0  0  0
    0.2916    0.0625   -1.7677 C   0  0  0  0  0  0  0  0  0  0  0  0
    1.0093    0.8987    0.5390 C   0  0  0  0  0  0  0  0  0  0  0  0
    0.0307   -0.0683   -0.2440 C   0  0  1  0  0  0  0  0  0  0  0  0
    0.0582    1.3145    2.9670 N   0  0  0  0  0  0  0  0  0  0  0  0
   -2.2814   -1.3749   -3.8741 N   0  0  0  0  0  0  0  0  0  0  0  0
   -0.7844   -2.0797   -2.3238 N   0  0  0  0  0  0  0  0  0  0  0  0
   -0.6414   -0.7410   -2.5473 N   0  0  0  0  0  0  0  0  0  0  0  0
    0.3873   -1.3846    0.1762 O   0  0  0  0  0  0  0  0  0  0  0  0
   -7.7117    1.0608    0.5430 F   0  0  0  0  0  0  0  0  0  0  0  0
   -4.0074    0.5650   -1.9834 H   0  0  0  0  0  0  0  0  0  0  0  0
   -3.5837    2.2035    1.9728 H   0  0  0  0  0  0  0  0  0  0  0  0
   -6.4689    0.3664   -1.6344 H   0  0  0  0  0  0  0  0  0  0  0  0
   -6.0528    1.9954    2.3148 H   0  0  0  0  0  0  0  0  0  0  0  0
   -2.1454   -3.4258   -3.2127 H   0  0  0  0  0  0  0  0  0  0  0  0
   -1.6310    0.6778   -3.8140 H   0  0  0  0  0  0  0  0  0  0  0  0
    2.8488    0.0824   -0.3039 H   0  0  0  0  0  0  0  0  0  0  0  0
    2.3835   -0.6634    1.2316 H   0  0  0  0  0  0  0  0  0  0  0  0
    3.0741    0.9772    1.2090 H   0  0  0  0  0  0  0  0  0  0  0  0
    1.7507    2.2249   -1.0305 H   0  0  0  0  0  0  0  0  0  0  0  0
    0.2080    2.7706   -0.3399 H   0  0  0  0  0  0  0  0  0  0  0  0
    1.7065    2.9565    0.5711 H   0  0  0  0  0  0  0  0  0  0  0  0
   -1.7182    2.2649    0.4344 H   0  0  0  0  0  0  0  0  0  0  0  0
   -1.9046    1.7977   -1.2536 H   0  0  0  0  0  0  0  0  0  0  0  0
   -2.0181   -0.6448   -0.4439 H   0  0  0  0  0  0  0  0  0  0  0  0
   -1.5935   -0.0887    1.1504 H   0  0  0  0  0  0  0  0  0  0  0  0
    1.3097   -0.2644   -1.9922 H   0  0  0  0  0  0  0  0  0  0  0  0
    0.1690    1.0877   -2.1148 H   0  0  0  0  0  0  0  0  0  0  0  0
   -0.0561   -2.0179   -0.4239 H   0  0  0  0  0  0  0  0  0  0  0  0
  1 15  1  0  0  0  0
  1 17  3  0  0  0  0
  2  4  1  0  0  0  0
  2  8  2  0  0  0  0
  2 23  1  0  0  0  0
  3  5  2  0  0  0  0
  3  8  1  0  0  0  0
  3 24  1  0  0  0  0
  4  9  2  0  0  0  0
  4 25  1  0  0  0  0
  5  9  1  0  0  0  0
  5 26  1  0  0  0  0
  6 18  1  0  0  0  0
  6 19  2  0  0  0  0
  6 27  1  0  0  0  0
  7 18  2  0  0  0  0
  7 20  1  0  0  0  0
  7 28  1  0  0  0  0
  8 12  1  0  0  0  0
  9 22  1  0  0  0  0
 10 15  1  0  0  0  0
 10 29  1  0  0  0  0
 10 30  1  0  0  0  0
 10 31  1  0  0  0  0
 11 15  1  0  0  0  0
 11 32  1  0  0  0  0
 11 33  1  0  0  0  0
 11 34  1  0  0  0  0
 12 13  1  0  0  0  0
 12 35  1  0  0  0  0
 12 36  1  0  0  0  0
 13 16  1  0  0  0  0
 13 37  1  0  0  0  0
 13 38  1  0  0  0  0
 14 16  1  0  0  0  0
 14 20  1  0  0  0  0
 14 39  1  0  0  0  0
 14 40  1  0  0  0  0
 15 16  1  0  0  0  0
 16 21  1  0  0  0  0
 19 20  1  0  0  0  0
 21 41  1  0  0  0  0
M  END
$$$$
