
  -OEChem-05262117483D

 65 68  0     1  0  0  0  0  0999 V2000
    2.9323    3.8003   -3.5879 C   0  0  0  0  0  0  0  0  0  0  0  0
    2.9958    2.7951   -2.9081 C   0  0  0  0  0  0  0  0  0  0  0  0
    5.3836    6.6703   -0.0659 C   0  0  0  0  0  0  0  0  0  0  0  0
    4.5551    6.0787   -1.0208 C   0  0  0  0  0  0  0  0  0  0  0  0
    3.0072    5.1436   -5.6765 C   0  0  0  0  0  0  0  0  0  0  0  0
    2.7688    7.5326   -5.5542 C   0  0  0  0  0  0  0  0  0  0  0  0
    2.8619    5.0463   -4.2802 C   0  0  0  0  0  0  0  0  0  0  0  0
    2.9808    7.9268   -0.7457 C   0  0  0  0  0  0  0  0  0  0  0  0
    2.6192    7.4769   -4.1646 C   0  0  0  0  0  0  0  0  0  0  0  0
    5.0410    7.8702    0.5604 C   0  0  0  0  0  0  0  0  0  0  0  0
    2.9621    6.3778   -6.3274 C   0  0  0  0  0  0  0  0  0  0  0  0
    3.3606    6.7120   -1.3331 C   0  0  0  0  0  0  0  0  0  0  0  0
    2.6622    6.2256   -3.5402 C   0  0  0  0  0  0  0  0  0  0  0  0
    3.8342    8.5115    0.2115 C   0  0  0  0  0  0  0  0  0  0  0  0
    1.6191    8.4428   -1.1102 C   0  0  0  0  0  0  0  0  0  0  0  0
    2.4687    8.7604   -3.3808 C   0  0  0  0  0  0  0  0  0  0  0  0
    1.7904    2.6550   -0.1610 C   0  0  0  0  0  0  0  0  0  0  0  0
    3.2920    2.6952    0.2349 C   0  0  0  0  0  0  0  0  0  0  0  0
    1.6830    1.5433   -1.2196 C   0  0  0  0  0  0  0  0  0  0  0  0
    4.0454    1.8682   -0.8437 C   0  0  0  0  0  0  0  0  0  0  0  0
    3.0220    1.6491   -1.9929 C   0  0  0  0  0  0  0  0  0  0  0  0
    3.0869    6.4732   -7.8308 C   0  0  0  0  0  0  0  0  0  0  0  0
    4.1443    6.9677    4.7886 C   0  0  0  0  0  0  0  0  0  0  0  0
    4.1355    9.4018    4.1178 C   0  0  0  0  0  0  0  0  0  0  0  0
    2.8214   10.7309    0.2425 C   0  0  0  0  0  0  0  0  0  0  0  0
    5.7213    7.7547    2.9902 C   0  0  0  0  0  0  0  0  0  0  0  0
    5.9493    8.4414    1.6297 C   0  0  1  0  0  0  0  0  0  0  0  0
    4.3377    7.9591    3.6320 C   0  0  0  0  0  0  0  0  0  0  0  0
    0.7220    8.5852   -0.3082 O   0  0  0  0  0  0  0  0  0  0  0  0
    2.4421    6.0974   -2.1782 O   0  0  0  0  0  0  0  0  0  0  0  0
    1.3910    8.7442   -2.4193 O   0  0  0  0  0  0  0  0  0  0  0  0
    7.3043    8.2233    1.1896 O   0  0  0  0  0  0  0  0  0  0  0  0
    3.5865    9.6888    0.8596 O   0  0  0  0  0  0  0  0  0  0  0  0
    6.3289    6.2066    0.1967 H   0  0  0  0  0  0  0  0  0  0  0  0
    4.8051    5.1395   -1.5033 H   0  0  0  0  0  0  0  0  0  0  0  0
    3.1608    4.2307   -6.2454 H   0  0  0  0  0  0  0  0  0  0  0  0
    2.7269    8.5017   -6.0488 H   0  0  0  0  0  0  0  0  0  0  0  0
    3.4061    9.0188   -2.8790 H   0  0  0  0  0  0  0  0  0  0  0  0
    2.2161    9.5740   -4.0634 H   0  0  0  0  0  0  0  0  0  0  0  0
    1.1336    2.4745    0.6949 H   0  0  0  0  0  0  0  0  0  0  0  0
    1.4959    3.6104   -0.6048 H   0  0  0  0  0  0  0  0  0  0  0  0
    3.6524    3.7259    0.2727 H   0  0  0  0  0  0  0  0  0  0  0  0
    3.4556    2.2642    1.2274 H   0  0  0  0  0  0  0  0  0  0  0  0
    1.6382    0.5567   -0.7419 H   0  0  0  0  0  0  0  0  0  0  0  0
    0.8104    1.6458   -1.8699 H   0  0  0  0  0  0  0  0  0  0  0  0
    4.9602    2.3520   -1.1954 H   0  0  0  0  0  0  0  0  0  0  0  0
    4.3278    0.8875   -0.4456 H   0  0  0  0  0  0  0  0  0  0  0  0
    3.2416    0.7359   -2.5564 H   0  0  0  0  0  0  0  0  0  0  0  0
    2.1075    6.6352   -8.2961 H   0  0  0  0  0  0  0  0  0  0  0  0
    3.7311    7.3077   -8.1256 H   0  0  0  0  0  0  0  0  0  0  0  0
    3.5066    5.5569   -8.2546 H   0  0  0  0  0  0  0  0  0  0  0  0
    4.9004    7.1213    5.5689 H   0  0  0  0  0  0  0  0  0  0  0  0
    3.1592    7.0919    5.2515 H   0  0  0  0  0  0  0  0  0  0  0  0
    4.2250    5.9311    4.4429 H   0  0  0  0  0  0  0  0  0  0  0  0
    4.8737    9.6583    4.8888 H   0  0  0  0  0  0  0  0  0  0  0  0
    4.2258   10.1206    3.2999 H   0  0  0  0  0  0  0  0  0  0  0  0
    3.1397    9.5263    4.5568 H   0  0  0  0  0  0  0  0  0  0  0  0
    3.1744   11.6603    0.6938 H   0  0  0  0  0  0  0  0  0  0  0  0
    1.7551   10.6030    0.4338 H   0  0  0  0  0  0  0  0  0  0  0  0
    3.0048   10.7667   -0.8374 H   0  0  0  0  0  0  0  0  0  0  0  0
    6.4874    8.1197    3.6923 H   0  0  0  0  0  0  0  0  0  0  0  0
    5.9098    6.6836    2.8477 H   0  0  0  0  0  0  0  0  0  0  0  0
    5.7640    9.5161    1.7179 H   0  0  0  0  0  0  0  0  0  0  0  0
    3.5729    7.7435    2.8763 H   0  0  0  0  0  0  0  0  0  0  0  0
    7.8897    8.4727    1.9219 H   0  0  0  0  0  0  0  0  0  0  0  0
  1  2  3  0  0  0  0
  1  7  1  0  0  0  0
  2 21  1  0  0  0  0
  3  4  1  0  0  0  0
  3 10  2  0  0  0  0
  3 34  1  0  0  0  0
  4 12  2  0  0  0  0
  4 35  1  0  0  0  0
  5  7  2  0  0  0  0
  5 11  1  0  0  0  0
  5 36  1  0  0  0  0
  6  9  1  0  0  0  0
  6 11  2  0  0  0  0
  6 37  1  0  0  0  0
  7 13  1  0  0  0  0
  8 12  1  0  0  0  0
  8 14  2  0  0  0  0
  8 15  1  0  0  0  0
  9 13  2  0  0  0  0
  9 16  1  0  0  0  0
 10 14  1  0  0  0  0
 10 27  1  0  0  0  0
 11 22  1  0  0  0  0
 12 30  1  0  0  0  0
 13 30  1  0  0  0  0
 14 33  1  0  0  0  0
 15 29  2  0  0  0  0
 15 31  1  0  0  0  0
 16 31  1  0  0  0  0
 16 38  1  0  0  0  0
 16 39  1  0  0  0  0
 17 18  1  0  0  0  0
 17 19  1  0  0  0  0
 17 40  1  0  0  0  0
 17 41  1  0  0  0  0
 18 20  1  0  0  0  0
 18 42  1  0  0  0  0
 18 43  1  0  0  0  0
 19 21  1  0  0  0  0
 19 44  1  0  0  0  0
 19 45  1  0  0  0  0
 20 21  1  0  0  0  0
 20 46  1  0  0  0  0
 20 47  1  0  0  0  0
 21 48  1  0  0  0  0
 22 49  1  0  0  0  0
 22 50  1  0  0  0  0
 22 51  1  0  0  0  0
 23 28  1  0  0  0  0
 23 52  1  0  0  0  0
 23 53  1  0  0  0  0
 23 54  1  0  0  0  0
 24 28  1  0  0  0  0
 24 55  1  0  0  0  0
 24 56  1  0  0  0  0
 24 57  1  0  0  0  0
 25 33  1  0  0  0  0
 25 58  1  0  0  0  0
 25 59  1  0  0  0  0
 25 60  1  0  0  0  0
 26 27  1  0  0  0  0
 26 28  1  0  0  0  0
 26 61  1  0  0  0  0
 26 62  1  0  0  0  0
 27 32  1  0  0  0  0
 27 63  1  0  0  0  0
 28 64  1  0  0  0  0
 32 65  1  0  0  0  0
M  END
$$$$
