
  -OEChem-05262117483D

 69 71  0     0  0  0  0  0  0999 V2000
   -9.0599   -3.6952   -2.9086 C   0  0  0  0  0  0  0  0  0  0  0  0
   -8.5150   -2.6866   -0.7560 C   0  0  0  0  0  0  0  0  0  0  0  0
   -7.7646   -2.6281    0.4164 C   0  0  0  0  0  0  0  0  0  0  0  0
   -6.5510   -4.6155   -0.2738 C   0  0  0  0  0  0  0  0  0  0  0  0
   -8.2774   -3.6942   -1.7036 C   0  0  0  0  0  0  0  0  0  0  0  0
   -7.2860   -4.6655   -1.4526 C   0  0  0  0  0  0  0  0  0  0  0  0
   -6.7800   -3.5886    0.6444 C   0  0  0  0  0  0  0  0  0  0  0  0
   -6.5977   -3.5549    3.1354 C   0  0  0  0  0  0  0  0  0  0  0  0
   -4.6283   -3.4659    1.9349 C   0  0  0  0  0  0  0  0  0  0  0  0
    1.6675   -5.2571   -1.0913 C   0  0  0  0  0  0  0  0  0  0  0  0
   -0.3239   -3.7190   -1.1593 C   0  0  0  0  0  0  0  0  0  0  0  0
   -0.0547   -5.3122    0.6387 C   0  0  0  0  0  0  0  0  0  0  0  0
   -0.1037   -2.5468   -0.1951 C   0  0  0  0  0  0  0  0  0  0  0  0
    0.2202   -4.1992    1.6474 C   0  0  0  0  0  0  0  0  0  0  0  0
   -5.4447   -3.5434    4.1407 C   0  0  0  0  0  0  0  0  0  0  0  0
   -5.4614   -4.8541    4.9424 C   0  0  0  0  0  0  0  0  0  0  0  0
   -5.5486   -2.3116    5.0492 C   0  0  0  0  0  0  0  0  0  0  0  0
    3.8926   -4.8914   -4.2735 C   0  0  0  0  0  0  0  0  0  0  0  0
    2.1408   -4.7451   -2.4441 C   0  0  0  0  0  0  0  0  0  0  0  0
    3.4208   -5.4383   -2.9230 C   0  0  0  0  0  0  0  0  0  0  0  0
   -2.3282   -1.9506    3.6293 C   0  0  0  0  0  0  0  0  0  0  0  0
   -0.7881   -1.9023    3.5689 C   0  0  0  0  0  0  0  0  0  0  0  0
   -2.8971   -3.3834    3.6826 C   0  0  0  0  0  0  0  0  0  0  0  0
   -0.2019   -1.7683    2.1617 C   0  0  0  0  0  0  0  0  0  0  0  0
   -7.0075   -5.7620   -2.4611 C   0  0  0  0  0  0  0  0  0  0  0  0
   -9.7094   -3.6557   -3.8735 N   0  0  0  0  0  0  0  0  0  0  0  0
   -6.0166   -3.5408    1.8530 N   0  0  0  0  0  0  0  0  0  0  0  0
   -4.2787   -3.4685    3.2342 N   0  0  0  0  0  0  0  0  0  0  0  0
    0.3728   -4.9061   -0.6924 N   0  0  0  0  0  0  0  0  0  0  0  0
   -0.4712   -2.9233    1.2247 N   0  3  0  0  0  0  0  0  0  0  0  0
   -7.7804   -3.5761    3.3808 O   0  0  0  0  0  0  0  0  0  0  0  0
    2.3543   -5.9752   -0.3740 O   0  0  0  0  0  0  0  0  0  0  0  0
   -6.0434   -6.6052   -2.0181 F   0  0  0  0  0  0  0  0  0  0  0  0
   -8.1065   -6.4999   -2.7116 F   0  0  0  0  0  0  0  0  0  0  0  0
   -6.5798   -5.2467   -3.6353 F   0  0  0  0  0  0  0  0  0  0  0  0
   -3.6024   -3.3750    0.6029 S   0  0  0  0  0  0  0  0  0  0  0  0
   -9.2854   -1.9477   -0.9494 H   0  0  0  0  0  0  0  0  0  0  0  0
   -7.9496   -1.8477    1.1465 H   0  0  0  0  0  0  0  0  0  0  0  0
   -5.7987   -5.3680   -0.0749 H   0  0  0  0  0  0  0  0  0  0  0  0
   -1.3935   -3.9374   -1.2501 H   0  0  0  0  0  0  0  0  0  0  0  0
    0.0256   -3.4196   -2.1461 H   0  0  0  0  0  0  0  0  0  0  0  0
    0.5047   -6.1991    0.9342 H   0  0  0  0  0  0  0  0  0  0  0  0
   -1.1228   -5.5551    0.6156 H   0  0  0  0  0  0  0  0  0  0  0  0
    0.9463   -2.2430   -0.1824 H   0  0  0  0  0  0  0  0  0  0  0  0
   -0.7241   -1.6900   -0.4678 H   0  0  0  0  0  0  0  0  0  0  0  0
   -0.1413   -4.4629    2.6414 H   0  0  0  0  0  0  0  0  0  0  0  0
    1.2909   -3.9879    1.7032 H   0  0  0  0  0  0  0  0  0  0  0  0
   -4.6597   -4.8646    5.6861 H   0  0  0  0  0  0  0  0  0  0  0  0
   -5.3466   -5.7206    4.2854 H   0  0  0  0  0  0  0  0  0  0  0  0
   -6.4159   -4.9386    5.4668 H   0  0  0  0  0  0  0  0  0  0  0  0
   -4.7389   -2.3068    5.7846 H   0  0  0  0  0  0  0  0  0  0  0  0
   -6.4991   -2.3439    5.5864 H   0  0  0  0  0  0  0  0  0  0  0  0
   -5.5080   -1.3853    4.4695 H   0  0  0  0  0  0  0  0  0  0  0  0
    4.1147   -3.8193   -4.2171 H   0  0  0  0  0  0  0  0  0  0  0  0
    3.1357   -5.0350   -5.0529 H   0  0  0  0  0  0  0  0  0  0  0  0
    4.8040   -5.4003   -4.6007 H   0  0  0  0  0  0  0  0  0  0  0  0
    2.3181   -3.6622   -2.3699 H   0  0  0  0  0  0  0  0  0  0  0  0
    1.3416   -4.8732   -3.1842 H   0  0  0  0  0  0  0  0  0  0  0  0
    3.2369   -6.5149   -2.9939 H   0  0  0  0  0  0  0  0  0  0  0  0
    4.2006   -5.3136   -2.1666 H   0  0  0  0  0  0  0  0  0  0  0  0
   -2.7495   -1.4303    2.7641 H   0  0  0  0  0  0  0  0  0  0  0  0
   -2.6743   -1.4062    4.5114 H   0  0  0  0  0  0  0  0  0  0  0  0
   -0.4356   -1.0121    4.0995 H   0  0  0  0  0  0  0  0  0  0  0  0
   -0.3443   -2.7487    4.1039 H   0  0  0  0  0  0  0  0  0  0  0  0
   -2.8514   -3.7703    4.7027 H   0  0  0  0  0  0  0  0  0  0  0  0
   -2.3146   -4.0710    3.0641 H   0  0  0  0  0  0  0  0  0  0  0  0
    0.8842   -1.6520    2.2026 H   0  0  0  0  0  0  0  0  0  0  0  0
   -0.6194   -0.8834    1.6748 H   0  0  0  0  0  0  0  0  0  0  0  0
   -1.5089   -3.1015    1.2068 H   0  0  0  0  0  0  0  0  0  0  0  0
  1  5  1  0  0  0  0
  1 26  3  0  0  0  0
  2  3  1  0  0  0  0
  2  5  2  0  0  0  0
  2 37  1  0  0  0  0
  3  7  2  0  0  0  0
  3 38  1  0  0  0  0
  4  6  2  0  0  0  0
  4  7  1  0  0  0  0
  4 39  1  0  0  0  0
  5  6  1  0  0  0  0
  6 25  1  0  0  0  0
  7 27  1  0  0  0  0
  8 15  1  0  0  0  0
  8 27  1  0  0  0  0
  8 31  2  0  0  0  0
  9 27  1  0  0  0  0
  9 28  1  0  0  0  0
  9 36  2  0  0  0  0
 10 19  1  0  0  0  0
 10 29  1  0  0  0  0
 10 32  2  0  0  0  0
 11 13  1  0  0  0  0
 11 29  1  0  0  0  0
 11 40  1  0  0  0  0
 11 41  1  0  0  0  0
 12 14  1  0  0  0  0
 12 29  1  0  0  0  0
 12 42  1  0  0  0  0
 12 43  1  0  0  0  0
 13 30  1  0  0  0  0
 13 44  1  0  0  0  0
 13 45  1  0  0  0  0
 14 30  1  0  0  0  0
 14 46  1  0  0  0  0
 14 47  1  0  0  0  0
 15 16  1  0  0  0  0
 15 17  1  0  0  0  0
 15 28  1  0  0  0  0
 16 48  1  0  0  0  0
 16 49  1  0  0  0  0
 16 50  1  0  0  0  0
 17 51  1  0  0  0  0
 17 52  1  0  0  0  0
 17 53  1  0  0  0  0
 18 20  1  0  0  0  0
 18 54  1  0  0  0  0
 18 55  1  0  0  0  0
 18 56  1  0  0  0  0
 19 20  1  0  0  0  0
 19 57  1  0  0  0  0
 19 58  1  0  0  0  0
 20 59  1  0  0  0  0
 20 60  1  0  0  0  0
 21 22  1  0  0  0  0
 21 23  1  0  0  0  0
 21 61  1  0  0  0  0
 21 62  1  0  0  0  0
 22 24  1  0  0  0  0
 22 63  1  0  0  0  0
 22 64  1  0  0  0  0
 23 28  1  0  0  0  0
 23 65  1  0  0  0  0
 23 66  1  0  0  0  0
 24 30  1  0  0  0  0
 24 67  1  0  0  0  0
 24 68  1  0  0  0  0
 25 33  1  0  0  0  0
 25 34  1  0  0  0  0
 25 35  1  0  0  0  0
 30 69  1  0  0  0  0
M  CHG  1  30   1
M  END
$$$$
