
  -OEChem-05262117483D

 60 63  0     1  0  0  0  0  0999 V2000
   10.3559   -6.4598    2.6019 C   0  0  0  0  0  0  0  0  0  0  0  0
    8.2309   -5.8895    1.4937 C   0  0  0  0  0  0  0  0  0  0  0  0
    8.9608   -4.6015    3.4208 C   0  0  0  0  0  0  0  0  0  0  0  0
    7.0915   -5.0960    1.4038 C   0  0  0  0  0  0  0  0  0  0  0  0
    7.8166   -3.8159    3.3204 C   0  0  0  0  0  0  0  0  0  0  0  0
    4.9892   -2.7373    3.3622 C   0  0  0  0  0  0  0  0  0  0  0  0
    5.1286   -2.8398    0.9543 C   0  0  0  0  0  0  0  0  0  0  0  0
    3.8506   -1.9443    3.2684 C   0  0  0  0  0  0  0  0  0  0  0  0
    3.9954   -2.0336    0.8561 C   0  0  0  0  0  0  0  0  0  0  0  0
    2.9807    0.9776    0.3034 C   0  0  0  0  0  0  0  0  0  0  0  0
    0.5182    1.0448   -0.9868 C   0  0  0  0  0  0  0  0  0  0  0  0
    9.1768   -5.6462    2.5051 C   0  0  0  0  0  0  0  0  0  0  0  0
    6.8618   -4.0453    2.3120 C   0  0  0  0  0  0  0  0  0  0  0  0
    5.6489   -3.2026    2.2081 C   0  0  0  0  0  0  0  0  0  0  0  0
    3.3388   -1.5791    2.0107 C   0  0  0  0  0  0  0  0  0  0  0  0
    1.9309    0.1602    0.7504 C   0  0  0  0  0  0  0  0  0  0  0  0
    0.6842    0.1918    0.1082 C   0  0  0  0  0  0  0  0  0  0  0  0
    2.7979    1.8504   -0.7709 C   0  0  0  0  0  0  0  0  0  0  0  0
    1.5487    1.8702   -1.4350 C   0  0  0  0  0  0  0  0  0  0  0  0
    2.1265   -0.7269    1.9257 C   0  0  0  0  0  0  0  0  0  0  0  0
    0.0641    0.8467    4.0153 C   0  0  0  0  0  0  0  0  0  0  0  0
   -0.4199   -0.7071    0.6029 C   0  0  0  0  0  0  0  0  0  0  0  0
   -0.9321   -0.3065    2.0008 C   0  0  1  0  0  0  0  0  0  0  0  0
   -1.7784   -1.4369    2.6082 C   0  0  0  0  0  0  0  0  0  0  0  0
   -1.3589    2.2420    5.4203 C   0  0  0  0  0  0  0  0  0  0  0  0
    4.9945    2.7676   -0.5398 C   0  0  0  0  0  0  0  0  0  0  0  0
    2.0536    2.5095   -3.6729 C   0  0  0  0  0  0  0  0  0  0  0  0
   11.3137   -7.1200    2.6792 N   0  0  0  0  0  0  0  0  0  0  0  0
    1.3043   -0.8087    2.9204 N   0  0  0  0  0  0  0  0  0  0  0  0
    0.1993    0.0880    2.8535 N   0  0  0  0  0  0  0  0  0  0  0  0
   -1.1648    1.4708    4.1953 N   0  0  0  0  0  0  0  0  0  0  0  0
    1.0083    1.0327    4.7804 O   0  0  0  0  0  0  0  0  0  0  0  0
    3.7516    2.7133   -1.2373 O   0  0  0  0  0  0  0  0  0  0  0  0
    1.2919    2.7293   -2.4747 O   0  0  0  0  0  0  0  0  0  0  0  0
    8.3913   -6.7032    0.7931 H   0  0  0  0  0  0  0  0  0  0  0  0
    9.6947   -4.4075    4.1971 H   0  0  0  0  0  0  0  0  0  0  0  0
    6.3546   -5.3116    0.6359 H   0  0  0  0  0  0  0  0  0  0  0  0
    7.6744   -2.9951    4.0170 H   0  0  0  0  0  0  0  0  0  0  0  0
    5.3592   -3.0215    4.3435 H   0  0  0  0  0  0  0  0  0  0  0  0
    5.6317   -3.1640    0.0474 H   0  0  0  0  0  0  0  0  0  0  0  0
    3.3394   -1.5922    4.1585 H   0  0  0  0  0  0  0  0  0  0  0  0
    3.6175   -1.7566   -0.1234 H   0  0  0  0  0  0  0  0  0  0  0  0
    3.9284    0.9410    0.8274 H   0  0  0  0  0  0  0  0  0  0  0  0
   -0.4290    1.0919   -1.5179 H   0  0  0  0  0  0  0  0  0  0  0  0
   -1.2665   -0.6980   -0.0897 H   0  0  0  0  0  0  0  0  0  0  0  0
   -0.0600   -1.7416    0.6478 H   0  0  0  0  0  0  0  0  0  0  0  0
   -1.5345    0.5987    1.8756 H   0  0  0  0  0  0  0  0  0  0  0  0
   -1.1589   -2.3255    2.7607 H   0  0  0  0  0  0  0  0  0  0  0  0
   -2.6069   -1.7003    1.9416 H   0  0  0  0  0  0  0  0  0  0  0  0
   -2.1994   -1.1584    3.5794 H   0  0  0  0  0  0  0  0  0  0  0  0
   -1.3740    1.6121    6.3188 H   0  0  0  0  0  0  0  0  0  0  0  0
   -2.3038    2.7863    5.3416 H   0  0  0  0  0  0  0  0  0  0  0  0
   -0.5440    2.9590    5.5257 H   0  0  0  0  0  0  0  0  0  0  0  0
    5.5852    3.5320   -1.0459 H   0  0  0  0  0  0  0  0  0  0  0  0
    5.5229    1.8076   -0.5880 H   0  0  0  0  0  0  0  0  0  0  0  0
    4.8482    3.0535    0.5084 H   0  0  0  0  0  0  0  0  0  0  0  0
    1.6766    3.2286   -4.4025 H   0  0  0  0  0  0  0  0  0  0  0  0
    1.8903    1.4907   -4.0462 H   0  0  0  0  0  0  0  0  0  0  0  0
    3.1201    2.6774   -3.5034 H   0  0  0  0  0  0  0  0  0  0  0  0
   -1.9865    0.9967    3.8492 H   0  0  0  0  0  0  0  0  0  0  0  0
  1 12  1  0  0  0  0
  1 28  3  0  0  0  0
  2  4  1  0  0  0  0
  2 12  2  0  0  0  0
  2 35  1  0  0  0  0
  3  5  2  0  0  0  0
  3 12  1  0  0  0  0
  3 36  1  0  0  0  0
  4 13  2  0  0  0  0
  4 37  1  0  0  0  0
  5 13  1  0  0  0  0
  5 38  1  0  0  0  0
  6  8  2  0  0  0  0
  6 14  1  0  0  0  0
  6 39  1  0  0  0  0
  7  9  1  0  0  0  0
  7 14  2  0  0  0  0
  7 40  1  0  0  0  0
  8 15  1  0  0  0  0
  8 41  1  0  0  0  0
  9 15  2  0  0  0  0
  9 42  1  0  0  0  0
 10 16  2  0  0  0  0
 10 18  1  0  0  0  0
 10 43  1  0  0  0  0
 11 17  2  0  0  0  0
 11 19  1  0  0  0  0
 11 44  1  0  0  0  0
 13 14  1  0  0  0  0
 15 20  1  0  0  0  0
 16 17  1  0  0  0  0
 16 20  1  0  0  0  0
 17 22  1  0  0  0  0
 18 19  2  0  0  0  0
 18 33  1  0  0  0  0
 19 34  1  0  0  0  0
 20 29  2  0  0  0  0
 21 30  1  0  0  0  0
 21 31  1  0  0  0  0
 21 32  2  0  0  0  0
 22 23  1  0  0  0  0
 22 45  1  0  0  0  0
 22 46  1  0  0  0  0
 23 24  1  0  0  0  0
 23 30  1  0  0  0  0
 23 47  1  0  0  0  0
 24 48  1  0  0  0  0
 24 49  1  0  0  0  0
 24 50  1  0  0  0  0
 25 31  1  0  0  0  0
 25 51  1  0  0  0  0
 25 52  1  0  0  0  0
 25 53  1  0  0  0  0
 26 33  1  0  0  0  0
 26 54  1  0  0  0  0
 26 55  1  0  0  0  0
 26 56  1  0  0  0  0
 27 34  1  0  0  0  0
 27 57  1  0  0  0  0
 27 58  1  0  0  0  0
 27 59  1  0  0  0  0
 29 30  1  0  0  0  0
 31 60  1  0  0  0  0
M  END
$$$$
