
  -OEChem-05262117483D

 68 70  0     0  0  0  0  0  0999 V2000
  -10.0031   -2.4082    8.5874 C   0  0  0  0  0  0  0  0  0  0  0  0
   -7.9665   -3.3930    9.4940 C   0  0  0  0  0  0  0  0  0  0  0  0
   -6.5809   -3.5286    9.5328 C   0  0  0  0  0  0  0  0  0  0  0  0
   -6.3747   -1.8572    7.7863 C   0  0  0  0  0  0  0  0  0  0  0  0
   -8.5694   -2.5001    8.5958 C   0  0  0  0  0  0  0  0  0  0  0  0
   -7.7576   -1.7269    7.7391 C   0  0  0  0  0  0  0  0  0  0  0  0
   -5.7887   -2.7651    8.6745 C   0  0  0  0  0  0  0  0  0  0  0  0
   -3.6487   -2.7951    9.9191 C   0  0  0  0  0  0  0  0  0  0  0  0
   -3.5236   -3.1318    7.6219 C   0  0  0  0  0  0  0  0  0  0  0  0
    4.1183   -0.7025    0.3213 C   0  0  0  0  0  0  0  0  0  0  0  0
    4.0714   -0.3959    2.7587 C   0  0  0  0  0  0  0  0  0  0  0  0
    2.9735   -2.3705    1.8380 C   0  0  0  0  0  0  0  0  0  0  0  0
    2.8270   -0.1224    3.5996 C   0  0  0  0  0  0  0  0  0  0  0  0
    1.7485   -2.0671    2.7031 C   0  0  0  0  0  0  0  0  0  0  0  0
   -2.1760   -2.9778    9.5531 C   0  0  0  0  0  0  0  0  0  0  0  0
   -1.6412   -4.2386   10.2531 C   0  0  0  0  0  0  0  0  0  0  0  0
   -1.3811   -1.7281    9.9565 C   0  0  0  0  0  0  0  0  0  0  0  0
    3.8292   -1.8082   -3.4151 C   0  0  0  0  0  0  0  0  0  0  0  0
    3.7235   -1.5461   -0.8918 C   0  0  0  0  0  0  0  0  0  0  0  0
    4.2353   -0.9562   -2.2081 C   0  0  0  0  0  0  0  0  0  0  0  0
   -0.6386   -2.0996    6.5042 C   0  0  0  0  0  0  0  0  0  0  0  0
    0.4996   -2.4001    5.5244 C   0  0  0  0  0  0  0  0  0  0  0  0
   -1.0924   -3.3654    7.2402 C   0  0  0  0  0  0  0  0  0  0  0  0
    0.9962   -1.1343    4.8199 C   0  0  0  0  0  0  0  0  0  0  0  0
   -8.3839   -0.7501    6.7686 C   0  0  0  0  0  0  0  0  0  0  0  0
  -11.1665   -2.3683    8.6158 N   0  0  0  0  0  0  0  0  0  0  0  0
   -4.3730   -2.8896    8.7329 N   0  0  0  0  0  0  0  0  0  0  0  0
   -2.2565   -3.1496    8.0956 N   0  0  0  0  0  0  0  0  0  0  0  0
    3.7156   -1.1479    1.5581 N   0  0  0  0  0  0  0  0  0  0  0  0
    2.1370   -1.3738    3.9332 N   0  0  0  0  0  0  0  0  0  0  0  0
   -4.1002   -2.6107   11.0327 O   0  0  0  0  0  0  0  0  0  0  0  0
    4.7682    0.3374    0.1915 O   0  0  0  0  0  0  0  0  0  0  0  0
   -7.4479   -0.0751    6.0628 F   0  0  0  0  0  0  0  0  0  0  0  0
   -9.1835   -1.3793    5.8769 F   0  0  0  0  0  0  0  0  0  0  0  0
   -9.1424    0.1702    7.4094 F   0  0  0  0  0  0  0  0  0  0  0  0
   -4.0239   -3.3797    6.0595 S   0  0  0  0  0  0  0  0  0  0  0  0
   -8.5922   -3.9831   10.1552 H   0  0  0  0  0  0  0  0  0  0  0  0
   -6.1183   -4.2184   10.2293 H   0  0  0  0  0  0  0  0  0  0  0  0
   -5.7522   -1.2616    7.1322 H   0  0  0  0  0  0  0  0  0  0  0  0
    4.5455    0.5341    2.4470 H   0  0  0  0  0  0  0  0  0  0  0  0
    4.7900   -0.9783    3.3515 H   0  0  0  0  0  0  0  0  0  0  0  0
    3.6228   -3.0771    2.3743 H   0  0  0  0  0  0  0  0  0  0  0  0
    2.6525   -2.8446    0.9123 H   0  0  0  0  0  0  0  0  0  0  0  0
    3.1277    0.3699    4.5305 H   0  0  0  0  0  0  0  0  0  0  0  0
    2.1648    0.5725    3.0490 H   0  0  0  0  0  0  0  0  0  0  0  0
    1.0306   -1.4639    2.1132 H   0  0  0  0  0  0  0  0  0  0  0  0
    1.2601   -3.0122    2.9554 H   0  0  0  0  0  0  0  0  0  0  0  0
   -0.5780   -4.3794   10.0400 H   0  0  0  0  0  0  0  0  0  0  0  0
   -2.1847   -5.1283    9.9226 H   0  0  0  0  0  0  0  0  0  0  0  0
   -1.7660   -4.1304   11.3332 H   0  0  0  0  0  0  0  0  0  0  0  0
   -0.3225   -1.8546    9.7126 H   0  0  0  0  0  0  0  0  0  0  0  0
   -1.4749   -1.5730   11.0342 H   0  0  0  0  0  0  0  0  0  0  0  0
   -1.7564   -0.8405    9.4402 H   0  0  0  0  0  0  0  0  0  0  0  0
    2.7388   -1.8879   -3.5012 H   0  0  0  0  0  0  0  0  0  0  0  0
    4.2301   -2.8263   -3.3411 H   0  0  0  0  0  0  0  0  0  0  0  0
    4.2035   -1.3725   -4.3475 H   0  0  0  0  0  0  0  0  0  0  0  0
    2.6302   -1.6388   -0.9282 H   0  0  0  0  0  0  0  0  0  0  0  0
    4.1095   -2.5661   -0.7665 H   0  0  0  0  0  0  0  0  0  0  0  0
    5.3243   -0.8618   -2.1591 H   0  0  0  0  0  0  0  0  0  0  0  0
    3.8523    0.0629   -2.3168 H   0  0  0  0  0  0  0  0  0  0  0  0
   -1.4961   -1.6857    5.9644 H   0  0  0  0  0  0  0  0  0  0  0  0
   -0.3201   -1.3458    7.2337 H   0  0  0  0  0  0  0  0  0  0  0  0
    1.3478   -2.8591    6.0474 H   0  0  0  0  0  0  0  0  0  0  0  0
    0.1453   -3.1338    4.7917 H   0  0  0  0  0  0  0  0  0  0  0  0
   -0.2861   -3.7519    7.8692 H   0  0  0  0  0  0  0  0  0  0  0  0
   -1.3507   -4.1438    6.5169 H   0  0  0  0  0  0  0  0  0  0  0  0
    0.1571   -0.6550    4.2795 H   0  0  0  0  0  0  0  0  0  0  0  0
    1.3216   -0.4193    5.5844 H   0  0  0  0  0  0  0  0  0  0  0  0
  1  5  1  0  0  0  0
  1 26  3  0  0  0  0
  2  3  1  0  0  0  0
  2  5  2  0  0  0  0
  2 37  1  0  0  0  0
  3  7  2  0  0  0  0
  3 38  1  0  0  0  0
  4  6  2  0  0  0  0
  4  7  1  0  0  0  0
  4 39  1  0  0  0  0
  5  6  1  0  0  0  0
  6 25  1  0  0  0  0
  7 27  1  0  0  0  0
  8 15  1  0  0  0  0
  8 27  1  0  0  0  0
  8 31  2  0  0  0  0
  9 27  1  0  0  0  0
  9 28  1  0  0  0  0
  9 36  2  0  0  0  0
 10 19  1  0  0  0  0
 10 29  1  0  0  0  0
 10 32  2  0  0  0  0
 11 13  1  0  0  0  0
 11 29  1  0  0  0  0
 11 40  1  0  0  0  0
 11 41  1  0  0  0  0
 12 14  1  0  0  0  0
 12 29  1  0  0  0  0
 12 42  1  0  0  0  0
 12 43  1  0  0  0  0
 13 30  1  0  0  0  0
 13 44  1  0  0  0  0
 13 45  1  0  0  0  0
 14 30  1  0  0  0  0
 14 46  1  0  0  0  0
 14 47  1  0  0  0  0
 15 16  1  0  0  0  0
 15 17  1  0  0  0  0
 15 28  1  0  0  0  0
 16 48  1  0  0  0  0
 16 49  1  0  0  0  0
 16 50  1  0  0  0  0
 17 51  1  0  0  0  0
 17 52  1  0  0  0  0
 17 53  1  0  0  0  0
 18 20  1  0  0  0  0
 18 54  1  0  0  0  0
 18 55  1  0  0  0  0
 18 56  1  0  0  0  0
 19 20  1  0  0  0  0
 19 57  1  0  0  0  0
 19 58  1  0  0  0  0
 20 59  1  0  0  0  0
 20 60  1  0  0  0  0
 21 22  1  0  0  0  0
 21 23  1  0  0  0  0
 21 61  1  0  0  0  0
 21 62  1  0  0  0  0
 22 24  1  0  0  0  0
 22 63  1  0  0  0  0
 22 64  1  0  0  0  0
 23 28  1  0  0  0  0
 23 65  1  0  0  0  0
 23 66  1  0  0  0  0
 24 30  1  0  0  0  0
 24 67  1  0  0  0  0
 24 68  1  0  0  0  0
 25 33  1  0  0  0  0
 25 34  1  0  0  0  0
 25 35  1  0  0  0  0
M  END
$$$$
