69
1 1 C25F3H33N5O2S
C                    -8.901947627953    -4.603587399678    -3.703886513346
C                    -7.168242983738    -3.568964792909    -2.339650296642
C                    -6.474944281694    -3.423870693661    -1.141437513585
C                    -7.890130098290    -5.112775766731    -0.124199314831
C                    -8.225821752998    -4.487350370914    -2.441206462594
C                    -8.588351381377    -5.259040014379    -1.318883163239
C                    -6.834159212818    -4.204636324258    -0.043843676014
C                    -6.749969256476    -3.595052620842     2.368623828448
C                    -4.800236768596    -4.403973453023     1.415312300534
C                     1.755271801196    -5.719538415855    -3.825396290295
C                     0.693314191062    -6.383162712045    -1.610905997959
C                     2.280397059630    -4.542420784875    -1.732191985866
C                    -0.276450578188    -5.525066764619    -0.799499694504
C                     1.349319282646    -3.643184960642    -0.929267366494
C                    -5.678785896766    -3.624791358769     3.460731685876
C                    -6.119019758590    -4.589732624826     4.572221510621
C                    -5.433731513614    -2.206200847750     3.991714364521
C                     0.593060996989    -8.093581775663    -6.691263220450
C                     1.013026366208    -6.850783685315    -4.520772420358
C                     1.346098292092    -6.945252983059    -6.013201043748
C                    -2.067145300779    -3.533466654266     2.777117360712
C                    -0.956206132549    -4.348733511852     2.075942268645
C                    -3.222137921454    -4.414055506577     3.324625486922
C                    -0.442725244007    -3.613044545461     0.843256553705
C                    -9.726638824738    -6.256481360301    -1.406704587606
N                    -9.411635146702    -4.664818986859    -4.748436151205
N                    -6.139810131052    -4.062267979779     1.196670644246
N                    -4.514152117113    -4.136991019323     2.707207642991
N                     1.522372787910    -5.547075625819    -2.454923450284
N                     0.477570774856    -4.474060947827    -0.005426844590
O                    -7.901906339143    -3.243464355722     2.484346946763
O                     2.522583080046    -4.966174798333    -4.407692171786
F                    -9.912106763863    -6.897869423720    -0.230470746069
F                   -10.888569249692    -5.651703676062    -1.728425995703
F                    -9.479501526000    -7.197556215563    -2.345197724843
S                    -3.780685218748    -5.046264816649     0.255402279462
H                    -6.902895612368    -2.970454815848    -3.204679021164
H                    -5.659629708199    -2.713236532494    -1.059383422301
H                    -8.166367825529    -5.702845065652     0.741458130426
H                     1.313619776198    -6.990918076448    -0.932382156474
H                     0.100501261766    -7.075640088725    -2.206056504082
H                     2.832615767908    -3.941205966127    -2.456213674283
H                     3.014590142590    -5.018104847179    -1.062928433353
H                    -0.961178673211    -4.979967564199    -1.451155700848
H                    -0.858372320808    -6.123731287885    -0.099678819837
H                     1.908095951802    -2.943027650979    -0.304556799129
H                     0.670312498163    -3.088290615967    -1.579941960784
H                    -5.391405613092    -4.605285487013     5.388406247246
H                    -6.238065501234    -5.606262339964     4.186936600711
H                    -7.077881408217    -4.254888076997     4.974569363972
H                    -4.664732572221    -2.214628979099     4.769944177925
H                    -6.358039822881    -1.817451864443     4.425091825396
H                    -5.116440811050    -1.534055401440     3.189381841530
H                    -0.492706264393    -7.965168723247    -6.612376619904
H                     0.848489581850    -9.061258379889    -6.244329350710
H                     0.842638273636    -8.145383377324    -7.754913414477
H                    -0.068271649665    -6.707243170980    -4.390275753842
H                     1.257246173397    -7.799051016681    -4.023502388823
H                     2.425791662741    -7.076595348842    -6.129941875674
H                     1.103413411028    -5.993566478982    -6.495002775615
H                    -2.498378144005    -2.815405898413     2.075188048242
H                    -1.635807458211    -2.943917372499     3.590943972559
H                    -0.128305761736    -4.546114018463     2.768015068180
H                    -1.376780754073    -5.308148707300     1.772188226052
H                    -3.347800353063    -4.250898858719     4.394934524170
H                    -2.993131122971    -5.475802239593     3.188426253323
H                     0.127244803763    -2.721073371812     1.114290167042
H                    -1.271114315265    -3.323886686743     0.193829193059
H                     1.108454596558    -4.970630660951     0.634998195683
