
  -OEChem-05262117483D

 65 68  0     1  0  0  0  0  0999 V2000
    5.6050    1.4907    0.6714 C   0  0  0  0  0  0  0  0  0  0  0  0
    4.6976    0.7749    0.2959 C   0  0  0  0  0  0  0  0  0  0  0  0
    4.7365    1.6012   -3.5384 C   0  0  0  0  0  0  0  0  0  0  0  0
    4.8852    2.4885   -2.4787 C   0  0  0  0  0  0  0  0  0  0  0  0
    7.5918    1.9977    2.0504 C   0  0  0  0  0  0  0  0  0  0  0  0
    9.1994    3.6069    1.2810 C   0  0  0  0  0  0  0  0  0  0  0  0
    6.7673    2.2733    0.9459 C   0  0  0  0  0  0  0  0  0  0  0  0
    7.2980    2.4355   -2.7974 C   0  0  0  0  0  0  0  0  0  0  0  0
    8.3988    3.9194    0.1777 C   0  0  0  0  0  0  0  0  0  0  0  0
    5.8459    1.0654   -4.2080 C   0  0  0  0  0  0  0  0  0  0  0  0
    8.8000    2.6721    2.2445 C   0  0  0  0  0  0  0  0  0  0  0  0
    6.1663    2.8643   -2.0824 C   0  0  0  0  0  0  0  0  0  0  0  0
    7.1571    3.2871    0.0462 C   0  0  0  0  0  0  0  0  0  0  0  0
    7.1238    1.5046   -3.8422 C   0  0  0  0  0  0  0  0  0  0  0  0
    8.6265    3.0016   -2.4268 C   0  0  0  0  0  0  0  0  0  0  0  0
    8.9265    4.8247   -0.9146 C   0  0  0  0  0  0  0  0  0  0  0  0
    1.3361   -0.7059   -0.5553 C   0  0  0  0  0  0  0  0  0  0  0  0
    2.0887   -1.9510    0.0023 C   0  0  0  0  0  0  0  0  0  0  0  0
    2.2237    0.5048   -0.2104 C   0  0  0  0  0  0  0  0  0  0  0  0
    3.4792   -1.4444    0.4604 C   0  0  0  0  0  0  0  0  0  0  0  0
    3.6512   -0.0828   -0.2513 C   0  0  0  0  0  0  0  0  0  0  0  0
    9.6948    2.3380    3.4160 C   0  0  0  0  0  0  0  0  0  0  0  0
    5.0336   -3.0248   -2.7685 C   0  0  0  0  0  0  0  0  0  0  0  0
    7.2466   -2.2919   -3.7527 C   0  0  0  0  0  0  0  0  0  0  0  0
    8.7048    1.8539   -5.5644 C   0  0  0  0  0  0  0  0  0  0  0  0
    5.0508   -1.2922   -4.5943 C   0  0  0  0  0  0  0  0  0  0  0  0
    5.6477   -0.0245   -5.2351 C   0  0  1  0  0  0  0  0  0  0  0  0
    5.8186   -1.8600   -3.3876 C   0  0  0  0  0  0  0  0  0  0  0  0
    9.6745    2.4081   -2.3126 O   0  0  0  0  0  0  0  0  0  0  0  0
    6.2710    3.6702   -0.9603 O   0  0  0  0  0  0  0  0  0  0  0  0
    8.4939    4.3582   -2.2083 O   0  0  0  0  0  0  0  0  0  0  0  0
    4.7580    0.4918   -6.2468 O   0  0  0  0  0  0  0  0  0  0  0  0
    8.2268    1.0129   -4.5045 O   0  0  0  0  0  0  0  0  0  0  0  0
    3.7416    1.2902   -3.8438 H   0  0  0  0  0  0  0  0  0  0  0  0
    4.0353    2.8542   -1.9130 H   0  0  0  0  0  0  0  0  0  0  0  0
    7.2793    1.2246    2.7474 H   0  0  0  0  0  0  0  0  0  0  0  0
   10.1739    4.0829    1.3716 H   0  0  0  0  0  0  0  0  0  0  0  0
    8.5243    5.8385   -0.8466 H   0  0  0  0  0  0  0  0  0  0  0  0
   10.0188    4.8683   -0.8663 H   0  0  0  0  0  0  0  0  0  0  0  0
    1.2282   -0.7869   -1.6424 H   0  0  0  0  0  0  0  0  0  0  0  0
    0.3281   -0.6060   -0.1431 H   0  0  0  0  0  0  0  0  0  0  0  0
    1.5482   -2.4114    0.8343 H   0  0  0  0  0  0  0  0  0  0  0  0
    2.1877   -2.7190   -0.7706 H   0  0  0  0  0  0  0  0  0  0  0  0
    2.0975    1.3459   -0.8981 H   0  0  0  0  0  0  0  0  0  0  0  0
    2.0163    0.8689    0.8020 H   0  0  0  0  0  0  0  0  0  0  0  0
    3.4951   -1.2801    1.5427 H   0  0  0  0  0  0  0  0  0  0  0  0
    4.2910   -2.1360    0.2211 H   0  0  0  0  0  0  0  0  0  0  0  0
    3.9082   -0.2683   -1.3043 H   0  0  0  0  0  0  0  0  0  0  0  0
   10.4090    1.5500    3.1490 H   0  0  0  0  0  0  0  0  0  0  0  0
   10.2722    3.2095    3.7383 H   0  0  0  0  0  0  0  0  0  0  0  0
    9.1144    1.9807    4.2714 H   0  0  0  0  0  0  0  0  0  0  0  0
    4.9373   -3.8568   -3.4771 H   0  0  0  0  0  0  0  0  0  0  0  0
    5.5385   -3.4070   -1.8746 H   0  0  0  0  0  0  0  0  0  0  0  0
    4.0229   -2.7166   -2.4774 H   0  0  0  0  0  0  0  0  0  0  0  0
    7.2315   -3.0499   -4.5468 H   0  0  0  0  0  0  0  0  0  0  0  0
    7.8552   -1.4503   -4.0933 H   0  0  0  0  0  0  0  0  0  0  0  0
    7.7497   -2.7315   -2.8846 H   0  0  0  0  0  0  0  0  0  0  0  0
    9.5713    1.3452   -5.9902 H   0  0  0  0  0  0  0  0  0  0  0  0
    9.0127    2.8334   -5.1818 H   0  0  0  0  0  0  0  0  0  0  0  0
    7.9310    1.9867   -6.3305 H   0  0  0  0  0  0  0  0  0  0  0  0
    4.9782   -2.0709   -5.3692 H   0  0  0  0  0  0  0  0  0  0  0  0
    4.0228   -1.0558   -4.2922 H   0  0  0  0  0  0  0  0  0  0  0  0
    6.6147   -0.2635   -5.6865 H   0  0  0  0  0  0  0  0  0  0  0  0
    5.8905   -1.0666   -2.6328 H   0  0  0  0  0  0  0  0  0  0  0  0
    4.5649   -0.2343   -6.8618 H   0  0  0  0  0  0  0  0  0  0  0  0
  1  2  3  0  0  0  0
  1  7  1  0  0  0  0
  2 21  1  0  0  0  0
  3  4  1  0  0  0  0
  3 10  2  0  0  0  0
  3 34  1  0  0  0  0
  4 12  2  0  0  0  0
  4 35  1  0  0  0  0
  5  7  2  0  0  0  0
  5 11  1  0  0  0  0
  5 36  1  0  0  0  0
  6  9  1  0  0  0  0
  6 11  2  0  0  0  0
  6 37  1  0  0  0  0
  7 13  1  0  0  0  0
  8 12  1  0  0  0  0
  8 14  2  0  0  0  0
  8 15  1  0  0  0  0
  9 13  2  0  0  0  0
  9 16  1  0  0  0  0
 10 14  1  0  0  0  0
 10 27  1  0  0  0  0
 11 22  1  0  0  0  0
 12 30  1  0  0  0  0
 13 30  1  0  0  0  0
 14 33  1  0  0  0  0
 15 29  2  0  0  0  0
 15 31  1  0  0  0  0
 16 31  1  0  0  0  0
 16 38  1  0  0  0  0
 16 39  1  0  0  0  0
 17 18  1  0  0  0  0
 17 19  1  0  0  0  0
 17 40  1  0  0  0  0
 17 41  1  0  0  0  0
 18 20  1  0  0  0  0
 18 42  1  0  0  0  0
 18 43  1  0  0  0  0
 19 21  1  0  0  0  0
 19 44  1  0  0  0  0
 19 45  1  0  0  0  0
 20 21  1  0  0  0  0
 20 46  1  0  0  0  0
 20 47  1  0  0  0  0
 21 48  1  0  0  0  0
 22 49  1  0  0  0  0
 22 50  1  0  0  0  0
 22 51  1  0  0  0  0
 23 28  1  0  0  0  0
 23 52  1  0  0  0  0
 23 53  1  0  0  0  0
 23 54  1  0  0  0  0
 24 28  1  0  0  0  0
 24 55  1  0  0  0  0
 24 56  1  0  0  0  0
 24 57  1  0  0  0  0
 25 33  1  0  0  0  0
 25 58  1  0  0  0  0
 25 59  1  0  0  0  0
 25 60  1  0  0  0  0
 26 27  1  0  0  0  0
 26 28  1  0  0  0  0
 26 61  1  0  0  0  0
 26 62  1  0  0  0  0
 27 32  1  0  0  0  0
 27 63  1  0  0  0  0
 28 64  1  0  0  0  0
 32 65  1  0  0  0  0
M  END
$$$$
