
  -OEChem-05262117483D

 68 70  0     0  0  0  0  0  0999 V2000
   -9.8225   -1.7605    7.1398 C   0  0  0  0  0  0  0  0  0  0  0  0
   -7.9915   -3.0087    8.1536 C   0  0  0  0  0  0  0  0  0  0  0  0
   -6.6350   -3.2659    8.3380 C   0  0  0  0  0  0  0  0  0  0  0  0
   -6.0924   -1.4393    6.8362 C   0  0  0  0  0  0  0  0  0  0  0  0
   -8.4113   -1.9750    7.3033 C   0  0  0  0  0  0  0  0  0  0  0  0
   -7.4452   -1.1856    6.6442 C   0  0  0  0  0  0  0  0  0  0  0  0
   -5.6891   -2.4847    7.6736 C   0  0  0  0  0  0  0  0  0  0  0  0
   -3.7251   -2.8035    9.1481 C   0  0  0  0  0  0  0  0  0  0  0  0
   -3.3405   -2.9205    6.8580 C   0  0  0  0  0  0  0  0  0  0  0  0
   -2.0074    1.2360    0.4203 C   0  0  0  0  0  0  0  0  0  0  0  0
   -2.1604   -0.3606    2.2813 C   0  0  0  0  0  0  0  0  0  0  0  0
   -1.1451    1.8035    2.7223 C   0  0  0  0  0  0  0  0  0  0  0  0
   -0.8816   -1.0486    2.7558 C   0  0  0  0  0  0  0  0  0  0  0  0
    0.1317    1.0960    3.1848 C   0  0  0  0  0  0  0  0  0  0  0  0
   -2.2291   -3.0351    8.9357 C   0  0  0  0  0  0  0  0  0  0  0  0
   -1.8288   -4.3751    9.5738 C   0  0  0  0  0  0  0  0  0  0  0  0
   -1.4357   -1.8637    9.5331 C   0  0  0  0  0  0  0  0  0  0  0  0
   -1.4899    4.2393   -2.0258 C   0  0  0  0  0  0  0  0  0  0  0  0
   -1.5900    2.6235   -0.0705 C   0  0  0  0  0  0  0  0  0  0  0  0
   -1.9307    2.8528   -1.5447 C   0  0  0  0  0  0  0  0  0  0  0  0
   -0.3801   -1.9219    6.1461 C   0  0  0  0  0  0  0  0  0  0  0  0
    0.7017   -2.1392    5.0841 C   0  0  0  0  0  0  0  0  0  0  0  0
   -0.8965   -3.2425    6.7284 C   0  0  0  0  0  0  0  0  0  0  0  0
    1.0134   -0.8630    4.2906 C   0  0  0  0  0  0  0  0  0  0  0  0
   -7.8719   -0.0539    5.7350 C   0  0  0  0  0  0  0  0  0  0  0  0
  -10.9746   -1.6254    7.0385 N   0  0  0  0  0  0  0  0  0  0  0  0
   -4.3040   -2.7305    7.8829 N   0  0  0  0  0  0  0  0  0  0  0  0
   -2.1453   -3.0774    7.4699 N   0  0  0  0  0  0  0  0  0  0  0  0
   -1.8641    0.9737    1.7632 N   0  0  0  0  0  0  0  0  0  0  0  0
   -0.1814   -0.2181    3.7435 N   0  0  0  0  0  0  0  0  0  0  0  0
   -4.2986   -2.7042   10.2155 O   0  0  0  0  0  0  0  0  0  0  0  0
   -2.4703    0.3976   -0.3564 O   0  0  0  0  0  0  0  0  0  0  0  0
   -6.8070    0.6010    5.2173 F   0  0  0  0  0  0  0  0  0  0  0  0
   -8.6133   -0.5012    4.6964 F   0  0  0  0  0  0  0  0  0  0  0  0
   -8.6189    0.8606    6.3987 F   0  0  0  0  0  0  0  0  0  0  0  0
   -3.6619   -2.9720    5.2295 S   0  0  0  0  0  0  0  0  0  0  0  0
   -8.7362   -3.6112    8.6629 H   0  0  0  0  0  0  0  0  0  0  0  0
   -6.3139   -4.0638    8.9977 H   0  0  0  0  0  0  0  0  0  0  0  0
   -5.3511   -0.8322    6.3341 H   0  0  0  0  0  0  0  0  0  0  0  0
   -2.6369   -0.9367    1.4895 H   0  0  0  0  0  0  0  0  0  0  0  0
   -2.8557   -0.2701    3.1249 H   0  0  0  0  0  0  0  0  0  0  0  0
   -1.7908    1.9787    3.5927 H   0  0  0  0  0  0  0  0  0  0  0  0
   -0.8973    2.7707    2.2889 H   0  0  0  0  0  0  0  0  0  0  0  0
   -1.1604   -1.9999    3.2150 H   0  0  0  0  0  0  0  0  0  0  0  0
   -0.2360   -1.2657    1.8834 H   0  0  0  0  0  0  0  0  0  0  0  0
    0.8304    1.0216    2.3278 H   0  0  0  0  0  0  0  0  0  0  0  0
    0.6187    1.7003    3.9586 H   0  0  0  0  0  0  0  0  0  0  0  0
   -0.7556   -4.5520    9.4606 H   0  0  0  0  0  0  0  0  0  0  0  0
   -2.3702   -5.2046    9.1104 H   0  0  0  0  0  0  0  0  0  0  0  0
   -2.0656   -4.3517   10.6403 H   0  0  0  0  0  0  0  0  0  0  0  0
   -0.3623   -2.0215    9.3941 H   0  0  0  0  0  0  0  0  0  0  0  0
   -1.6434   -1.7946   10.6037 H   0  0  0  0  0  0  0  0  0  0  0  0
   -1.7144   -0.9192    9.0585 H   0  0  0  0  0  0  0  0  0  0  0  0
   -0.4063    4.3736   -1.9215 H   0  0  0  0  0  0  0  0  0  0  0  0
   -1.9783    5.0371   -1.4534 H   0  0  0  0  0  0  0  0  0  0  0  0
   -1.7414    4.3879   -3.0812 H   0  0  0  0  0  0  0  0  0  0  0  0
   -0.5092    2.7469    0.0812 H   0  0  0  0  0  0  0  0  0  0  0  0
   -2.0723    3.3918    0.5469 H   0  0  0  0  0  0  0  0  0  0  0  0
   -3.0085    2.7275   -1.6872 H   0  0  0  0  0  0  0  0  0  0  0  0
   -1.4573    2.0725   -2.1476 H   0  0  0  0  0  0  0  0  0  0  0  0
   -1.2168   -1.3935    5.6864 H   0  0  0  0  0  0  0  0  0  0  0  0
   -0.0007   -1.2778    6.9483 H   0  0  0  0  0  0  0  0  0  0  0  0
    1.6346   -2.4924    5.5415 H   0  0  0  0  0  0  0  0  0  0  0  0
    0.3836   -2.9334    4.3993 H   0  0  0  0  0  0  0  0  0  0  0  0
   -0.1663   -3.6975    7.4029 H   0  0  0  0  0  0  0  0  0  0  0  0
   -1.0874   -3.9542    5.9202 H   0  0  0  0  0  0  0  0  0  0  0  0
    1.4968   -0.1378    4.9566 H   0  0  0  0  0  0  0  0  0  0  0  0
    1.7461   -1.1035    3.4961 H   0  0  0  0  0  0  0  0  0  0  0  0
  1  5  1  0  0  0  0
  1 26  3  0  0  0  0
  2  3  1  0  0  0  0
  2  5  2  0  0  0  0
  2 37  1  0  0  0  0
  3  7  2  0  0  0  0
  3 38  1  0  0  0  0
  4  6  2  0  0  0  0
  4  7  1  0  0  0  0
  4 39  1  0  0  0  0
  5  6  1  0  0  0  0
  6 25  1  0  0  0  0
  7 27  1  0  0  0  0
  8 15  1  0  0  0  0
  8 27  1  0  0  0  0
  8 31  2  0  0  0  0
  9 27  1  0  0  0  0
  9 28  1  0  0  0  0
  9 36  2  0  0  0  0
 10 19  1  0  0  0  0
 10 29  1  0  0  0  0
 10 32  2  0  0  0  0
 11 13  1  0  0  0  0
 11 29  1  0  0  0  0
 11 40  1  0  0  0  0
 11 41  1  0  0  0  0
 12 14  1  0  0  0  0
 12 29  1  0  0  0  0
 12 42  1  0  0  0  0
 12 43  1  0  0  0  0
 13 30  1  0  0  0  0
 13 44  1  0  0  0  0
 13 45  1  0  0  0  0
 14 30  1  0  0  0  0
 14 46  1  0  0  0  0
 14 47  1  0  0  0  0
 15 16  1  0  0  0  0
 15 17  1  0  0  0  0
 15 28  1  0  0  0  0
 16 48  1  0  0  0  0
 16 49  1  0  0  0  0
 16 50  1  0  0  0  0
 17 51  1  0  0  0  0
 17 52  1  0  0  0  0
 17 53  1  0  0  0  0
 18 20  1  0  0  0  0
 18 54  1  0  0  0  0
 18 55  1  0  0  0  0
 18 56  1  0  0  0  0
 19 20  1  0  0  0  0
 19 57  1  0  0  0  0
 19 58  1  0  0  0  0
 20 59  1  0  0  0  0
 20 60  1  0  0  0  0
 21 22  1  0  0  0  0
 21 23  1  0  0  0  0
 21 61  1  0  0  0  0
 21 62  1  0  0  0  0
 22 24  1  0  0  0  0
 22 63  1  0  0  0  0
 22 64  1  0  0  0  0
 23 28  1  0  0  0  0
 23 65  1  0  0  0  0
 23 66  1  0  0  0  0
 24 30  1  0  0  0  0
 24 67  1  0  0  0  0
 24 68  1  0  0  0  0
 25 33  1  0  0  0  0
 25 34  1  0  0  0  0
 25 35  1  0  0  0  0
M  END
$$$$
