50
0 1 C19H27N3O
C                     0.089149468661    -4.642167461105     1.525386150494
C                     1.199925279887    -5.477102152828     1.701405884528
C                     0.058609831609    -3.731753450935     0.468662240559
C                     2.274264022761    -5.387353084053     0.816179836444
C                     4.695209041390    -4.595638708173    -2.854556915592
C                     1.125559366167    -3.636032410959    -0.436422817513
C                     2.232673710312    -4.472920174055    -0.241023508044
C                     5.153934159449    -3.588897861248    -1.962146773571
C                     3.529093983597    -5.091097635997    -2.291348186209
C                     1.809512153075     0.588955465560     0.224934996809
C                     2.058105779248    -0.808036248972    -0.340033442594
C                     0.560848244474    -0.356738143649    -2.179835974381
C                     0.275059149047     1.067397980494    -1.687109183204
C                     1.455440935566     1.619982852943    -0.860203898386
C                     6.374514067260    -2.724699283476    -2.075667773842
C                     2.569659155674    -6.141465000484    -2.754433311726
C                    -0.142119461853     1.974552333130    -2.849918587380
C                     2.680118193727     1.980691238575    -1.712885992522
C                     1.053543544315    -2.637326728386    -1.572713013787
N                     4.331306690284    -3.465148272961    -0.917506413571
N                     3.350728364654    -4.395090885452    -1.127942939077
N                     0.877909935017    -1.269093006490    -1.080666363495
O                     0.950708865056     2.821489700635    -0.235352585757
H                    -0.749336944081    -4.700895002892     2.214720891889
H                     1.230900244572    -6.184714479284     2.525498513095
H                    -0.789703640065    -3.064926584849     0.340137510585
H                     3.156893038432    -6.008702360110     0.938421814733
H                     5.151896054589    -4.919409995323    -3.781079984947
H                     0.974202920306     0.545238612156     0.931831611088
H                     2.697891975624     0.920685916632     0.778806283182
H                     2.959812294834    -0.822405765081    -0.977608884754
H                     2.254559368473    -1.507260867926     0.476431440446
H                    -0.331609867461    -0.734566242854    -2.692321126040
H                     1.371780833782    -0.336873751928    -2.935063380497
H                    -0.563643755384     1.003902985963    -0.983649352654
H                     6.365853426028    -2.146101720966    -3.006036019438
H                     6.416617660436    -2.028560132792    -1.234607009222
H                     7.290296474396    -3.326197545413    -2.072150740389
H                     2.487914791812    -6.960586871716    -2.032218943404
H                     1.563722504648    -5.730840180545    -2.895091953430
H                     2.905199211695    -6.556952022346    -3.707115335722
H                     0.602446129449     1.976142658818    -3.653522395118
H                    -0.278850328045     3.003095508681    -2.506775620119
H                    -1.089078127393     1.630631036153    -3.280772709060
H                     2.439625244046     2.789840336638    -2.406453527174
H                     3.051791750301     1.129138958950    -2.289202097448
H                     3.500127209385     2.320182353905    -1.068069897965
H                     1.941874163967    -2.729337357682    -2.218224521283
H                     0.181410017770    -2.877688807251    -2.193042676486
H                     1.659149306220     3.181856613504     0.322261126518
