25
0 1 C9Cl2H8N6
C                     2.891015288618    -0.249875399212     0.855068736274
C                     1.974908273597     0.350236989945     1.711465421592
C                     0.799954305354    -1.767355975560     1.862746544369
C                     6.068567606442    -6.385727364105    -3.444555357683
C                     2.807650991603    -1.605719251653     0.470272865485
C                     0.926882444183    -0.423915057959     2.212052838602
C                     1.729977765539    -2.354554287025     1.000553421222
C                     5.133635466700    -4.809533464961    -2.255143744159
C                     3.850383392587    -2.084225357813    -0.437319100830
N                     5.021302982569    -6.896257528769    -2.858285736348
N                     4.412700521870    -5.896740982665    -2.092862048484
N                     3.934186001794    -3.285950295308    -0.892834997236
N                     6.197195504805    -5.048625222181    -3.098571021016
N                     7.141442782737    -4.076742611649    -3.462787899180
N                     4.964228484552    -3.554010408981    -1.722048944638
Cl                   -0.248182296726     0.296407882843     3.294357883999
Cl                    1.486992708702    -4.038834218980     0.623176117499
H                     3.709079535693     0.349451013617     0.462684215570
H                     2.069178960551     1.395410882284     1.986490867342
H                    -0.017083401433    -2.362070762460     2.255953554628
H                     6.755576164195    -6.897264325455    -4.106321596268
H                     4.593077331720    -1.324572358015    -0.721987615888
H                     7.131188952968    -3.955660192923    -4.474849278993
H                     8.070422800714    -4.380687316790    -3.173615207625
H                     5.651173858547    -2.844588603387    -1.982286898369
