
  -OEChem-05262117483D

 26 26  0     0  0  0  0  0  0999 V2000
    1.9839   -0.8830   -0.0168 C   0  0  0  0  0  0  0  0  0  0  0  0
    0.8534   -0.3077    0.5604 C   0  0  0  0  0  0  0  0  0  0  0  0
    1.8653   -0.6511    2.7371 C   0  0  0  0  0  0  0  0  0  0  0  0
    3.0613   -1.3673    0.7419 C   0  0  0  0  0  0  0  0  0  0  0  0
    0.7917   -0.2074    1.9596 C   0  0  0  0  0  0  0  0  0  0  0  0
    2.9991   -1.2182    2.1486 C   0  0  0  0  0  0  0  0  0  0  0  0
    4.1554   -2.0613    0.0184 C   0  0  0  0  0  0  0  0  0  0  0  0
   -1.3730    0.8085    1.9035 C   0  0  0  0  0  0  0  0  0  0  0  0
    5.3513   -1.3966    2.6996 C   0  0  0  0  0  0  0  0  0  0  0  0
    4.4891   -3.2518    0.3996 N   0  0  0  0  0  0  0  0  0  0  0  0
    4.6855   -1.4200   -1.0903 N   0  0  0  0  0  0  0  0  0  0  0  0
    5.5776   -3.7230   -0.4122 O   0  0  0  0  0  0  0  0  0  0  0  0
   -0.2603    0.3264    2.6511 O   0  0  0  0  0  0  0  0  0  0  0  0
    3.9723   -1.5910    3.0335 O   0  0  0  0  0  0  0  0  0  0  0  0
    2.0238   -1.0012   -1.0959 H   0  0  0  0  0  0  0  0  0  0  0  0
    0.0424    0.0313   -0.0729 H   0  0  0  0  0  0  0  0  0  0  0  0
    1.8315   -0.5382    3.8156 H   0  0  0  0  0  0  0  0  0  0  0  0
   -2.0846    1.1862    2.6389 H   0  0  0  0  0  0  0  0  0  0  0  0
   -1.8428    0.0052    1.3230 H   0  0  0  0  0  0  0  0  0  0  0  0
   -1.0799    1.6233    1.2301 H   0  0  0  0  0  0  0  0  0  0  0  0
    5.8578   -1.1702    3.6412 H   0  0  0  0  0  0  0  0  0  0  0  0
    5.4765   -0.5520    2.0127 H   0  0  0  0  0  0  0  0  0  0  0  0
    5.7749   -2.2971    2.2516 H   0  0  0  0  0  0  0  0  0  0  0  0
    4.7089   -0.4097   -1.0408 H   0  0  0  0  0  0  0  0  0  0  0  0
    5.5217   -1.8510   -1.4686 H   0  0  0  0  0  0  0  0  0  0  0  0
    5.7057   -4.6215   -0.0713 H   0  0  0  0  0  0  0  0  0  0  0  0
  1  2  1  0  0  0  0
  1  4  2  0  0  0  0
  1 15  1  0  0  0  0
  2  5  2  0  0  0  0
  2 16  1  0  0  0  0
  3  5  1  0  0  0  0
  3  6  2  0  0  0  0
  3 17  1  0  0  0  0
  4  6  1  0  0  0  0
  4  7  1  0  0  0  0
  5 13  1  0  0  0  0
  6 14  1  0  0  0  0
  7 10  2  0  0  0  0
  7 11  1  0  0  0  0
  8 13  1  0  0  0  0
  8 18  1  0  0  0  0
  8 19  1  0  0  0  0
  8 20  1  0  0  0  0
  9 14  1  0  0  0  0
  9 21  1  0  0  0  0
  9 22  1  0  0  0  0
  9 23  1  0  0  0  0
 10 12  1  0  0  0  0
 11 24  1  0  0  0  0
 11 25  1  0  0  0  0
 12 26  1  0  0  0  0
M  END
$$$$
