26
0 1 C9H12N2O3
C                     1.917242875140    -1.058079566697    -0.066496784009
C                     0.825559634797    -0.496677517105     0.580720917818
C                     1.829848327446    -1.073777915574     2.713094781794
C                     2.989525193039    -1.642127183508     0.630779769588
C                     0.781431981125    -0.501852637387     1.981073574401
C                     2.922125934340    -1.640862211845     2.038726071518
C                     4.113079337418    -2.230978141861    -0.144297258913
C                    -0.406774235507     0.100684002532     3.972371148852
C                     3.923312918269    -2.270888718840     4.143527855447
N                     3.816289938973    -2.698287540881    -1.319905427775
N                     5.401448682161    -2.170580458587     0.350826673278
O                     5.009250024369    -3.170459718626    -1.958861276315
O                    -0.319075199246     0.075509529173     2.552187279959
O                     3.961941367660    -2.235626333936     2.719792286702
H                     1.964907946172    -1.054621065535    -1.149759756575
H                     0.008471089955    -0.044584693446     0.027692007479
H                     1.797033186053    -1.084676357270     3.792781087928
H                    -1.347285718127     0.601982654880     4.204596556591
H                     0.423176919251     0.665624263249     4.415266936090
H                    -0.425031489579    -0.913539621823     4.390911232171
H                     4.834480593206    -2.785407397977     4.451849507008
H                     3.052782264204    -2.831839031015     4.503066918196
H                     3.915782340262    -1.260428502264     4.569222557532
H                     5.469482286750    -2.184068116749     1.359936392570
H                     6.050553038330    -2.778711316555    -0.135572116271
H                     4.656621042305    -3.560672665395    -2.772993091118
