
  -OEChem-05262117483D

 25 26  0     0  0  0  0  0  0999 V2000
    1.9755   -2.8525    0.7112 C   0  0  0  0  0  0  0  0  0  0  0  0
    0.9498   -2.5605    1.6004 C   0  0  0  0  0  0  0  0  0  0  0  0
    1.7771   -0.2819    1.7771 C   0  0  0  0  0  0  0  0  0  0  0  0
    5.1279   -6.9966   -2.9883 C   0  0  0  0  0  0  0  0  0  0  0  0
    2.9324   -1.8896    0.3295 C   0  0  0  0  0  0  0  0  0  0  0  0
    0.8587   -1.2684    2.1303 C   0  0  0  0  0  0  0  0  0  0  0  0
    2.8008   -0.6016    0.8833 C   0  0  0  0  0  0  0  0  0  0  0  0
    5.2203   -4.8717   -2.5576 C   0  0  0  0  0  0  0  0  0  0  0  0
    4.0035   -2.2230   -0.6129 C   0  0  0  0  0  0  0  0  0  0  0  0
    5.4367   -6.3859   -4.1046 N   0  0  0  0  0  0  0  0  0  0  0  0
    5.4834   -5.0177   -3.8346 N   0  0  0  0  0  0  0  0  0  0  0  0
    4.1967   -3.4378   -0.9941 N   0  0  0  0  0  0  0  0  0  0  0  0
    4.9883   -6.0876   -1.9633 N   0  0  0  0  0  0  0  0  0  0  0  0
    4.7444   -6.4046   -0.6139 N   0  0  0  0  0  0  0  0  0  0  0  0
    5.2408   -3.6686   -1.8580 N   0  0  0  0  0  0  0  0  0  0  0  0
   -0.4295   -0.8781    3.2479 Cl  0  0  0  0  0  0  0  0  0  0  0  0
    3.9378    0.6783    0.4803 Cl  0  0  0  0  0  0  0  0  0  0  0  0
    2.0473   -3.8446    0.2781 H   0  0  0  0  0  0  0  0  0  0  0  0
    0.2219   -3.3161    1.8771 H   0  0  0  0  0  0  0  0  0  0  0  0
    1.7022    0.7181    2.1892 H   0  0  0  0  0  0  0  0  0  0  0  0
    4.9842   -8.0587   -2.8444 H   0  0  0  0  0  0  0  0  0  0  0  0
    4.6312   -1.4068   -0.9801 H   0  0  0  0  0  0  0  0  0  0  0  0
    4.0198   -5.7670   -0.2854 H   0  0  0  0  0  0  0  0  0  0  0  0
    5.5916   -6.1902   -0.0856 H   0  0  0  0  0  0  0  0  0  0  0  0
    5.5549   -2.8890   -2.4380 H   0  0  0  0  0  0  0  0  0  0  0  0
  1  2  1  0  0  0  0
  1  5  2  0  0  0  0
  1 18  1  0  0  0  0
  2  6  2  0  0  0  0
  2 19  1  0  0  0  0
  3  6  1  0  0  0  0
  3  7  2  0  0  0  0
  3 20  1  0  0  0  0
  4 10  2  0  0  0  0
  4 13  1  0  0  0  0
  4 21  1  0  0  0  0
  5  7  1  0  0  0  0
  5  9  1  0  0  0  0
  6 16  1  0  0  0  0
  7 17  1  0  0  0  0
  8 11  2  0  0  0  0
  8 13  1  0  0  0  0
  8 15  1  0  0  0  0
  9 12  2  0  0  0  0
  9 22  1  0  0  0  0
 10 11  1  0  0  0  0
 12 15  1  0  0  0  0
 13 14  1  0  0  0  0
 14 23  1  0  0  0  0
 14 24  1  0  0  0  0
 15 25  1  0  0  0  0
M  END
$$$$
