50
0 1 C19H27N3O
C                     2.226172768279    -4.699693627746     0.443504055275
C                     1.323455582429    -4.649862761394     1.509466256286
C                     2.060527331206    -3.842289949948    -0.647156899365
C                     0.254334182888    -3.753796369980     1.461603685736
C                    -2.820270042416    -0.848038643490    -0.110010989000
C                     0.997685767584    -2.931508410330    -0.712885349814
C                     0.084333114652    -2.912619392753     0.358798151153
C                    -2.086588520358    -0.238177333708     0.940726175106
C                    -2.107169820196    -1.987013641509    -0.453602920790
C                     1.207787831926     1.364104927837    -0.272593347290
C                     1.682079888285     0.025205774190    -0.837583504126
C                     0.071665570040     0.174766515397    -2.635922911207
C                    -0.468530724147     1.518542444506    -2.130731758299
C                     0.606775248833     2.294257581346    -1.340414997642
C                    -2.372079006377     1.049286927501     1.654523096167
C                    -2.393149943304    -3.046771356143    -1.472146975439
C                    -1.097594589003     2.323465681534    -3.272549877301
C                     1.697919416351     2.899140328429    -2.234839135209
C                     0.878464555068    -2.004911716549    -1.910948555641
N                    -0.996621285290    -0.950703636785     1.236227884310
N                    -1.021997316956    -2.012791567391     0.376479877383
N                     0.586107100431    -0.632196985534    -1.539420210585
O                    -0.110003987985     3.368392675662    -0.686925424014
H                     3.063707233553    -5.392053643504     0.466660543091
H                     1.449362996628    -5.301646960918     2.369729930529
H                     2.782225809958    -3.863238784526    -1.460693342180
H                    -0.461454645862    -3.689232421609     2.275535042920
H                    -3.753541184854    -0.515254214292    -0.546478865952
H                     0.441299333679     1.158997497306     0.478091569899
H                     2.046595174771     1.867358302593     0.227629445455
H                     2.560691665745     0.163347791959    -1.500220096345
H                     2.002007740187    -0.615967877207    -0.011309739391
H                    -0.753401681238    -0.371414857711    -3.106887903440
H                     0.833646446846     0.341139846306    -3.425278178039
H                    -1.250948832296     1.281832572121    -1.402599913444
H                    -3.426175525002     1.119898847505     1.942453724140
H                    -1.758588138900     1.121388745941     2.556178022267
H                    -2.139791335647     1.909998624338     1.016173838172
H                    -2.170674832051    -2.700878593592    -2.487895884310
H                    -1.802468238182    -3.947538190590    -1.287505589949
H                    -3.451299615398    -3.322971622927    -1.447097742451
H                    -0.400345923046     2.469140002427    -4.105072447004
H                    -1.420980539891     3.306372413350    -2.920582260915
H                    -1.974947617923     1.798592983508    -3.667232064287
H                     1.271868715588     3.636893017148    -2.918686869857
H                     2.215848012889     2.138170788649    -2.826009429650
H                     2.452288020772     3.404554651241    -1.619452458625
H                     1.805496280141    -2.093493176976    -2.510324679377
H                     0.067307996797    -2.355154781448    -2.558401852453
H                     0.519567045601     3.834266739708    -0.113001538754
