
  -OEChem-05262117483D

 20 21  0     0  0  0  0  0  0999 V2000
    1.9114   -1.0510   -0.1212 C   0  0  0  0  0  0  0  0  0  0  0  0
    1.8723   -1.0353    2.6822 C   0  0  0  0  0  0  0  0  0  0  0  0
   -0.9035   -1.5070   -3.3290 C   0  0  0  0  0  0  0  0  0  0  0  0
   -1.8018   -0.5182   -3.6604 C   0  0  0  0  0  0  0  0  0  0  0  0
    0.8354   -0.4345    0.5439 C   0  0  0  0  0  0  0  0  0  0  0  0
    2.9468   -1.6246    0.5960 C   0  0  0  0  0  0  0  0  0  0  0  0
    0.8474   -0.4453    1.9489 C   0  0  0  0  0  0  0  0  0  0  0  0
    2.9275   -1.6187    1.9923 C   0  0  0  0  0  0  0  0  0  0  0  0
   -0.6761   -0.2428   -1.5298 C   0  0  0  0  0  0  0  0  0  0  0  0
   -0.2525    0.2712   -0.1978 C   0  0  0  0  0  0  0  0  0  0  0  0
   -0.2750   -1.3422   -2.1250 N   0  0  0  0  0  0  0  0  0  0  0  0
   -0.8108    1.2643    0.2569 O   0  0  0  0  0  0  0  0  0  0  0  0
    3.9857   -2.1982   -0.0456 F   0  0  0  0  0  0  0  0  0  0  0  0
   -0.1713    0.0910    2.6428 F   0  0  0  0  0  0  0  0  0  0  0  0
    3.9386   -2.1863    2.6703 F   0  0  0  0  0  0  0  0  0  0  0  0
   -1.8756    0.6746   -2.4215 S   0  0  0  0  0  0  0  0  0  0  0  0
    1.9446   -1.0854   -1.2025 H   0  0  0  0  0  0  0  0  0  0  0  0
    1.8478   -1.0392    3.7665 H   0  0  0  0  0  0  0  0  0  0  0  0
   -0.6758   -2.3745   -3.9388 H   0  0  0  0  0  0  0  0  0  0  0  0
   -2.4084   -0.4437   -4.5540 H   0  0  0  0  0  0  0  0  0  0  0  0
  1  5  1  0  0  0  0
  1  6  2  0  0  0  0
  1 17  1  0  0  0  0
  2  7  1  0  0  0  0
  2  8  2  0  0  0  0
  2 18  1  0  0  0  0
  3  4  2  0  0  0  0
  3 11  1  0  0  0  0
  3 19  1  0  0  0  0
  4 16  1  0  0  0  0
  4 20  1  0  0  0  0
  5  7  2  0  0  0  0
  5 10  1  0  0  0  0
  6  8  1  0  0  0  0
  6 13  1  0  0  0  0
  7 14  1  0  0  0  0
  8 15  1  0  0  0  0
  9 10  1  0  0  0  0
  9 11  2  0  0  0  0
  9 16  1  0  0  0  0
 10 12  2  0  0  0  0
M  END
$$$$
