
  -OEChem-05262117483D

 50 52  0     1  0  0  0  0  0999 V2000
    2.3812   -5.6252    1.1806 C   0  0  0  0  0  0  0  0  0  0  0  0
    1.2961   -5.6879    2.0573 C   0  0  0  0  0  0  0  0  0  0  0  0
    2.3902   -4.6744    0.1541 C   0  0  0  0  0  0  0  0  0  0  0  0
    0.2249   -4.8056    1.8917 C   0  0  0  0  0  0  0  0  0  0  0  0
   -2.2072   -1.2440    1.0012 C   0  0  0  0  0  0  0  0  0  0  0  0
    1.3344   -3.7736   -0.0202 C   0  0  0  0  0  0  0  0  0  0  0  0
    0.2426   -3.8580    0.8663 C   0  0  0  0  0  0  0  0  0  0  0  0
   -2.3922   -1.8574   -0.2671 C   0  0  0  0  0  0  0  0  0  0  0  0
   -1.2046   -1.9677    1.6236 C   0  0  0  0  0  0  0  0  0  0  0  0
    2.0781    0.4312    0.8049 C   0  0  0  0  0  0  0  0  0  0  0  0
    2.3920   -0.8946    0.1094 C   0  0  0  0  0  0  0  0  0  0  0  0
    0.7261   -0.4317   -1.5828 C   0  0  0  0  0  0  0  0  0  0  0  0
    0.3502    0.9088   -0.9400 C   0  0  1  0  0  0  0  0  0  0  0  0
    1.5400    1.5050   -0.1586 C   0  0  2  0  0  0  0  0  0  0  0  0
   -3.3415   -1.4690   -1.3603 C   0  0  0  0  0  0  0  0  0  0  0  0
   -0.5207   -1.7565    2.9366 C   0  0  0  0  0  0  0  0  0  0  0  0
   -0.2520    1.8638   -1.9756 C   0  0  0  0  0  0  0  0  0  0  0  0
    2.6509    2.0521   -1.0652 C   0  0  0  0  0  0  0  0  0  0  0  0
    1.3746   -2.7319   -1.1194 C   0  0  0  0  0  0  0  0  0  0  0  0
   -1.5635   -2.8913   -0.4219 N   0  0  0  0  0  0  0  0  0  0  0  0
   -0.8571   -2.9605    0.7465 N   0  0  0  0  0  0  0  0  0  0  0  0
    1.2106   -1.3829   -0.5895 N   0  0  1  0  0  0  0  0  0  0  0  0
    0.9843    2.5951    0.6113 O   0  0  0  0  0  0  0  0  0  0  0  0
    3.2185   -6.3085    1.2956 H   0  0  0  0  0  0  0  0  0  0  0  0
    1.2745   -6.4235    2.8568 H   0  0  0  0  0  0  0  0  0  0  0  0
    3.2424   -4.6172   -0.5194 H   0  0  0  0  0  0  0  0  0  0  0  0
   -0.6409   -4.8571    2.5456 H   0  0  0  0  0  0  0  0  0  0  0  0
   -2.7192   -0.3782    1.4011 H   0  0  0  0  0  0  0  0  0  0  0  0
    1.3114    0.2579    1.5661 H   0  0  0  0  0  0  0  0  0  0  0  0
    2.9775    0.8037    1.3137 H   0  0  0  0  0  0  0  0  0  0  0  0
    3.2534   -0.7765   -0.5791 H   0  0  0  0  0  0  0  0  0  0  0  0
    2.6895   -1.6382    0.8563 H   0  0  0  0  0  0  0  0  0  0  0  0
   -0.1683   -0.8575   -2.0468 H   0  0  0  0  0  0  0  0  0  0  0  0
    1.4644   -0.2696   -2.3946 H   0  0  0  0  0  0  0  0  0  0  0  0
   -0.4143    0.6902   -0.1865 H   0  0  0  0  0  0  0  0  0  0  0  0
   -3.1782   -0.4308   -1.6717 H   0  0  0  0  0  0  0  0  0  0  0  0
   -3.1991   -2.1181   -2.2277 H   0  0  0  0  0  0  0  0  0  0  0  0
   -4.3844   -1.5519   -1.0346 H   0  0  0  0  0  0  0  0  0  0  0  0
   -0.8151   -2.5007    3.6846 H   0  0  0  0  0  0  0  0  0  0  0  0
    0.5667   -1.8137    2.8270 H   0  0  0  0  0  0  0  0  0  0  0  0
   -0.7756   -0.7684    3.3264 H   0  0  0  0  0  0  0  0  0  0  0  0
    0.4151    2.0149   -2.8315 H   0  0  0  0  0  0  0  0  0  0  0  0
   -0.4628    2.8384   -1.5282 H   0  0  0  0  0  0  0  0  0  0  0  0
   -1.1926    1.4557   -2.3624 H   0  0  0  0  0  0  0  0  0  0  0  0
    2.2796    2.8852   -1.6665 H   0  0  0  0  0  0  0  0  0  0  0  0
    3.0483    1.2897   -1.7409 H   0  0  0  0  0  0  0  0  0  0  0  0
    3.4881    2.4191   -0.4582 H   0  0  0  0  0  0  0  0  0  0  0  0
    2.3143   -2.8447   -1.6918 H   0  0  0  0  0  0  0  0  0  0  0  0
    0.5473   -2.9216   -1.8073 H   0  0  0  0  0  0  0  0  0  0  0  0
    1.7098    3.0005    1.1134 H   0  0  0  0  0  0  0  0  0  0  0  0
  1  2  1  0  0  0  0
  1  3  2  0  0  0  0
  1 24  1  0  0  0  0
  2  4  2  0  0  0  0
  2 25  1  0  0  0  0
  3  6  1  0  0  0  0
  3 26  1  0  0  0  0
  4  7  1  0  0  0  0
  4 27  1  0  0  0  0
  5  8  1  0  0  0  0
  5  9  2  0  0  0  0
  5 28  1  0  0  0  0
  6  7  2  0  0  0  0
  6 19  1  0  0  0  0
  7 21  1  0  0  0  0
  8 15  1  0  0  0  0
  8 20  2  0  0  0  0
  9 16  1  0  0  0  0
  9 21  1  0  0  0  0
 10 11  1  0  0  0  0
 10 14  1  0  0  0  0
 10 29  1  0  0  0  0
 10 30  1  0  0  0  0
 11 22  1  0  0  0  0
 11 31  1  0  0  0  0
 11 32  1  0  0  0  0
 12 13  1  0  0  0  0
 12 22  1  0  0  0  0
 12 33  1  0  0  0  0
 12 34  1  0  0  0  0
 13 14  1  0  0  0  0
 13 17  1  0  0  0  0
 13 35  1  0  0  0  0
 14 18  1  0  0  0  0
 14 23  1  0  0  0  0
 15 36  1  0  0  0  0
 15 37  1  0  0  0  0
 15 38  1  0  0  0  0
 16 39  1  0  0  0  0
 16 40  1  0  0  0  0
 16 41  1  0  0  0  0
 17 42  1  0  0  0  0
 17 43  1  0  0  0  0
 17 44  1  0  0  0  0
 18 45  1  0  0  0  0
 18 46  1  0  0  0  0
 18 47  1  0  0  0  0
 19 22  1  0  0  0  0
 19 48  1  0  0  0  0
 19 49  1  0  0  0  0
 20 21  1  0  0  0  0
 23 50  1  0  0  0  0
M  END
$$$$
