
  -OEChem-05262117483D

 35 36  0     0  0  0  0  0  0999 V2000
    1.7383    1.2204    4.9368 C   0  0  0  0  0  0  0  0  0  0  0  0
    2.9657    1.3461    2.8392 C   0  0  0  0  0  0  0  0  0  0  0  0
    2.7276    1.9748    5.5601 C   0  0  0  0  0  0  0  0  0  0  0  0
    3.9471    2.1234    3.4498 C   0  0  0  0  0  0  0  0  0  0  0  0
   -1.6154    3.4745    4.0211 C   0  0  0  0  0  0  0  0  0  0  0  0
   -2.6150    1.7347    5.3810 C   0  0  0  0  0  0  0  0  0  0  0  0
   -0.8480    2.5309    3.3333 C   0  0  0  0  0  0  0  0  0  0  0  0
   -1.8894    0.7632    4.6916 C   0  0  0  0  0  0  0  0  0  0  0  0
    1.8449    0.9201    3.5673 C   0  0  0  0  0  0  0  0  0  0  0  0
   -0.9674    1.1729    3.7041 C   0  0  0  0  0  0  0  0  0  0  0  0
   -2.4745    3.0892    5.0521 C   0  0  0  0  0  0  0  0  0  0  0  0
    3.8162    2.4268    4.8070 C   0  0  0  0  0  0  0  0  0  0  0  0
    0.0285    3.0017    2.1962 C   0  0  0  0  0  0  0  0  0  0  0  0
   -2.0350   -0.6994    5.0339 C   0  0  0  0  0  0  0  0  0  0  0  0
    0.9410    0.0476    2.8800 N   0  0  0  0  0  0  0  0  0  0  0  0
   -0.3049    0.1112    3.0064 N   0  0  0  0  0  0  0  0  0  0  0  0
    5.8974    4.0550    4.5847 O   0  0  0  0  0  0  0  0  0  0  0  0
    4.4751    4.1327    6.7120 O   0  0  0  0  0  0  0  0  0  0  0  0
   -3.1769    4.0785    5.6908 O   0  0  0  0  0  0  0  0  0  0  0  0
    6.0258    2.2455    6.2995 O   0  0  0  0  0  0  0  0  0  0  0  0
    5.0754    3.4066    5.6064 S   0  0  0  0  0  0  0  0  0  0  0  0
    0.8882    0.8696    5.5102 H   0  0  0  0  0  0  0  0  0  0  0  0
    3.0445    1.0731    1.7911 H   0  0  0  0  0  0  0  0  0  0  0  0
    2.6519    2.2274    6.6129 H   0  0  0  0  0  0  0  0  0  0  0  0
    4.7975    2.4948    2.8870 H   0  0  0  0  0  0  0  0  0  0  0  0
   -1.5610    4.5263    3.7543 H   0  0  0  0  0  0  0  0  0  0  0  0
   -3.3029    1.4319    6.1692 H   0  0  0  0  0  0  0  0  0  0  0  0
    1.0023    3.3435    2.5623 H   0  0  0  0  0  0  0  0  0  0  0  0
    0.2098    2.2158    1.4597 H   0  0  0  0  0  0  0  0  0  0  0  0
   -0.4438    3.8440    1.6835 H   0  0  0  0  0  0  0  0  0  0  0  0
   -2.1392   -1.3003    4.1257 H   0  0  0  0  0  0  0  0  0  0  0  0
   -1.1509   -1.0786    5.5603 H   0  0  0  0  0  0  0  0  0  0  0  0
   -2.9042   -0.8672    5.6748 H   0  0  0  0  0  0  0  0  0  0  0  0
   -3.7472    3.6806    6.3678 H   0  0  0  0  0  0  0  0  0  0  0  0
    6.8278    2.1520    5.7500 H   0  0  0  0  0  0  0  0  0  0  0  0
  1  3  1  0  0  0  0
  1  9  2  0  0  0  0
  1 22  1  0  0  0  0
  2  4  2  0  0  0  0
  2  9  1  0  0  0  0
  2 23  1  0  0  0  0
  3 12  2  0  0  0  0
  3 24  1  0  0  0  0
  4 12  1  0  0  0  0
  4 25  1  0  0  0  0
  5  7  2  0  0  0  0
  5 11  1  0  0  0  0
  5 26  1  0  0  0  0
  6  8  1  0  0  0  0
  6 11  2  0  0  0  0
  6 27  1  0  0  0  0
  7 10  1  0  0  0  0
  7 13  1  0  0  0  0
  8 10  2  0  0  0  0
  8 14  1  0  0  0  0
  9 15  1  0  0  0  0
 10 16  1  0  0  0  0
 11 19  1  0  0  0  0
 12 21  1  0  0  0  0
 13 28  1  0  0  0  0
 13 29  1  0  0  0  0
 13 30  1  0  0  0  0
 14 31  1  0  0  0  0
 14 32  1  0  0  0  0
 14 33  1  0  0  0  0
 15 16  2  0  0  0  0
 17 21  2  0  0  0  0
 18 21  2  0  0  0  0
 19 34  1  0  0  0  0
 20 21  1  0  0  0  0
 20 35  1  0  0  0  0
M  END
$$$$
