74
0 1 C33H35NO4S
C                     7.178804963980    -5.473485184259     5.494388165631
C                     6.275702182573    -4.775034418183     6.303826152117
C                     8.306600495454    -4.812615869295     4.996868230158
C                    -9.289102279701    -1.277072982952    -0.891295049219
C                   -10.168943478698    -2.165558164683    -0.268724167571
C                     6.494244290043    -3.429668771939     6.602594414033
C                     8.526796773843    -3.467616530100     5.305608132803
C                     6.862916438147     2.120311803928     5.882770122208
C                     7.289460543740     1.303513623914     8.103434457356
C                     4.410075167893    -0.161405828014     5.959641647687
C                     5.646318509469    -1.317472159833     4.254400889998
C                     6.973860604699     3.433689238131     6.330830377392
C                     7.394147226818     2.616091672439     8.571991476318
C                     3.215399246559    -0.393100021211     5.269704215783
C                     4.471671067125    -1.547027323492     3.549960959753
C                    -8.190551044136    -0.805770767249    -0.172562957990
C                    -9.905570695047    -2.545177089529     1.050458017835
C                     7.036063475483     1.026975011805     6.752109884129
C                     5.642015356811    -0.630843165017     5.484306445459
C                     7.617215630393    -2.749104782970     6.100069134202
C                     7.242933013208     3.685741037375     7.682731081724
C                     3.242937078258    -1.093679423784     4.056399468014
C                    -8.013381249270    -1.250405351425     1.145265068226
C                     6.896215755520    -0.367993144949     6.245766299675
C                     7.850182150816    -1.316833696945     6.443914361955
C                     9.452489283690    -1.704504375850     8.394854432230
C                    -6.838529205849    -0.791559337540     1.968750561195
C                     9.213145532283    -1.019566853654     7.038417186923
C                    -1.591305840295    -0.937672542137     3.144531474666
C                    -0.176567215484    -1.365822435976     2.739210709036
C                    -2.644376273726    -1.371417506001     2.116464648564
C                     0.866020862999    -0.930780056594     3.758821532024
C                    -4.048192172898    -0.936702544434     2.538486982519
N                    -8.851929596913    -2.105488603030     1.750950270214
O                    -4.979899051626    -0.742572942764     0.038541463241
O                    -5.331049131556    -2.933222992119     1.303342667924
O                     7.336232130802     4.999849609271     8.077124999424
O                     2.140999775309    -1.372998248289     3.292217917817
S                    -5.268567813015    -1.463317621928     1.294911033421
H                     7.007597847964    -6.520373219169     5.257216792509
H                     5.399023193124    -5.279711120881     6.702343265182
H                     9.015188481808    -5.344008670861     4.366179965894
H                    -9.452819294474    -0.958630875446    -1.917394457952
H                   -11.038245663745    -2.558959636984    -0.787806365136
H                     5.786595217522    -2.890319288292     7.225153336276
H                     9.402975431530    -2.966214640570     4.902474758217
H                     6.640818603786     1.932829520000     4.835766102237
H                     7.392327259388     0.480894055365     8.804706695775
H                     4.377720479467     0.394200773310     6.893016916324
H                     6.586234863523    -1.674589702375     3.846528061435
H                     6.852409111327     4.273264522944     5.652516751554
H                     7.585167494325     2.803159843449     9.627933309962
H                     2.284826918479    -0.020389557768     5.682689229583
H                     4.480646891596    -2.074231745645     2.600312788082
H                    -7.468054423273    -0.130871456275    -0.620284052916
H                   -10.568620982134    -3.235300685976     1.569583189882
H                     9.347863477159    -2.790555360885     8.312833208142
H                     8.733057773651    -1.358621551246     9.144680092632
H                    10.459582403885    -1.486428150703     8.766306295303
H                    -6.939968884022    -1.162507180488     2.989909714367
H                    -6.716910037387     0.294823595067     1.957984434969
H                     9.360289600544     0.057895108993     7.130935847508
H                     9.979725980362    -1.375659538691     6.337807822336
H                    -1.839099218231    -1.366314025729     4.124853874321
H                    -1.625417449979     0.153559743971     3.264474088014
H                     0.082003136810    -0.936091223045     1.764786507988
H                    -0.130009876400    -2.455137211418     2.628842673589
H                    -2.411620746840    -0.937048319407     1.139057650208
H                    -2.624735438210    -2.459703455110     2.000370815154
H                     0.866953146241     0.162796812647     3.869445324109
H                     0.654135598459    -1.372337147200     4.742816061681
H                    -4.349451832873    -1.398031246120     3.483664680989
H                    -4.129435628197     0.151709957405     2.618131327788
H                     7.529085330581     5.031059560388     9.027503970115
