62
0 1 C28H31NO2
C                     0.096296218562    -9.281834671016     0.438387080985
C                     4.542492202631    -3.716617643892     6.773562463661
C                    -0.245482265261    -9.431095384619     1.787961125415
C                     0.648919789741    -8.076385146182    -0.002961016374
C                     5.340156763486    -4.464915389766     5.899142378264
C                     3.225549013629    -3.415002233954     6.416071507220
C                     1.186496630276    -1.499495779746     1.401866616708
C                    -0.850160998653    -2.690552441174     1.019162837437
C                    -0.035301327055    -8.379403367863     2.682872555816
C                     0.857180851859    -7.024605116672     0.896286624386
C                     4.819259800302    -4.904684967381     4.680102180340
C                     2.707769639773    -3.855331342384     5.192640604269
C                     1.734347430481    -2.613412908605     2.034942121080
C                    -0.316662415754    -3.822275097271     1.636336963511
C                    -0.115485623583    -1.506831689333     0.881958172429
C                     0.514463602372    -7.165571019832     2.245571796269
C                     3.499616706838    -4.602320438308     4.313877439793
C                     0.993161265390    -3.809845068558     2.160959567096
C                    -0.096047457647    -2.237621252643    -4.340521597019
C                    -1.945958925190     1.442113549306     0.485182708567
C                    -0.482041375059     1.085824872905     0.857772572524
C                    -2.204789055869    -0.059718119192     0.190971223363
C                    -0.658730565890    -0.299459594899     0.151128232897
C                     0.419158776147    -1.851488050499    -5.707686814875
C                     0.706178938854    -6.028238889506     3.241765088322
C                     2.966131019987    -5.082002275686     2.969226055781
C                    -0.103916518566    -0.233617969320    -1.287555560153
C                    -0.402699131767    -1.479345373035    -2.106299572397
N                     1.536503592179    -4.932462050680     2.781464794919
O                    -0.609819764079    -3.303982506188    -4.059271307445
O                     0.073173640422    -1.227538016620    -3.455630946743
H                    -0.066173948868   -10.098435891273    -0.260357203815
H                     4.944706539280    -3.375112480098     7.723896459580
H                    -0.671453732319   -10.366666294172     2.142006566703
H                     0.914546736015    -7.949767094616    -1.049478431442
H                     6.364605044070    -4.708460839977     6.169786009163
H                     2.598641207233    -2.834453081767     7.088447680086
H                     1.787188050428    -0.594879398054     1.329031644409
H                    -1.858008815510    -2.749846763504     0.615311030702
H                    -0.298969153460    -8.503466520106     3.732159403941
H                     1.283391126009    -6.088543083042     0.548121098632
H                     5.443168934074    -5.491093825824     4.007240789014
H                     1.685163139303    -3.616889361861     4.915472599369
H                     2.729027069333    -2.539859403614     2.461689160842
H                    -0.912845949877    -4.727626913575     1.674229597283
H                    -2.010895848243     2.063055903964    -0.412578171777
H                    -2.555632033097     1.901778247961     1.267464998093
H                     0.309295586342     1.736696220573     0.471536503621
H                    -0.348645209020     0.968472597878     1.936750278622
H                    -2.669419791600    -0.563784315435     1.042550845574
H                    -2.772795755645    -0.304097245764    -0.712117545432
H                    -0.232946147100    -1.085391159263    -6.139272936807
H                     0.424972221732    -2.728136823928    -6.355129110093
H                     1.422941379587    -1.425244311182    -5.633642238724
H                    -0.271016483871    -5.633048962278     3.539787676047
H                     1.152901677470    -6.429891557464     4.159240825490
H                     3.489996397442    -4.561529135822     2.160177353219
H                     3.215649610881    -6.142710641304     2.845533592174
H                     0.982152749542    -0.089194988485    -1.245182499358
H                    -0.522034715354     0.638580450227    -1.804410096290
H                     0.103722284070    -2.361659046714    -1.710854777550
H                    -1.473395997701    -1.699257700225    -2.148426068363
