
  -OEChem-05262117483D

 62 65  0     0  0  0  0  0  0999 V2000
   -0.8894   -8.7777    0.2050 C   0  0  0  0  0  0  0  0  0  0  0  0
    3.9989   -3.6271    6.6305 C   0  0  0  0  0  0  0  0  0  0  0  0
   -0.2279   -7.6088   -0.1813 C   0  0  0  0  0  0  0  0  0  0  0  0
   -1.2683   -8.9457    1.5425 C   0  0  0  0  0  0  0  0  0  0  0  0
    2.6817   -3.2735    6.3251 C   0  0  0  0  0  0  0  0  0  0  0  0
    4.7419   -4.3782    5.7115 C   0  0  0  0  0  0  0  0  0  0  0  0
    0.6062   -1.1458    1.4198 C   0  0  0  0  0  0  0  0  0  0  0  0
   -1.5042   -2.2181    1.0915 C   0  0  0  0  0  0  0  0  0  0  0  0
    0.0525   -6.6121    0.7604 C   0  0  0  0  0  0  0  0  0  0  0  0
   -0.9848   -7.9499    2.4800 C   0  0  0  0  0  0  0  0  0  0  0  0
    2.1094   -3.6650    5.1094 C   0  0  0  0  0  0  0  0  0  0  0  0
    4.1668   -4.7690    4.5002 C   0  0  0  0  0  0  0  0  0  0  0  0
    1.1162   -2.3006    2.0077 C   0  0  0  0  0  0  0  0  0  0  0  0
   -1.0084   -3.3920    1.6611 C   0  0  0  0  0  0  0  0  0  0  0  0
   -0.7130   -1.0723    0.9511 C   0  0  0  0  0  0  0  0  0  0  0  0
   -0.3238   -6.7733    2.0982 C   0  0  0  0  0  0  0  0  0  0  0  0
    2.8465   -4.4148    4.1865 C   0  0  0  0  0  0  0  0  0  0  0  0
    0.3188   -3.4601    2.1345 C   0  0  0  0  0  0  0  0  0  0  0  0
    0.5401   -0.9905   -3.8012 C   0  0  0  0  0  0  0  0  0  0  0  0
   -2.4100    1.9694    0.6729 C   0  0  0  0  0  0  0  0  0  0  0  0
   -0.9573    1.5347    1.0037 C   0  0  0  0  0  0  0  0  0  0  0  0
   -2.7463    0.4897    0.3464 C   0  0  0  0  0  0  0  0  0  0  0  0
   -1.2148    0.1788    0.2656 C   0  0  0  0  0  0  0  0  0  0  0  0
    0.7223   -0.7221   -5.2770 C   0  0  0  0  0  0  0  0  0  0  0  0
   -0.0401   -5.7003    3.1435 C   0  0  0  0  0  0  0  0  0  0  0  0
    2.2531   -4.8420    2.8494 C   0  0  0  0  0  0  0  0  0  0  0  0
   -0.6876    0.2561   -1.1831 C   0  0  0  0  0  0  0  0  0  0  0  0
   -1.0528   -0.9645   -2.0205 C   0  0  0  0  0  0  0  0  0  0  0  0
    0.8266   -4.6238    2.7085 N   0  0  0  0  0  0  0  0  0  0  0  0
    1.4126   -1.3755   -3.0458 O   0  0  0  0  0  0  0  0  0  0  0  0
   -0.7380   -0.7483   -3.4234 O   0  0  0  0  0  0  0  0  0  0  0  0
   -1.1067   -9.5520   -0.5263 H   0  0  0  0  0  0  0  0  0  0  0  0
    4.4435   -3.3229    7.5746 H   0  0  0  0  0  0  0  0  0  0  0  0
    0.0701   -7.4687   -1.2175 H   0  0  0  0  0  0  0  0  0  0  0  0
   -1.7799   -9.8531    1.8540 H   0  0  0  0  0  0  0  0  0  0  0  0
    2.0974   -2.6895    7.0320 H   0  0  0  0  0  0  0  0  0  0  0  0
    5.7663   -4.6612    5.9409 H   0  0  0  0  0  0  0  0  0  0  0  0
    1.2538   -0.2755    1.3361 H   0  0  0  0  0  0  0  0  0  0  0  0
   -2.5297   -2.2134    0.7296 H   0  0  0  0  0  0  0  0  0  0  0  0
    0.5621   -5.7032    0.4550 H   0  0  0  0  0  0  0  0  0  0  0  0
   -1.2773   -8.0893    3.5197 H   0  0  0  0  0  0  0  0  0  0  0  0
    1.0874   -3.3853    4.8719 H   0  0  0  0  0  0  0  0  0  0  0  0
    4.7488   -5.3565    3.7917 H   0  0  0  0  0  0  0  0  0  0  0  0
    2.1300   -2.2897    2.3932 H   0  0  0  0  0  0  0  0  0  0  0  0
   -1.6503   -4.2654    1.7027 H   0  0  0  0  0  0  0  0  0  0  0  0
   -2.4639    2.6160   -0.2073 H   0  0  0  0  0  0  0  0  0  0  0  0
   -2.9810    2.4364    1.4797 H   0  0  0  0  0  0  0  0  0  0  0  0
   -0.1439    2.1570    0.6165 H   0  0  0  0  0  0  0  0  0  0  0  0
   -0.8066    1.3819    2.0760 H   0  0  0  0  0  0  0  0  0  0  0  0
   -3.2171   -0.0135    1.1952 H   0  0  0  0  0  0  0  0  0  0  0  0
   -3.3446    0.2973   -0.5501 H   0  0  0  0  0  0  0  0  0  0  0  0
    0.0490   -1.3586   -5.8586 H   0  0  0  0  0  0  0  0  0  0  0  0
    1.7564   -0.9195   -5.5583 H   0  0  0  0  0  0  0  0  0  0  0  0
    0.4656    0.3172   -5.5020 H   0  0  0  0  0  0  0  0  0  0  0  0
   -0.9852   -5.2771    3.5009 H   0  0  0  0  0  0  0  0  0  0  0  0
    0.4204   -6.1717    4.0200 H   0  0  0  0  0  0  0  0  0  0  0  0
    2.7770   -4.3296    2.0352 H   0  0  0  0  0  0  0  0  0  0  0  0
    2.4502   -5.9100    2.6978 H   0  0  0  0  0  0  0  0  0  0  0  0
    0.4027    0.3537   -1.1630 H   0  0  0  0  0  0  0  0  0  0  0  0
   -1.0891    1.1513   -1.6740 H   0  0  0  0  0  0  0  0  0  0  0  0
   -0.5322   -1.8559   -1.6701 H   0  0  0  0  0  0  0  0  0  0  0  0
   -2.1293   -1.1483   -2.0130 H   0  0  0  0  0  0  0  0  0  0  0  0
  1  3  1  0  0  0  0
  1  4  2  0  0  0  0
  1 32  1  0  0  0  0
  2  5  1  0  0  0  0
  2  6  2  0  0  0  0
  2 33  1  0  0  0  0
  3  9  2  0  0  0  0
  3 34  1  0  0  0  0
  4 10  1  0  0  0  0
  4 35  1  0  0  0  0
  5 11  2  0  0  0  0
  5 36  1  0  0  0  0
  6 12  1  0  0  0  0
  6 37  1  0  0  0  0
  7 13  2  0  0  0  0
  7 15  1  0  0  0  0
  7 38  1  0  0  0  0
  8 14  1  0  0  0  0
  8 15  2  0  0  0  0
  8 39  1  0  0  0  0
  9 16  1  0  0  0  0
  9 40  1  0  0  0  0
 10 16  2  0  0  0  0
 10 41  1  0  0  0  0
 11 17  1  0  0  0  0
 11 42  1  0  0  0  0
 12 17  2  0  0  0  0
 12 43  1  0  0  0  0
 13 18  1  0  0  0  0
 13 44  1  0  0  0  0
 14 18  2  0  0  0  0
 14 45  1  0  0  0  0
 15 23  1  0  0  0  0
 16 25  1  0  0  0  0
 17 26  1  0  0  0  0
 18 29  1  0  0  0  0
 19 24  1  0  0  0  0
 19 30  2  0  0  0  0
 19 31  1  0  0  0  0
 20 21  1  0  0  0  0
 20 22  1  0  0  0  0
 20 46  1  0  0  0  0
 20 47  1  0  0  0  0
 21 23  1  0  0  0  0
 21 48  1  0  0  0  0
 21 49  1  0  0  0  0
 22 23  1  0  0  0  0
 22 50  1  0  0  0  0
 22 51  1  0  0  0  0
 23 27  1  0  0  0  0
 24 52  1  0  0  0  0
 24 53  1  0  0  0  0
 24 54  1  0  0  0  0
 25 29  1  0  0  0  0
 25 55  1  0  0  0  0
 25 56  1  0  0  0  0
 26 29  1  0  0  0  0
 26 57  1  0  0  0  0
 26 58  1  0  0  0  0
 27 28  1  0  0  0  0
 27 59  1  0  0  0  0
 27 60  1  0  0  0  0
 28 31  1  0  0  0  0
 28 61  1  0  0  0  0
 28 62  1  0  0  0  0
M  END
$$$$
