39
0 1 C16H18O4S
C                     3.082343923561    -1.285448106620     1.934954150625
C                     1.857728838431    -1.006636726017    -0.127880573139
C                    -0.440863831418     4.108116485990     2.067816096395
C                     0.680528497053     3.767817290601     4.179667801379
C                     1.978395731336    -0.838080920121     2.661233430734
C                     0.744273083307    -0.556289282261     0.582711693068
C                    -0.719863667901     2.744150054413     1.988435202000
C                     0.410823436021     2.399563735143     4.115498158822
C                     3.039695198482    -1.373465321262     0.534385949581
C                     0.266659249301     4.638094669870     3.159387802057
C                     0.820789128702    -0.469071448004     1.973567163917
C                    -0.282035996021     1.900945508244     3.012095664720
C                     4.260446887799    -1.800605751363    -0.244452893875
C                     0.536498133958     6.120376272619     3.266009384563
C                     5.138353674212    -0.592739415998    -0.616604345097
C                    -0.694077301642     6.933264542144     3.708161280938
O                    -1.788221972738    -0.052477985388     2.051182241586
O                    -0.514732530231    -0.421379336017     4.256576157591
O                     6.342191653352    -0.971954811470    -1.282840390119
O                    -1.743249080182     6.942069791633     2.738399157574
S                    -0.599186683587     0.135920140247     2.897224034871
H                     3.985767264648    -1.582337747104     2.462826971222
H                     1.802725783438    -1.087560595323    -1.211300277412
H                    -0.791306718923     4.772282998318     1.283785632911
H                     1.218419584183     4.164190177608     5.037982732918
H                     2.000333598121    -0.794395219379     3.745773101531
H                    -0.179854332023    -0.296298703001     0.075823976856
H                    -1.285972171979     2.335951231521     1.156831019347
H                     0.716201671643     1.727781674823     4.911694083581
H                     4.867773015400    -2.499841742335     0.338861129861
H                     3.956937446789    -2.319867985599    -1.162099587033
H                     1.337565637660     6.298076520012     3.992723891761
H                     0.891694117629     6.514068485463     2.304826885401
H                     4.557513882025     0.120048840382    -1.219858469936
H                     5.456178358915    -0.071834239984     0.290429471555
H                    -1.129943562315     6.491285871929     4.607799809028
H                    -0.382550698888     7.958791153589     3.952649407432
H                     6.106931334933    -1.370922391927    -2.135035075002
H                    -1.455746911121     7.487544697289     1.989845115302
