
  -OEChem-05262117483D

 62 66  0     0  0  0  0  0  0999 V2000
    0.2372   -2.3703   -9.8078 C   0  0  0  0  0  0  0  0  0  0  0  0
    0.0439   -2.6956   -8.4729 C   0  0  0  0  0  0  0  0  0  0  0  0
    1.2179   -3.0151  -10.6053 C   0  0  0  0  0  0  0  0  0  0  0  0
   -0.9074   -0.5061   -2.5099 C   0  0  0  0  0  0  0  0  0  0  0  0
   -3.1356   -1.3331   -1.0619 C   0  0  0  0  0  0  0  0  0  0  0  0
    1.9827   -5.1991   -6.6362 C   0  0  0  0  0  0  0  0  0  0  0  0
    0.8595   -3.6955   -7.9025 C   0  0  0  0  0  0  0  0  0  0  0  0
   -1.4707   -1.7637   -2.7824 C   0  0  0  0  0  0  0  0  0  0  0  0
    0.9758   -4.2578   -6.5751 C   0  0  0  0  0  0  0  0  0  0  0  0
    0.1842   -3.8906   -5.3957 C   0  0  0  0  0  0  0  0  0  0  0  0
   -0.0210   -2.5698   -4.8510 C   0  0  0  0  0  0  0  0  0  0  0  0
   -2.6018   -2.1738   -2.0390 C   0  0  0  0  0  0  0  0  0  0  0  0
    1.8297   -4.3386   -8.7077 C   0  0  0  0  0  0  0  0  0  0  0  0
    2.0225   -4.0123  -10.0598 C   0  0  0  0  0  0  0  0  0  0  0  0
   -1.4522    0.3315   -1.5418 C   0  0  0  0  0  0  0  0  0  0  0  0
   -2.5767   -0.0804   -0.8017 C   0  0  0  0  0  0  0  0  0  0  0  0
   -0.9258   -2.6842   -3.7848 C   0  0  0  0  0  0  0  0  0  0  0  0
   -0.6050   -4.7628   -4.6598 C   0  0  0  0  0  0  0  0  0  0  0  0
    0.5600   -1.3285   -5.3882 C   0  0  0  0  0  0  0  0  0  0  0  0
   -3.2126   -3.5242   -2.3317 C   0  0  0  0  0  0  0  0  0  0  0  0
   -2.1174   -4.5436   -2.6343 C   0  0  0  0  0  0  0  0  0  0  0  0
   -0.8380   -6.2282   -4.8410 C   0  0  0  0  0  0  0  0  0  0  0  0
    3.4648   -1.0289   -7.5605 C   0  0  0  0  0  0  0  0  0  0  0  0
    3.2362   -4.4010  -12.0809 C   0  0  0  0  0  0  0  0  0  0  0  0
   -1.5694    2.6543   -1.9115 C   0  0  0  0  0  0  0  0  0  0  0  0
   -2.3673    1.0062    1.2983 C   0  0  0  0  0  0  0  0  0  0  0  0
    2.3039   -0.4679   -6.7583 C   0  0  0  0  0  0  0  0  0  0  0  0
    2.4997   -5.2546   -7.9215 N   0  0  0  0  0  0  0  0  0  0  0  0
   -1.2667   -4.0212   -3.6980 N   0  0  0  0  0  0  0  0  0  0  0  0
    0.0492   -0.2161   -5.3424 O   0  0  0  0  0  0  0  0  0  0  0  0
    3.0098   -4.7148  -10.7101 O   0  0  0  0  0  0  0  0  0  0  0  0
   -0.8636    1.5601   -1.3035 O   0  0  0  0  0  0  0  0  0  0  0  0
   -3.1715    0.7345    0.1380 O   0  0  0  0  0  0  0  0  0  0  0  0
    1.7516   -1.5588   -5.9866 O   0  0  0  0  0  0  0  0  0  0  0  0
   -0.3742   -1.5981  -10.2674 H   0  0  0  0  0  0  0  0  0  0  0  0
   -0.7092   -2.1862   -7.8788 H   0  0  0  0  0  0  0  0  0  0  0  0
    1.3301   -2.7197  -11.6426 H   0  0  0  0  0  0  0  0  0  0  0  0
   -0.0508   -0.1462   -3.0633 H   0  0  0  0  0  0  0  0  0  0  0  0
   -4.0029   -1.6381   -0.4815 H   0  0  0  0  0  0  0  0  0  0  0  0
    2.3943   -5.8131   -5.8463 H   0  0  0  0  0  0  0  0  0  0  0  0
   -3.8153   -3.8701   -1.4869 H   0  0  0  0  0  0  0  0  0  0  0  0
   -3.8770   -3.4539   -3.2035 H   0  0  0  0  0  0  0  0  0  0  0  0
   -1.5112   -4.7320   -1.7379 H   0  0  0  0  0  0  0  0  0  0  0  0
   -2.5449   -5.4934   -2.9601 H   0  0  0  0  0  0  0  0  0  0  0  0
   -0.4716   -6.8216   -3.9940 H   0  0  0  0  0  0  0  0  0  0  0  0
   -1.9028   -6.4592   -4.9700 H   0  0  0  0  0  0  0  0  0  0  0  0
   -0.3139   -6.5643   -5.7376 H   0  0  0  0  0  0  0  0  0  0  0  0
    4.2215   -1.4636   -6.9001 H   0  0  0  0  0  0  0  0  0  0  0  0
    3.1172   -1.8023   -8.2498 H   0  0  0  0  0  0  0  0  0  0  0  0
    3.9323   -0.2271   -8.1421 H   0  0  0  0  0  0  0  0  0  0  0  0
    4.0441   -5.0557  -12.4110 H   0  0  0  0  0  0  0  0  0  0  0  0
    3.5411   -3.3545  -12.2034 H   0  0  0  0  0  0  0  0  0  0  0  0
    2.3408   -4.5928  -12.6848 H   0  0  0  0  0  0  0  0  0  0  0  0
   -1.0119    3.5584   -1.6571 H   0  0  0  0  0  0  0  0  0  0  0  0
   -2.5906    2.7260   -1.5211 H   0  0  0  0  0  0  0  0  0  0  0  0
   -1.5957    2.5319   -3.0007 H   0  0  0  0  0  0  0  0  0  0  0  0
   -2.9737    1.6458    1.9430 H   0  0  0  0  0  0  0  0  0  0  0  0
   -1.4404    1.5186    1.0264 H   0  0  0  0  0  0  0  0  0  0  0  0
   -2.1339    0.0724    1.8250 H   0  0  0  0  0  0  0  0  0  0  0  0
    1.5213   -0.0655   -7.4067 H   0  0  0  0  0  0  0  0  0  0  0  0
    2.6191    0.3258   -6.0732 H   0  0  0  0  0  0  0  0  0  0  0  0
    3.2546   -5.8435   -8.2402 H   0  0  0  0  0  0  0  0  0  0  0  0
  1  2  1  0  0  0  0
  1  3  2  0  0  0  0
  1 35  1  0  0  0  0
  2  7  2  0  0  0  0
  2 36  1  0  0  0  0
  3 14  1  0  0  0  0
  3 37  1  0  0  0  0
  4  8  2  0  0  0  0
  4 15  1  0  0  0  0
  4 38  1  0  0  0  0
  5 12  2  0  0  0  0
  5 16  1  0  0  0  0
  5 39  1  0  0  0  0
  6  9  2  0  0  0  0
  6 28  1  0  0  0  0
  6 40  1  0  0  0  0
  7  9  1  0  0  0  0
  7 13  1  0  0  0  0
  8 12  1  0  0  0  0
  8 17  1  0  0  0  0
  9 10  1  0  0  0  0
 10 11  1  0  0  0  0
 10 18  2  0  0  0  0
 11 17  2  0  0  0  0
 11 19  1  0  0  0  0
 12 20  1  0  0  0  0
 13 14  2  0  0  0  0
 13 28  1  0  0  0  0
 14 31  1  0  0  0  0
 15 16  2  0  0  0  0
 15 32  1  0  0  0  0
 16 33  1  0  0  0  0
 17 29  1  0  0  0  0
 18 22  1  0  0  0  0
 18 29  1  0  0  0  0
 19 30  2  0  0  0  0
 19 34  1  0  0  0  0
 20 21  1  0  0  0  0
 20 41  1  0  0  0  0
 20 42  1  0  0  0  0
 21 29  1  0  0  0  0
 21 43  1  0  0  0  0
 21 44  1  0  0  0  0
 22 45  1  0  0  0  0
 22 46  1  0  0  0  0
 22 47  1  0  0  0  0
 23 27  1  0  0  0  0
 23 48  1  0  0  0  0
 23 49  1  0  0  0  0
 23 50  1  0  0  0  0
 24 31  1  0  0  0  0
 24 51  1  0  0  0  0
 24 52  1  0  0  0  0
 24 53  1  0  0  0  0
 25 32  1  0  0  0  0
 25 54  1  0  0  0  0
 25 55  1  0  0  0  0
 25 56  1  0  0  0  0
 26 33  1  0  0  0  0
 26 57  1  0  0  0  0
 26 58  1  0  0  0  0
 26 59  1  0  0  0  0
 27 34  1  0  0  0  0
 27 60  1  0  0  0  0
 27 61  1  0  0  0  0
 28 62  1  0  0  0  0
M  END
$$$$
