62
0 1 C27H28N2O5
C                    -0.478369922404    -5.126950894883    -9.118318505453
C                    -0.202211412994    -5.090370112584    -7.759184890587
C                     0.221176446877    -5.985361194739   -10.005293388966
C                     0.707327390987    -1.455291728760    -2.618876552178
C                    -1.062529132106    -1.705386127960    -0.488879244222
C                     2.336233113637    -7.136872940640    -6.091366121750
C                     0.810584485955    -5.935994136337    -7.259305856650
C                     0.080076185624    -2.691500853738    -2.393802725728
C                     1.362799003150    -6.170559639786    -5.943297295146
C                     0.950061252693    -5.502379492944    -4.706109054742
C                     0.871854105103    -4.083580142139    -4.493214887392
C                    -0.795220407738    -2.815694262951    -1.290970795786
C                     1.498827698809    -6.793034671566    -8.150276022812
C                     1.218047927153    -6.830686111657    -9.525373517096
C                     0.434646798250    -0.351229340092    -1.818058592574
C                    -0.475871793211    -0.465505010567    -0.749397137988
C                     0.321013977543    -3.870019407298    -3.225180891503
C                     0.427139805671    -6.116069987232    -3.574305265195
C                     1.314180365368    -3.084272806245    -5.482749928903
C                    -1.437045693244    -4.158997874941    -1.028420337645
C                    -0.453606508611    -5.288814831609    -1.335465507939
C                     0.192338696652    -7.565496315788    -3.296819092497
C                    -0.050128914833     0.235465115291    -6.136681402545
C                     1.726610325192    -7.756051865161   -11.668320971462
C                     2.038836288548     1.260400233617    -1.157807748184
C                    -1.492659466364     1.664614828372    -0.546248187022
C                     0.880810926820    -0.933207392459    -6.409364694085
N                     2.417418147772    -7.521052928533    -7.420077238231
N                     0.050820829911    -5.119074891160    -2.693197766299
O                     2.300499417050    -3.190922048844    -6.190780342398
O                     1.969686522219    -7.713440039608   -10.266170604642
O                     1.048187530095     0.851923793777    -2.115416819478
O                    -0.759610580952     0.599116324185     0.082013005965
O                     0.473844345981    -2.015513316289    -5.538744550861
H                    -1.251796124386    -4.482762923092    -9.528816566283
H                    -0.748061526459    -4.425310365000    -7.096132074033
H                    -0.032622314509    -5.972522826431   -11.059488138757
H                     1.427067474842    -1.330943466419    -3.417155837032
H                    -1.743253387684    -1.781659524437     0.355577753277
H                     3.001124043108    -7.559115121266    -5.349719725947
H                    -1.769975990140    -4.233123346412     0.010976786382
H                    -2.321638141578    -4.282987873726    -1.667594567036
H                     0.383350179817    -5.271273623095    -0.624481423050
H                    -0.941861694148    -6.262196034959    -1.259804057280
H                     0.806108355850    -7.940979567272    -2.468535216377
H                    -0.857049240195    -7.769758443935    -3.049850029778
H                     0.443453730522    -8.142836299240    -4.188904732469
H                    -1.090696943982    -0.041783091706    -6.331039952735
H                     0.033040787847     0.563967839383    -5.096502604401
H                     0.210803652780     1.076340413883    -6.788174835066
H                     2.417228765832    -8.497942762002   -12.072456565352
H                     1.922359198543    -6.782660110017   -12.134687397860
H                     0.695409563479    -8.062241493491   -11.883896553824
H                     2.441485159064     2.208272486569    -1.520814392775
H                     2.843846998569     0.517420030780    -1.103068165232
H                     1.596562829584     1.398393732510    -0.166101825958
H                    -1.652254084831     2.419701928443     0.226187612185
H                    -2.461709560624     1.297968285963    -0.906455695841
H                    -0.929519519435     2.095229867789    -1.379543762919
H                     1.924912870175    -0.681844629569    -6.201057207251
H                     0.822630395515    -1.278507270155    -7.446182698348
H                     3.072945196539    -8.179201447117    -7.814525856980
