
  -OEChem-05262117483D

 39 40  0     0  0  0  0  0  0999 V2000
    2.8548   -1.5189    1.8989 C   0  0  0  0  0  0  0  0  0  0  0  0
    1.6801   -1.1833   -0.1861 C   0  0  0  0  0  0  0  0  0  0  0  0
   -0.7253    3.9621    1.9418 C   0  0  0  0  0  0  0  0  0  0  0  0
    0.5662    3.6399    3.9588 C   0  0  0  0  0  0  0  0  0  0  0  0
    1.7476   -1.0489    2.6046 C   0  0  0  0  0  0  0  0  0  0  0  0
    0.5635   -0.7095    0.5055 C   0  0  0  0  0  0  0  0  0  0  0  0
   -1.0014    2.5942    1.8858 C   0  0  0  0  0  0  0  0  0  0  0  0
    0.2983    2.2720    3.9178 C   0  0  0  0  0  0  0  0  0  0  0  0
    2.8374   -1.5886    0.4961 C   0  0  0  0  0  0  0  0  0  0  0  0
    0.0613    4.5019    2.9706 C   0  0  0  0  0  0  0  0  0  0  0  0
    0.6137   -0.6411    1.8980 C   0  0  0  0  0  0  0  0  0  0  0  0
   -0.4795    1.7615    2.8756 C   0  0  0  0  0  0  0  0  0  0  0  0
    4.0512   -2.0652   -0.2683 C   0  0  0  0  0  0  0  0  0  0  0  0
    0.3194    5.9899    3.0377 C   0  0  0  0  0  0  0  0  0  0  0  0
    5.1652   -1.0185   -0.3451 C   0  0  0  0  0  0  0  0  0  0  0  0
   -0.5160    6.6998    4.1061 C   0  0  0  0  0  0  0  0  0  0  0  0
   -1.9955   -0.1989    1.9549 O   0  0  0  0  0  0  0  0  0  0  0  0
   -0.7335   -0.5324    4.1715 O   0  0  0  0  0  0  0  0  0  0  0  0
    5.7174   -0.8536    0.9652 O   0  0  0  0  0  0  0  0  0  0  0  0
   -0.0328    6.2994    5.3928 O   0  0  0  0  0  0  0  0  0  0  0  0
   -0.8049   -0.0048    2.7992 S   0  0  0  0  0  0  0  0  0  0  0  0
    3.7453   -1.8313    2.4350 H   0  0  0  0  0  0  0  0  0  0  0  0
    1.6456   -1.2488   -1.2714 H   0  0  0  0  0  0  0  0  0  0  0  0
   -1.1316    4.6187    1.1755 H   0  0  0  0  0  0  0  0  0  0  0  0
    1.1540    4.0525    4.7724 H   0  0  0  0  0  0  0  0  0  0  0  0
    1.7485   -1.0132    3.6897 H   0  0  0  0  0  0  0  0  0  0  0  0
   -0.3412   -0.4180   -0.0190 H   0  0  0  0  0  0  0  0  0  0  0  0
   -1.6239    2.1764    1.1007 H   0  0  0  0  0  0  0  0  0  0  0  0
    0.6680    1.6066    4.6920 H   0  0  0  0  0  0  0  0  0  0  0  0
    4.4677   -2.9654    0.1973 H   0  0  0  0  0  0  0  0  0  0  0  0
    3.7659   -2.3325   -1.2913 H   0  0  0  0  0  0  0  0  0  0  0  0
    1.3757    6.1867    3.2531 H   0  0  0  0  0  0  0  0  0  0  0  0
    0.0955    6.4504    2.0696 H   0  0  0  0  0  0  0  0  0  0  0  0
    5.9383   -1.3651   -1.0464 H   0  0  0  0  0  0  0  0  0  0  0  0
    4.7575   -0.0695   -0.7213 H   0  0  0  0  0  0  0  0  0  0  0  0
   -0.4142    7.7877    3.9808 H   0  0  0  0  0  0  0  0  0  0  0  0
   -1.5757    6.4355    3.9845 H   0  0  0  0  0  0  0  0  0  0  0  0
    6.3160   -0.0918    0.9543 H   0  0  0  0  0  0  0  0  0  0  0  0
   -0.6711    6.5816    6.0649 H   0  0  0  0  0  0  0  0  0  0  0  0
  1  5  1  0  0  0  0
  1  9  2  0  0  0  0
  1 22  1  0  0  0  0
  2  6  2  0  0  0  0
  2  9  1  0  0  0  0
  2 23  1  0  0  0  0
  3  7  2  0  0  0  0
  3 10  1  0  0  0  0
  3 24  1  0  0  0  0
  4  8  1  0  0  0  0
  4 10  2  0  0  0  0
  4 25  1  0  0  0  0
  5 11  2  0  0  0  0
  5 26  1  0  0  0  0
  6 11  1  0  0  0  0
  6 27  1  0  0  0  0
  7 12  1  0  0  0  0
  7 28  1  0  0  0  0
  8 12  2  0  0  0  0
  8 29  1  0  0  0  0
  9 13  1  0  0  0  0
 10 14  1  0  0  0  0
 11 21  1  0  0  0  0
 12 21  1  0  0  0  0
 13 15  1  0  0  0  0
 13 30  1  0  0  0  0
 13 31  1  0  0  0  0
 14 16  1  0  0  0  0
 14 32  1  0  0  0  0
 14 33  1  0  0  0  0
 15 19  1  0  0  0  0
 15 34  1  0  0  0  0
 15 35  1  0  0  0  0
 16 20  1  0  0  0  0
 16 36  1  0  0  0  0
 16 37  1  0  0  0  0
 17 21  2  0  0  0  0
 18 21  2  0  0  0  0
 19 38  1  0  0  0  0
 20 39  1  0  0  0  0
M  END
$$$$
