29
0 1 C13H12O4
C                    -0.645996069777    -2.438542177049     0.604993339827
C                     3.822230344754    -4.524722574774    -0.574989150736
C                    -0.198278165789    -3.741926935728     0.584125352944
C                     3.377441452503    -3.223715123547    -0.489406161846
C                     0.226416153238    -1.363323290763     0.312900796594
C                     2.972946541996    -5.597861593535    -0.207325640854
C                     2.044673912239    -2.951193209888    -0.078720354233
C                     1.158515538578    -4.022627251427     0.264027492280
C                     1.540856699166    -1.615513120591    -0.029386295322
C                     1.685989100261    -5.351861655376     0.234758949471
C                     1.509388022727    -7.303024974932     2.820092408210
C                    -0.870883652308    -7.272364759560     1.962742849365
C                     0.468185081468    -6.554824047320     1.960791582485
O                     1.197478549677    -8.101628571331     3.673403858095
O                     2.429860368728    -0.620975544652    -0.347960744756
O                     2.809766409253    -6.980431625670     2.619037596679
O                     0.898370058565    -6.434524376941     0.582510653354
H                    -1.685320326102    -2.224708148638     0.838516851015
H                     4.832405186644    -4.738940362498    -0.911935066560
H                    -0.887144839358    -4.556725487358     0.771286225218
H                     4.026634329436    -2.395042323344    -0.748562308021
H                    -0.145423183972    -0.340606663224     0.341942491716
H                     3.315226209556    -6.626841297951    -0.282638257896
H                    -0.771594418025    -8.255599570663     1.496475828906
H                    -1.605412752213    -6.689991956870     1.400565798580
H                    -1.222482680891    -7.411599115510     2.986096167048
H                     0.367731101686    -5.554840475869     2.400353320459
H                     1.977734138112     0.236410146413    -0.297234584649
H                     2.903326337128    -6.330740322014     1.895204173638
