
  -OEChem-05262117483D

 18 18  0     0  0  0  0  0  0999 V2000
    4.1594   -1.4695    1.1641 C   0  0  0  0  0  0  0  0  0  0  0  0
    3.3030   -0.3839    1.3465 C   0  0  0  0  0  0  0  0  0  0  0  0
    2.4870   -1.3776    3.4135 C   0  0  0  0  0  0  0  0  0  0  0  0
    3.3249   -2.4721    3.1961 C   0  0  0  0  0  0  0  0  0  0  0  0
    4.1647   -2.5257    2.0756 C   0  0  0  0  0  0  0  0  0  0  0  0
    2.4806   -0.3596    2.4702 C   0  0  0  0  0  0  0  0  0  0  0  0
    4.8657   -4.4794    0.9501 C   0  0  0  0  0  0  0  0  0  0  0  0
    3.2908   -3.5543    4.1989 N   0  3  0  0  0  0  0  0  0  0  0  0
    3.5167   -4.7029    3.8189 O   0  5  0  0  0  0  0  0  0  0  0  0
    3.0108   -3.2267    5.3565 O   0  0  0  0  0  0  0  0  0  0  0  0
    5.0876   -3.5606    1.9435 O   0  0  0  0  0  0  0  0  0  0  0  0
    1.6579    0.6941    2.6573 F   0  0  0  0  0  0  0  0  0  0  0  0
    5.2092   -3.9643   -0.2665 F   0  0  0  0  0  0  0  0  0  0  0  0
    3.5655   -4.8233    0.8554 F   0  0  0  0  0  0  0  0  0  0  0  0
    5.8593   -5.9049    1.2753 Cl  0  0  0  0  0  0  0  0  0  0  0  0
    4.8344   -1.5049    0.3163 H   0  0  0  0  0  0  0  0  0  0  0  0
    3.2783    0.4403    0.6409 H   0  0  0  0  0  0  0  0  0  0  0  0
    1.8583   -1.3326    4.2951 H   0  0  0  0  0  0  0  0  0  0  0  0
  1  2  1  0  0  0  0
  1  5  2  0  0  0  0
  1 16  1  0  0  0  0
  2  6  2  0  0  0  0
  2 17  1  0  0  0  0
  3  4  2  0  0  0  0
  3  6  1  0  0  0  0
  3 18  1  0  0  0  0
  4  5  1  0  0  0  0
  4  8  1  0  0  0  0
  5 11  1  0  0  0  0
  6 12  1  0  0  0  0
  7 11  1  0  0  0  0
  7 13  1  0  0  0  0
  7 14  1  0  0  0  0
  7 15  1  0  0  0  0
  8  9  1  0  0  0  0
  8 10  2  0  0  0  0
M  CHG  2   8   1   9  -1
M  END
$$$$
