36
0 1 C15FH18NO
C                     4.068738705794    -2.385523134421     2.639233491463
C                     2.774532801006    -2.881537031553     2.451222241994
C                     4.271211733417    -1.129526242583     3.216565849471
C                     1.851915673311    -0.871271692665     3.427137992513
C                     1.657276415778    -2.130265489675     2.838407130928
C                     3.147645931264    -0.402047539993     3.600135108653
C                    -0.647732046200    -1.568792996012     1.982625328362
C                     1.790891587097     1.530796209583    -1.758847864367
C                     0.829408314192     0.642590549837    -2.531098790223
C                     1.621563706359    -0.729144372530    -0.465875905582
C                    -0.211900245546     0.989966543192    -0.170439147589
C                     0.573848959059    -1.822045514223    -0.203270762268
C                    -1.204125708665    -0.156954627448     0.069567392983
C                     0.953334261367     0.516683797110    -1.025941581630
C                     0.246568168648    -2.642127000700     2.610847399278
N                    -0.507241497636    -1.313846174084     0.643759534046
O                    -1.446961870910    -0.951414988542     2.693361869444
F                     3.326975986257     0.821141216759     4.163728936167
H                     4.926010189834    -2.978155455535     2.331507291266
H                     2.634055921090    -3.858628523873     1.995136686321
H                     5.263679104606    -0.717704683091     3.370701729838
H                     1.008119819235    -0.260616601192     3.735911090444
H                     2.855662774251     1.337992667793    -1.861890150430
H                     1.535248267416     2.581391316066    -1.648236899538
H                    -0.068759630430     1.099764945831    -2.938284963730
H                     1.252040382003    -0.143037531396    -3.152350893470
H                     2.131499070546    -0.491406218864     0.474918575718
H                     2.378689112377    -1.109904124066    -1.161302884283
H                    -0.728469962634     1.829346371111    -0.650096277683
H                     0.157339762622     1.344965884612     0.800039275339
H                     0.131852455572    -2.142817160354    -1.155565206292
H                     1.034061504297    -2.696131270750     0.251999003234
H                    -1.996387565995     0.134386838695     0.757368959829
H                    -1.655801979899    -0.467773101134    -0.880913396695
H                     0.268525472112    -3.558491481601     2.015026198083
H                    -0.224674858584    -2.880927445865     3.567366635399
