
  -OEChem-05262117483D

 21 22  0     0  0  0  0  0  0999 V2000
    1.5844   -1.1351   -0.0548 C   0  0  0  0  0  0  0  0  0  0  0  0
    0.6637   -0.4798    0.7585 C   0  0  0  0  0  0  0  0  0  0  0  0
    2.5748   -1.9426    0.5138 C   0  0  0  0  0  0  0  0  0  0  0  0
    0.6937   -0.6256    2.1558 C   0  0  0  0  0  0  0  0  0  0  0  0
    1.6993   -1.4301    2.7058 C   0  0  0  0  0  0  0  0  0  0  0  0
    2.6341   -2.0838    1.9002 C   0  0  0  0  0  0  0  0  0  0  0  0
   -0.3507    0.1128    2.9542 C   0  0  0  0  0  0  0  0  0  0  0  0
   -2.2055   -0.0664    4.7212 C   0  0  0  0  0  0  0  0  0  0  0  0
   -1.0451    0.6016    5.3810 C   0  0  0  0  0  0  0  0  0  0  0  0
   -0.7919   -0.4224    4.2684 C   0  0  0  0  0  0  0  0  0  0  0  0
   -0.8490    1.1295    2.4768 O   0  0  0  0  0  0  0  0  0  0  0  0
    1.8063   -1.5615    4.0456 F   0  0  0  0  0  0  0  0  0  0  0  0
    3.9908   -3.1562    2.7043 Br  0  0  0  0  0  0  0  0  0  0  0  0
    1.5400   -1.0210   -1.1338 H   0  0  0  0  0  0  0  0  0  0  0  0
   -0.1030    0.1618    0.3369 H   0  0  0  0  0  0  0  0  0  0  0  0
    3.3016   -2.4555   -0.1080 H   0  0  0  0  0  0  0  0  0  0  0  0
   -2.7427   -0.8382    5.2637 H   0  0  0  0  0  0  0  0  0  0  0  0
   -2.7897    0.5210    4.0208 H   0  0  0  0  0  0  0  0  0  0  0  0
   -0.8470    1.6358    5.1191 H   0  0  0  0  0  0  0  0  0  0  0  0
   -0.7604    0.3027    6.3848 H   0  0  0  0  0  0  0  0  0  0  0  0
   -0.4006   -1.3832    4.5742 H   0  0  0  0  0  0  0  0  0  0  0  0
  1  2  1  0  0  0  0
  1  3  2  0  0  0  0
  1 14  1  0  0  0  0
  2  4  2  0  0  0  0
  2 15  1  0  0  0  0
  3  6  1  0  0  0  0
  3 16  1  0  0  0  0
  4  5  1  0  0  0  0
  4  7  1  0  0  0  0
  5  6  2  0  0  0  0
  5 12  1  0  0  0  0
  6 13  1  0  0  0  0
  7 10  1  0  0  0  0
  7 11  2  0  0  0  0
  8  9  1  0  0  0  0
  8 10  1  0  0  0  0
  8 17  1  0  0  0  0
  8 18  1  0  0  0  0
  9 10  1  0  0  0  0
  9 19  1  0  0  0  0
  9 20  1  0  0  0  0
 10 21  1  0  0  0  0
M  END
$$$$
