
  -OEChem-05262117483D

 21 22  0     0  0  0  0  0  0999 V2000
    0.7727   -1.6860    0.9921 C   0  0  0  0  0  0  0  0  0  0  0  0
    1.0158   -2.2425    2.2449 C   0  0  0  0  0  0  0  0  0  0  0  0
   -0.0231    0.2754    2.1368 C   0  0  0  0  0  0  0  0  0  0  0  0
    0.2432   -0.4022    0.9529 C   0  0  0  0  0  0  0  0  0  0  0  0
    0.7238   -1.5030    3.4111 C   0  0  0  0  0  0  0  0  0  0  0  0
    0.6713   -1.3053    6.0085 C   0  0  0  0  0  0  0  0  0  0  0  0
    0.8087   -3.6251    4.9137 C   0  0  0  0  0  0  0  0  0  0  0  0
    2.1856   -3.0584    4.8985 C   0  0  0  0  0  0  0  0  0  0  0  0
    0.9845   -2.0996    4.7719 C   0  0  0  0  0  0  0  0  0  0  0  0
    0.2138   -0.2677    3.3345 N   0  0  0  0  0  0  0  0  0  0  0  0
    0.2132   -0.1885    6.0947 O   0  0  0  0  0  0  0  0  0  0  0  0
    0.9790   -2.0236    7.1434 O   0  0  0  0  0  0  0  0  0  0  0  0
   -0.0137    0.1896   -0.2393 F   0  0  0  0  0  0  0  0  0  0  0  0
    0.9848   -2.2249    0.0734 H   0  0  0  0  0  0  0  0  0  0  0  0
    1.4292   -3.2442    2.2954 H   0  0  0  0  0  0  0  0  0  0  0  0
   -0.4382    1.2818    2.1133 H   0  0  0  0  0  0  0  0  0  0  0  0
    0.4315   -4.1364    4.0347 H   0  0  0  0  0  0  0  0  0  0  0  0
    0.4154   -3.9809    5.8580 H   0  0  0  0  0  0  0  0  0  0  0  0
    2.7331   -3.0269    5.8325 H   0  0  0  0  0  0  0  0  0  0  0  0
    2.7968   -3.1629    4.0087 H   0  0  0  0  0  0  0  0  0  0  0  0
    0.7444   -1.4331    7.8836 H   0  0  0  0  0  0  0  0  0  0  0  0
  1  2  1  0  0  0  0
  1  4  2  0  0  0  0
  1 14  1  0  0  0  0
  2  5  2  0  0  0  0
  2 15  1  0  0  0  0
  3  4  1  0  0  0  0
  3 10  2  0  0  0  0
  3 16  1  0  0  0  0
  4 13  1  0  0  0  0
  5  9  1  0  0  0  0
  5 10  1  0  0  0  0
  6  9  1  0  0  0  0
  6 11  2  0  0  0  0
  6 12  1  0  0  0  0
  7  8  1  0  0  0  0
  7  9  1  0  0  0  0
  7 17  1  0  0  0  0
  7 18  1  0  0  0  0
  8  9  1  0  0  0  0
  8 19  1  0  0  0  0
  8 20  1  0  0  0  0
 12 21  1  0  0  0  0
M  END
$$$$
