21
0 1 C9FH8NO2
C                     0.772718152291    -1.685981871700     0.992121199333
C                     1.015804244933    -2.242543775476     2.244880495036
C                    -0.023149941894     0.275379015504     2.136810215830
C                     0.243197092853    -0.402197958615     0.952905310320
C                     0.723797412532    -1.503031456112     3.411135562535
C                     0.671342181763    -1.305303280073     6.008547337646
C                     0.808719194497    -3.625062837262     4.913684038607
C                     2.185599190464    -3.058369110815     4.898518317175
C                     0.984463084326    -2.099632944980     4.771889936070
N                     0.213750016237    -0.267667300137     3.334499235159
O                     0.213231269109    -0.188513867275     6.094693868515
O                     0.978981020095    -2.023552444179     7.143434589882
F                    -0.013729656192     0.189589224160    -0.239338232089
H                     0.984754036540    -2.224858038083     0.073432857878
H                     1.429170033486    -3.244237938720     2.295362117063
H                    -0.438227549931     1.281784607499     2.113262888310
H                     0.431486673659    -4.136363970788     4.034700043189
H                     0.415406084207    -3.980872364866     5.857990420341
H                     2.733094399459    -3.026927665835     5.832473156569
H                     2.796831397311    -3.162876164689     4.008679627142
H                     0.744396238719    -1.433133909467     7.883581921899
