
  -OEChem-05262117483D

 36 38  0     0  0  0  0  0  0999 V2000
    4.0687   -2.3855    2.6392 C   0  0  0  0  0  0  0  0  0  0  0  0
    2.7745   -2.8815    2.4512 C   0  0  0  0  0  0  0  0  0  0  0  0
    4.2712   -1.1295    3.2166 C   0  0  0  0  0  0  0  0  0  0  0  0
    1.8519   -0.8713    3.4271 C   0  0  0  0  0  0  0  0  0  0  0  0
    1.6573   -2.1303    2.8384 C   0  0  0  0  0  0  0  0  0  0  0  0
    3.1476   -0.4020    3.6001 C   0  0  0  0  0  0  0  0  0  0  0  0
   -0.6477   -1.5688    1.9826 C   0  0  0  0  0  0  0  0  0  0  0  0
    1.7909    1.5308   -1.7588 C   0  0  0  0  0  0  0  0  0  0  0  0
    0.8294    0.6426   -2.5311 C   0  0  0  0  0  0  0  0  0  0  0  0
    1.6216   -0.7291   -0.4659 C   0  0  0  0  0  0  0  0  0  0  0  0
   -0.2119    0.9900   -0.1704 C   0  0  0  0  0  0  0  0  0  0  0  0
    0.5738   -1.8220   -0.2033 C   0  0  0  0  0  0  0  0  0  0  0  0
   -1.2041   -0.1570    0.0696 C   0  0  0  0  0  0  0  0  0  0  0  0
    0.9533    0.5167   -1.0259 C   0  0  0  0  0  0  0  0  0  0  0  0
    0.2466   -2.6421    2.6108 C   0  0  0  0  0  0  0  0  0  0  0  0
   -0.5072   -1.3138    0.6438 N   0  0  0  0  0  0  0  0  0  0  0  0
   -1.4470   -0.9514    2.6934 O   0  0  0  0  0  0  0  0  0  0  0  0
    3.3270    0.8211    4.1637 F   0  0  0  0  0  0  0  0  0  0  0  0
    4.9260   -2.9782    2.3315 H   0  0  0  0  0  0  0  0  0  0  0  0
    2.6341   -3.8586    1.9951 H   0  0  0  0  0  0  0  0  0  0  0  0
    5.2637   -0.7177    3.3707 H   0  0  0  0  0  0  0  0  0  0  0  0
    1.0081   -0.2606    3.7359 H   0  0  0  0  0  0  0  0  0  0  0  0
    2.8557    1.3380   -1.8619 H   0  0  0  0  0  0  0  0  0  0  0  0
    1.5352    2.5814   -1.6482 H   0  0  0  0  0  0  0  0  0  0  0  0
   -0.0688    1.0998   -2.9383 H   0  0  0  0  0  0  0  0  0  0  0  0
    1.2520   -0.1430   -3.1524 H   0  0  0  0  0  0  0  0  0  0  0  0
    2.1315   -0.4914    0.4749 H   0  0  0  0  0  0  0  0  0  0  0  0
    2.3787   -1.1099   -1.1613 H   0  0  0  0  0  0  0  0  0  0  0  0
   -0.7285    1.8293   -0.6501 H   0  0  0  0  0  0  0  0  0  0  0  0
    0.1573    1.3450    0.8000 H   0  0  0  0  0  0  0  0  0  0  0  0
    0.1319   -2.1428   -1.1556 H   0  0  0  0  0  0  0  0  0  0  0  0
    1.0341   -2.6961    0.2520 H   0  0  0  0  0  0  0  0  0  0  0  0
   -1.9964    0.1344    0.7574 H   0  0  0  0  0  0  0  0  0  0  0  0
   -1.6558   -0.4678   -0.8809 H   0  0  0  0  0  0  0  0  0  0  0  0
    0.2685   -3.5585    2.0150 H   0  0  0  0  0  0  0  0  0  0  0  0
   -0.2247   -2.8809    3.5674 H   0  0  0  0  0  0  0  0  0  0  0  0
  1  2  1  0  0  0  0
  1  3  2  0  0  0  0
  1 19  1  0  0  0  0
  2  5  2  0  0  0  0
  2 20  1  0  0  0  0
  3  6  1  0  0  0  0
  3 21  1  0  0  0  0
  4  5  1  0  0  0  0
  4  6  2  0  0  0  0
  4 22  1  0  0  0  0
  5 15  1  0  0  0  0
  6 18  1  0  0  0  0
  7 15  1  0  0  0  0
  7 16  1  0  0  0  0
  7 17  2  0  0  0  0
  8  9  1  0  0  0  0
  8 14  1  0  0  0  0
  8 23  1  0  0  0  0
  8 24  1  0  0  0  0
  9 14  1  0  0  0  0
  9 25  1  0  0  0  0
  9 26  1  0  0  0  0
 10 12  1  0  0  0  0
 10 14  1  0  0  0  0
 10 27  1  0  0  0  0
 10 28  1  0  0  0  0
 11 13  1  0  0  0  0
 11 14  1  0  0  0  0
 11 29  1  0  0  0  0
 11 30  1  0  0  0  0
 12 16  1  0  0  0  0
 12 31  1  0  0  0  0
 12 32  1  0  0  0  0
 13 16  1  0  0  0  0
 13 33  1  0  0  0  0
 13 34  1  0  0  0  0
 15 35  1  0  0  0  0
 15 36  1  0  0  0  0
M  END
$$$$
