36
0 1 C17H15NOS2
C                    -0.005645564114    -3.346782104982     5.201810377479
C                     1.936846377204    -4.360165919812     4.191412408018
C                    -2.540858929405     2.965005084344     3.431272988528
C                    -0.405001592395     2.766250563813     4.510616710628
C                    -2.139466124500     2.061080945820     2.450072466918
C                     0.005127716588     1.845506950990     3.542042807065
C                     0.138300490467    -4.165583982755     6.322490269380
C                     2.090701275055    -5.180872295782     5.300130492493
C                     0.210104609685    -1.284270734952     2.968760776719
C                     0.887389504441    -3.420990847779     4.120969454298
C                    -1.684456804146     3.336221669938     4.482053031864
C                    -0.864286140725     1.468578601213     2.502818665776
C                     1.193124601298    -5.090113726226     6.377614410702
C                     0.720143951902    -2.542563197530     2.954051793430
C                     0.037155579877    -0.555363888905     1.724265181131
C                    -2.129714293401     4.334116256140     5.526578512783
C                     0.546611260798    -5.880677681433     8.541521277899
N                    -0.486625436147     0.587848040536     1.475207307792
O                     1.425999812193    -5.937644105588     7.419612271383
S                     1.172169310758    -3.212909779997     1.382510436197
S                     0.669257504017    -1.465072474102     0.301715985358
H                    -0.843859080169    -2.657688456725     5.158858873075
H                     2.656319861580    -4.429617063146     3.379948672961
H                    -3.537364658268     3.399655930800     3.375908299122
H                     0.290420147452     3.049736452473     5.298158921084
H                    -2.803820510613     1.793444819513     1.633190941493
H                     1.013229120456     1.440234107649     3.569625523575
H                    -0.578558620358    -4.082668311595     7.131281950571
H                     2.904564336629    -5.897084535094     5.359956738464
H                    -0.089255870323    -0.808800634870     3.895624281649
H                    -2.348812978878     5.309894854509     5.077512778565
H                    -3.041568395848     3.999863656523     6.034679854594
H                    -1.359441506042     4.484685085225     6.288321016423
H                     0.917347723909    -6.624657510605     9.247217564803
H                    -0.481337537618    -6.132071940950     8.254212300854
H                     0.566056422457    -4.890497234228     9.012215537780
