19   
torsion grid (-165,)
C        0.2864809831   -1.1772543550    0.6306170902
C        2.6539565136   -0.7694519175    0.4855057959
C        0.4306779068   -1.3910145549    1.9882908359
C        2.7454130526   -0.9830831600    1.8525153953
C        1.4104717665   -0.8736016635   -0.1498429913
C        1.1657002896   -0.5942064469   -1.6246469999
C        1.7753759943   -1.5620936754    4.0366267446
N        1.6481162756   -1.2923286684    2.5816902551
N        2.2551301827   -0.6108880524   -2.4426097283
O        0.0315343001   -0.3168692402   -1.9867856392
H       -0.6924610487   -1.2283097444    0.1654860913
H        3.5554147930   -0.4919757419   -0.0498723296
H       -0.4044343392   -1.6362415354    2.6348807181
H        3.6825077057   -0.9072003460    2.3921683446
H        1.8835448096   -2.6371791934    4.1928526517
H        2.6489903991   -1.0393100110    4.4227436935
H        0.8840263036   -1.1975455350    4.5458142771
H        2.0714502371   -0.4828426735   -3.4333225751
H        3.1031637923   -1.1086185171   -2.2040919493
19   
torsion grid (-150,)
C        0.3036071143   -1.1998510471    0.6072982273
C        2.6541607625   -0.6813743732    0.4985331757
C        0.4444885134   -1.4358611452    1.9615075841
C        2.7388629305   -0.9146098816    1.8628711386
C        1.4219081219   -0.8248220039   -0.1501957786
C        1.1976621950   -0.5066855605   -1.6174464069
C        1.7698836953   -1.5783138389    4.0240810524
N        1.6489925271   -1.2893642997    2.5722348215
N        2.2370368342   -0.7602823210   -2.4587984215
O        0.1281088883   -0.0171666477   -1.9498289273
H       -0.6700991755   -1.2824671023    0.1359380837
H        3.5449498203   -0.3582585399   -0.0298867336
H       -0.3841861182   -1.7359994958    2.5930161655
H        3.6647419929   -0.8048108504    2.4159213553
H        1.9104456454   -2.6517502664    4.1649868852
H        2.6225533114   -1.0346051763    4.4275782968
H        0.8624620308   -1.2497304738    4.5294706949
H        2.0716210930   -0.6046393148   -3.4486020847
H        2.9940304724   -1.3848618978   -2.2118042859
19   
torsion grid (-135,)
C        0.3257687963   -1.2238164448    0.5927637778
C        2.6525238174   -0.5994298652    0.5227816243
C        0.4618357344   -1.4781605481    1.9442049034
C        2.7315496728   -0.8520687640    1.8838753959
C        1.4341125001   -0.7802622774   -0.1424255371
C        1.2309162823   -0.4273176743   -1.6034523809
C        1.7661368351   -1.5955874296    4.0212186681
N        1.6509269102   -1.2871369054    2.5729187303
N        2.1631961050   -0.8982643853   -2.4724972475
O        0.2641304553    0.2577413718   -1.9029728104
H       -0.6403045114   -1.3444347314    0.1140416533
H        3.5349223025   -0.2376585057    0.0050820176
H       -0.3590279663   -1.8293119384    2.5594174187
H        3.6457104533   -0.7133836666    2.4498333433
H        1.9369080624   -2.6664908075    4.1471624718
H        2.5985864029   -1.0337768755    4.4416817202
H        0.8447813520   -1.3013147940    4.5226524180
H        2.0191860274   -0.7118267624   -3.4601654675
H        2.8384826782   -1.6080584231   -2.2192022215
19   
torsion grid (-120,)
C        0.3586360497   -1.2687978535    0.5748073140
C        2.6538457450   -0.5334454756    0.5456001612
C        0.4874366634   -1.5277779249    1.9261981945
C        2.7254367705   -0.7967490128    1.9046213698
C        1.4538009197   -0.7611302505   -0.1387379240
C        1.2674860412   -0.3691499212   -1.5917346075
C        1.7634076210   -1.6011707910    4.0225161458
N        1.6561010026   -1.2865887732    2.5750107225
N        2.0351653768   -1.0228907230   -2.4987159594
O        0.4465638411    0.5000623710   -1.8444972070
H       -0.5950868514   -1.4373879674    0.0858445948
H        3.5267841262   -0.1317296083    0.0413871737
H       -0.3248569983   -1.9233977276    2.5255967559
H        3.6252572191   -0.6246314960    2.4841994744
H        1.9701341329   -2.6661990518    4.1441460370
H        2.5700818561   -1.0134693819    4.4575023714
H        0.8260218629   -1.3424822453    4.5138856285
H        1.9131460923   -0.7964582102   -3.4810128332
H        2.6246658085   -1.8088243464   -2.2561160597
19   
torsion grid (-105,)
C        0.4140870016   -1.3083827827    0.5436592676
C        2.6735853840   -0.4700955768    0.5799012306
C        0.5181865855   -1.5687703778    1.8975226316
C        2.7233538312   -0.7439039079    1.9366583612
C        1.5026597057   -0.7457764817   -0.1378624636
C        1.3479190854   -0.3091797124   -1.5821891928
C        1.7433440728   -1.6027617237    4.0245268758
N        1.6579088659   -1.2828466701    2.5769009685
N        1.9106409537   -1.1033776868   -2.5239336145
O        0.7301145365    0.7245257086   -1.7891799618
H       -0.5184621679   -1.5235235530    0.0324016625
H        3.5397202096   -0.0262523402    0.0999578023
H       -0.2924765917   -2.0013696899    2.4731442989
H        3.6011099123   -0.5412372969    2.5397067868
H        2.0040130988   -2.6559849086    4.1453307380
H        2.5051380214   -0.9756793620    4.4847971140
H        0.7807420829   -1.3985274342    4.4921820192
H        1.8079635216   -0.8428409558   -3.5001247899
H        2.3614129391   -1.9822338315   -2.3029695054
19   
torsion grid (-90,)
C        0.8825355436   -0.0594729248    0.7027873007
C        2.5575353238   -1.7716347556    0.4327893525
C        0.8676141571   -0.3267183465    2.0610975883
C        2.5018551693   -2.0008809089    1.7955681111
C        1.7380845247   -0.7861868458   -0.1357526130
C        1.9094642496   -0.3965975095   -1.5921239201
C        1.6121805694   -1.5788041258    4.0445822130
N        1.6692020211   -1.2828344203    2.5905217424
N        1.0642504690   -0.9669579605   -2.4828368878
O        2.7980681894    0.4003594210   -1.8531013894
H        0.2419477541    0.7248472042    0.3129263431
H        3.2502405714   -2.3468966418   -0.1727507662
H        0.2282598800    0.2093582300    2.7532162813
H        3.1138087084   -2.7491132605    2.2868133736
H        0.9357458400   -2.4187024270    4.2144504828
H        2.6127687767   -1.8257245012    4.3978171009
H        1.2526769921   -0.6982621574    4.5745875654
H        1.1545372705   -0.7228588791   -3.4645197559
H        0.3472686906   -1.6283340350   -2.2128479876
19   
torsion grid (-75,)
C        0.8746130077   -0.1262219610    0.6757128231
C        2.6301705303   -1.7640694440    0.4649593676
C        0.8460369033   -0.3738516047    2.0385387957
C        2.5534221705   -1.9818766421    1.8277530334
C        1.7751251123   -0.8284860337   -0.1353723364
C        1.9775257291   -0.4608083281   -1.5933606043
C        1.5997164340   -1.5687461569    4.0526187848
N        1.6739895151   -1.2891349799    2.5961013318
N        0.9964971747   -0.8231679463   -2.4546225905
O        3.0027946390    0.1377677169   -1.8826594413
H        0.2076699099    0.6239406237    0.2633538322
H        3.3655866229   -2.3065426055   -0.1199026567
H        0.1743980447    0.1475832801    2.7110405598
H        3.1860424871   -2.6968904771    2.3416663045
H        0.9506357300   -2.4303388368    4.2205929076
H        2.6014987715   -1.7754414569    4.4275479859
H        1.1989999598   -0.6951791926    4.5643366950
H        1.1113710236   -0.6036689151   -3.4394517787
H        0.2038305041   -1.3875034124   -2.1761813528
19   
torsion grid (-60,)
C        0.8464011575   -0.1789809079    0.6543210879
C        2.6727195318   -1.7421926539    0.4822979421
C        0.8132812849   -0.4123080915    2.0205412202
C        2.5868041520   -1.9519333659    1.8452493263
C        1.7824726678   -0.8539117735   -0.1385413186
C        1.9917893973   -0.5166038546   -1.6026131290
C        1.5915275624   -1.5572123819    4.0546102084
N        1.6693876522   -1.2883533567    2.5961964776
N        0.9146197128   -0.6557222273   -2.4166207769
O        3.0989031144   -0.1275507914   -1.9432974585
H        0.1559716802    0.5412494096    0.2275633081
H        3.4407123910   -2.2499873950   -0.0915843846
H        0.1159874329    0.0914830020    2.6802249697
H        3.2420387415   -2.6344893386    2.3747373612
H        0.9991289636   -2.4587731192    4.2221544504
H        2.5991229729   -1.6923698506    4.4464374947
H        1.1248361842   -0.7077567461    4.5506077384
H        1.0407428754   -0.4750495230   -3.4079445678
H        0.0723199161   -1.1357496720   -2.1258363222
19   
torsion grid (-45,)
C        0.8337302548   -0.2572102958    0.6146950803
C        2.7232171897   -1.7466126901    0.4919308477
C        0.7942782844   -0.4664160875    1.9850288586
C        2.6311496260   -1.9360278902    1.8574587398
C        1.8039505726   -0.9090021391   -0.1557662890
C        2.0105075470   -0.6317082784   -1.6332829453
C        1.5907460096   -1.5445139271    4.0469079053
N        1.6778423680   -1.2972969863    2.5850847682
N        0.8853045327   -0.5576091787   -2.3938109787
O        3.1516794209   -0.4627592117   -2.0365234317
H        0.1228395230    0.4316514589    0.1703327718
H        3.5165288383   -2.2281668710   -0.0699545598
H        0.0709565030    0.0218384175    2.6282025525
H        3.3076330784   -2.5811968226    2.4067263373
H        1.0137245183   -2.4544979192    4.2225907433
H        2.5966952260   -1.6550295563    4.4502512820
H        1.1034764525   -0.6962669304    4.5249666277
H        1.0093860128   -0.4302049005   -3.3936868282
H       -0.0023722455   -0.9296941215   -2.0803604433
19   
torsion grid (-30,)
C        0.8162639639   -0.3239024057    0.6050658033
C        2.7682573698   -1.7324689491    0.5249148737
C        0.7665581071   -0.5184678094    1.9770528044
C        2.6671765204   -1.9074933766    1.8919444589
C        1.8253959282   -0.9403413569   -0.1446400361
C        2.0329844443   -0.7216048466   -1.6332581607
C        1.5799763328   -1.5345665407    4.0625613957
N        1.6777960574   -1.3023967266    2.5989063791
N        0.9233678305   -0.4361055587   -2.3689183775
O        3.1716470075   -0.7692008287   -2.0750867284
H        0.0846616970    0.3348676867    0.1493668380
H        3.5831597061   -2.1884371451   -0.0275026502
H        0.0136042230   -0.0553803341    2.6046247803
H        3.3632329578   -2.5166176207    2.4576507925
H        1.0146178845   -2.4510012311    4.2426212074
H        2.5833834101   -1.6262584592    4.4765194113
H        1.0761190688   -0.6880145783    4.5263815435
H        1.0551638895   -0.3487606038   -3.3721328368
H       -0.0098337520   -0.6628654761   -2.0497207709
19   
torsion grid (-15,)
C        0.7842934631   -0.3873913254    0.5957807880
C        2.7927268833   -1.7130051172    0.5387956414
C        0.7371681968   -0.5694466286    1.9694015301
C        2.6975528315   -1.8719007923    1.9083972900
C        1.8227135958   -0.9666138906   -0.1441016527
C        2.0156627535   -0.8104771624   -1.6451245484
C        1.5837983343   -1.5238670728    4.0704396011
N        1.6801974204   -1.3033266468    2.6048791609
N        0.9601309718   -0.3259945474   -2.3572058324
O        3.1098128781   -1.0710550310   -2.1240950313
H        0.0230149009    0.2350381304    0.1384823726
H        3.6195729480   -2.1492743014   -0.0120038736
H       -0.0405889265   -0.1362022435    2.5879210788
H        3.4179249626   -2.4431214383    2.4831638918
H        1.0457913533   -2.4553228538    4.2572188153
H        2.5878572076   -1.5813504658    4.4888124595
H        1.0527348748   -0.6884439411    4.5240732853
H        1.0831185467   -0.2863201833   -3.3646311835
H        0.0067655449   -0.3848793151   -2.0241293894
19   
torsion grid (0,)
C        0.7330932535   -0.5094654501    0.5954291422
C        2.8258705988   -1.6912151600    0.5553127094
C        0.7019151586   -0.6692974675    1.9722101249
C        2.7506140165   -1.8248743258    1.9287116373
C        1.8080308424   -1.0241179472   -0.1405108797
C        1.9867023510   -0.9252424112   -1.6510643158
C        1.6230163109   -1.5133442349    4.0894333660
N        1.6992995775   -1.3152131350    2.6195986591
N        1.0220094991   -0.2819137648   -2.3565459473
O        2.9712259783   -1.4461306298   -2.1573186254
H       -0.0980639422    0.0140186641    0.1366473807
H        3.6679347001   -2.0967437222    0.0040814040
H       -0.1095454659   -0.2909048874    2.5833242317
H        3.5120358423   -2.3326103639    2.5101612612
H        1.1579475855   -2.4791802412    4.2963323460
H        2.6295648611   -1.4860602625    4.5049452785
H        1.0308858625   -0.7119258041    4.5285687845
H        1.1621100126   -0.1969743182   -3.3580263091
H        0.2535528255    0.2299845550   -1.9482020017
19   
torsion grid (15,)
C        0.6829832475   -0.5837037217    0.5767175384
C        2.8464324413   -1.6386981235    0.5454692722
C        0.6627218136   -0.7308293503    1.9551170005
C        2.7825353864   -1.7548921529    1.9212044543
C        1.7898768754   -1.0371296632   -0.1516998329
C        1.9236480737   -0.9700904221   -1.6656925391
C        1.6398047719   -1.4862109504    4.0797233240
N        1.7023515801   -1.3014281061    2.6073598096
N        1.0517821131   -0.1596718601   -2.3282865823
O        2.7572549208   -1.6790585212   -2.2106306172
H       -0.1848740946   -0.1424750843    0.0989729096
H        3.7036270416   -2.0169829405   -0.0017907411
H       -0.1734966174   -0.4054936476    2.5635289429
H        3.5736544321   -2.2080406943    2.5080301008
H        1.2232004430   -2.4711955905    4.2992217904
H        2.6448293277   -1.4048834204    4.4917339750
H        1.0103435631   -0.7095377216    4.5114399548
H        1.1933121168   -0.0782946965   -3.3307696084
H        0.5795974108    0.6135571861   -1.8782885506
19   
torsion grid (30,)
C        0.6472608636   -0.6382507342    0.5718445120
C        2.8527768588   -1.6056393712    0.5403095924
C        0.6367062030   -0.7767659403    1.9514048584
C        2.8000787528   -1.7083158718    1.9174286661
C        1.7707164080   -1.0494974152   -0.1556936639
C        1.8566082951   -1.0280608425   -1.6719129732
C        1.6534240753   -1.4748474256    4.0771825426
N        1.7030036857   -1.2957652400    2.6036208772
N        1.1315721870   -0.0691699734   -2.3111909059
O        2.5251331413   -1.8867072280   -2.2285645301
H       -0.2358844606   -0.2379343471    0.0853276174
H        3.7196759245   -1.9659166646   -0.0035872001
H       -0.2122046398   -0.4868471524    2.5602173685
H        3.6112744434   -2.1226848275    2.5054815999
H        1.2931541655   -2.4803393949    4.3033125399
H        2.6529596152   -1.3346205336    4.4868149193
H        0.9819290511   -0.7323481406    4.5055701510
H        1.2360484753   -0.0192453588   -3.3201725886
H        0.8155090388    0.7707999315   -1.8435039962
19   
torsion grid (45,)
C        0.6014740550   -0.6848096562    0.5733267925
C        2.8443673439   -1.5637047770    0.5265257250
C        0.6075600357   -0.8213077654    1.9531244090
C        2.8068321335   -1.6629958270    1.9043108685
C        1.7363025025   -1.0493135886   -0.1613832370
C        1.7729558800   -1.0606305004   -1.6783907268
C        1.6692799731   -1.4710988235    4.0730330132
N        1.6991815538   -1.2936998309    2.5987373129
N        1.2317297929    0.0176403643   -2.3048148715
O        2.2537021996   -2.0358483686   -2.2365156864
H       -0.2965455072   -0.3160026197    0.0886108604
H        3.7213794392   -1.8975228234   -0.0179014198
H       -0.2482293696   -0.5659694301    2.5677965684
H        3.6384238413   -2.0432603391    2.4868689518
H        1.3645639627   -2.4936085155    4.3044291158
H        2.6626106679   -1.2763951451    4.4755664005
H        0.9620588931   -0.7642787704    4.5042342449
H        1.2934796000    0.0451212827   -3.3179948111
H        1.0415935739    0.8874741692   -1.8237096431
19   
torsion grid (60,)
C        0.5489806768   -0.7298395360    0.5887156078
C        2.8275776870   -1.5129468093    0.5182464975
C        0.5759557824   -0.8638818197    1.9681977016
C        2.8083427952   -1.6119404176    1.8963338058
C        1.6894162213   -1.0497855282   -0.1579476773
C        1.6767124416   -1.0897708423   -1.6743375788
C        1.6869287302   -1.4690874361    4.0765520319
N        1.6931309009   -1.2901708384    2.6023142621
N        1.3504574602    0.0655163596   -2.3068458434
O        1.9394188098   -2.1528544369   -2.2167058278
H       -0.3654977578   -0.3926759506    0.1116177675
H        3.7163022328   -1.8090990335   -0.0289876373
H       -0.2827040955   -0.6420337606    2.5917892627
H        3.6616604374   -1.9552657363    2.4703534718
H        1.4425849861   -2.5071596407    4.3102494566
H        2.6712169967   -1.2182976841    4.4703247624
H        0.9446667074   -0.8036742708    4.5146221775
H        1.3688682087    0.0757372917   -3.3220999736
H        1.2929287322    0.9530996406   -1.8238863219
19   
torsion grid (75,)
C        0.5131958473   -0.7853521128    0.5900601539
C        2.8264969315   -1.4568499766    0.5041645089
C        0.5544806757   -0.9163612404    1.9685768014
C        2.8179558873   -1.5607468673    1.8824920140
C        1.6620393445   -1.0535446265   -0.1651374757
C        1.6181024040   -1.1039384112   -1.6807225022
C        1.7035467361   -1.4751397620    4.0696536188
N        1.6941463338   -1.2930494836    2.5959189235
N        1.5313943217    0.0847769319   -2.3243087358
O        1.6604421854   -2.2065381579   -2.2060048401
H       -0.4177215070   -0.4883591698    0.1180515797
H        3.7304851171   -1.7031875332   -0.0429159165
H       -0.3085939972   -0.7307989598    2.5979087298
H        3.6902601812   -1.8641157376    2.4504389126
H        1.4948458604   -2.5210912267    4.3027813558
H        2.6814891024   -1.1929551172    4.4578781304
H        0.9427132896   -0.8352496420    4.5139710569
H        1.5110045501    0.0842012906   -3.3395751443
H        1.5707277115    0.9740543689   -1.8426628616
19   
torsion grid (90,)
C        0.4518256114   -0.8326958537    0.6055456400
C        2.7945607248   -1.3865740910    0.4878231544
C        0.5189620182   -0.9626887819    1.9820592825
C        2.8084133821   -1.5008850028    1.8662113743
C        1.6020632744   -1.0457355528   -0.1658178997
C        1.5232937726   -1.0813216012   -1.6804720190
C        1.7186478620   -1.4750422817    4.0671701360
N        1.6833600450   -1.2895200670    2.5942953713
N        1.6867996492    0.0963652359   -2.3278146012
O        1.3194476560   -2.1676731024   -2.2014623993
H       -0.4980233488   -0.5805630731    0.1454123185
H        3.7070181063   -1.5768323085   -0.0677410162
H       -0.3421396664   -0.8149128101    2.6239211108
H        3.7018820288   -1.7644870500    2.4210285776
H        1.5512770972   -2.5284631615    4.2999488259
H        2.6904307916   -1.1581604613    4.4438848076
H        0.9406557829   -0.8645412179    4.5230626607
H        1.6375502712    0.1043732359   -3.3421650702
H        1.8606656538    0.9686521199   -1.8447932452
19   
torsion grid (105,)
C        0.3931387197   -0.8818919687    0.6274671379
C        2.7597242453   -1.3147009060    0.4760304705
C        0.4863585273   -1.0067476233    2.0019223104
C        2.7966950679   -1.4365580987    1.8545320262
C        1.5418875243   -1.0388322099   -0.1599579875
C        1.4265779432   -1.0511551945   -1.6722931172
C        1.7356690491   -1.4695862067    4.0695202239
N        1.6739505701   -1.2810548653    2.5978229319
N        1.8338884358    0.0633291232   -2.3254821701
O        0.9810551250   -2.0644630661   -2.1897556123
H       -0.5735928978   -0.6809455529    0.1776084009
H        3.6753943502   -1.4507729622   -0.0902091310
H       -0.3707734898   -0.8977766130    2.6566697416
H        3.7091458287   -1.6597854207    2.3960587415
H        1.6008402342   -2.5279167934    4.3011783939
H        2.7035242546   -1.1270603385    4.4334938192
H        0.9475977468   -0.8821308558    4.5382895347
H        1.7520465625    0.0896846757   -3.3374245887
H        2.1380204139    0.9001859792   -1.8442624120
19   
torsion grid (120,)
C        0.3518108105   -0.9386932295    0.6377291189
C        2.7365788292   -1.2479501030    0.4642226665
C        0.4634067594   -1.0598813929    2.0105403595
C        2.7913613153   -1.3765038276    1.8425362724
C        1.5007857496   -1.0331788458   -0.1593680901
C        1.3553697069   -1.0125915197   -1.6685547215
C        1.7512579794   -1.4672169090    4.0655867721
N        1.6693259639   -1.2777335682    2.5948882076
N        1.9901240692   -0.0074403739   -2.3222995867
O        0.6915499476   -1.8974089959   -2.1878375314
H       -0.6261985662   -0.7920054887    0.1915185898
H        3.6535653493   -1.3344751631   -0.1095926770
H       -0.3915285236   -0.9938641166    2.6738360306
H        3.7179619035   -1.5594894321    2.3750793228
H        1.6517312578   -2.5297464493    4.2958766899
H        2.7113649536   -1.0954377778    4.4210783005
H        0.9496743563   -0.9055184738    4.5430213907
H        1.8773067465    0.0544782403   -3.3296483710
H        2.4091589836    0.7777275128   -1.8403029896
19   
torsion grid (135,)
C        0.3184064505   -0.9777773916    0.6439299217
C        2.7138159558   -1.1692786488    0.4558164990
C        0.4428476120   -1.1053604524    2.0148419895
C        2.7815420983   -1.3106171689    1.8329365303
C        1.4666215674   -1.0034578867   -0.1592369479
C        1.2932280642   -0.9452970092   -1.6647284925
C        1.7582280468   -1.4683470434    4.0607973244
N        1.6610097768   -1.2705717524    2.5919330549
N        2.1196307500   -0.0970820047   -2.3325414843
O        0.4504531352   -1.6664794400   -2.1775815425
H       -0.6653435583   -0.8787696253    0.1972933467
H        3.6310554972   -1.2131185156   -0.1223308378
H       -0.4105374791   -1.0871299695    2.6831846740
H        3.7181932387   -1.4590354199    2.3585370333
H        1.6884233116   -2.5347994814    4.2838058844
H        2.7106050132   -1.0740271521    4.4125316820
H        0.9453824157   -0.9313239695    4.5475976675
H        1.9828733895    0.0010866854   -3.3340616806
H        2.6457524182    0.6274336218   -1.8605405894
19   
torsion grid (150,)
C        0.2906644221   -1.0117299843    0.6577488080
C        2.6898535903   -1.0881616666    0.4579720967
C        0.4250800626   -1.1539345410    2.0261014666
C        2.7702699535   -1.2453812164    1.8329579907
C        1.4345694620   -0.9654570783   -0.1504500839
C        1.2291310596   -0.8766070668   -1.6517655461
C        1.7645838594   -1.4811466894    4.0617541611
N        1.6523729736   -1.2681023534    2.5960872501
N        2.1941736184   -0.2254027132   -2.3577737055
O        0.2466679685   -1.4174143829   -2.1377307577
H       -0.6953457243   -0.9532387926    0.2089195976
H        3.6074789504   -1.0929256131   -0.1208687695
H       -0.4256071602   -1.1885829646    2.6972850842
H        3.7149440712   -1.3599813703    2.3525475493
H        1.7380230791   -2.5524206696    4.2706075264
H        2.7023065789   -1.0541566721    4.4145674734
H        0.9333872789   -0.9831498317    4.5589664306
H        2.0305146866   -0.1086356915   -3.3533096631
H        2.8346826286    0.4250250274   -1.9205442248
19   
torsion grid (165,)
C        0.2747099793   -1.0570426429    0.6535230660
C        2.6737691181   -1.0071549337    0.4653693253
C        0.4093979774   -1.2204584688    2.0193413847
C        2.7562984362   -1.1826005406    1.8381646110
C        1.4172339097   -0.9317596856   -0.1484124756
C        1.1919700803   -0.8068598149   -1.6473019992
C        1.7522990758   -1.5085659446    4.0573298616
N        1.6379525962   -1.2783014209    2.5944716785
N        2.2464924587   -0.3744031453   -2.3936331975
O        0.1125755779   -1.1507348635   -2.1067344685
H       -0.7085605019   -1.0341715820    0.1953329512
H        3.5977081360   -0.9618988301   -0.1008092525
H       -0.4415151143   -1.3153426281    2.6845266537
H        3.7036338339   -1.2561606448    2.3601429145
H        1.7445142788   -2.5827998009    4.2520473474
H        2.6819783155   -1.0701493381    4.4169993265
H        0.9118494418   -1.0314313978    4.5596729430
H        2.0667844514   -0.2384276459   -3.3840207911
H        3.0047930678    0.1653795448   -1.9969237504
19   
torsion grid (180,)
C        0.2849807761   -1.1327649965    0.6470204972
C        2.6688956435   -0.8727913049    0.4811129600
C        0.4235740029   -1.3237431909    2.0085749597
C        2.7570803862   -1.0689008442    1.8508404594
C        1.4177269777   -0.9065806182   -0.1474164347
C        1.1587430906   -0.6842816913   -1.6329152980
C        1.7685279439   -1.5388747622    4.0527847154
N        1.6479271698   -1.2895145316    2.5937698281
N        2.2353897400   -0.4623000845   -2.4305909708
O        0.0012709770   -0.6770474451   -2.0287795053
H       -0.6949712178   -1.1517206878    0.1814928605
H        3.5920537930   -0.6847248877   -0.0553177561
H       -0.4214105801   -1.5041086684    2.6636782976
H        3.7023667157   -1.0510789969    2.3810852821
H        1.8082231174   -2.6154938585    4.2294576608
H        2.6768911698   -1.0662433992    4.4230463623
H        0.9062184061   -1.1077266207    4.5599634191
H        2.0551207451   -0.3539443771   -3.4235420817
H        3.1941000826   -0.6082617538   -2.1485930600
