30   
torsion grid (-165,)
C        1.0365679362    1.8490696299    0.7635061714
C        0.0882321076    0.7953997423    0.7570615678
C        1.2182114545    2.6297965226    1.8886272856
C       -0.6690014216    0.5377571065    1.8837889791
C        0.5887446201    3.1581213429    4.2545939196
C        0.4552495195    2.3902653795    3.0623457748
C       -0.4958212706    1.3292552185    3.0452011880
C       -0.1908130895    2.8669180087    5.3511626499
C       -1.2398297646    1.1292601874    4.2510230154
C       -3.0693488607    6.2430532036    6.2292088925
C       -0.1256810279    3.6575210872    6.6339299375
C       -1.7870396449    5.4735658442    5.8861627751
C       -1.4344664070    4.4124480587    6.9346800257
N       -1.1064821409    1.8446569279    5.3393341409
O       -2.1512274994    0.1186072252    4.2624545182
H        1.6263680121    2.0420377638   -0.1291475464
H       -0.0400171439    0.1920252629   -0.1374668624
H        1.9474237833    3.4363279877    1.8874859869
H       -1.3989994238   -0.2651048681    1.8951876381
H        1.3013907120    3.9770719896    4.2931550648
H       -3.4485650755    6.7984062950    5.3646587730
H       -2.9121961410    6.9479394201    7.0531374544
H       -3.8636788744    5.5513656606    6.5349858079
H        0.0814669887    2.9645319415    7.4581529810
H        0.7093835319    4.3649540716    6.5840457270
H       -0.9499542590    6.1751839504    5.7712301277
H       -1.9066739769    4.9826496812    4.9130103231
H       -1.3470336075    4.8845468898    7.9220972210
H       -2.2508814091    3.6846741816    7.0043170725
H       -2.5500856408    0.1367223372    5.1523555063
30   
torsion grid (-150,)
C        1.0420419897    1.8612509444    0.7708656785
C        0.0892870215    0.8116803314    0.7548532703
C        1.2215923052    2.6369464568    1.8998048721
C       -0.6744898274    0.5535586806    1.8770415706
C        0.5825396907    3.1589432833    4.2644636901
C        0.4516001654    2.3962175032    3.0686742423
C       -0.5040730554    1.3395369443    3.0426183009
C       -0.2039669041    2.8668417153    5.3558259240
C       -1.2552159087    1.1380477740    4.2437588910
C       -3.0751765319    6.2569594075    6.2273723327
C       -0.1418194822    3.6522662985    6.6419478654
C       -1.7885385740    5.4815340459    5.8926590426
C       -1.4481496883    4.4129902102    6.9382389849
N       -1.1241115086    1.8487271199    5.3354399228
O       -2.1711659860    0.1314427329    4.2466021853
H        1.6372787283    2.0551591671   -0.1179550669
H       -0.0370645808    0.2123406752   -0.1426687085
H        1.9543725412    3.4402260532    1.9054343495
H       -1.4080870566   -0.2460658317    1.8816802890
H        1.2985619381    3.9746039277    4.3098157557
H       -3.5892991844    6.5991309304    5.3232514407
H       -2.8814684951    7.1218023229    6.8702124942
H       -3.7857540467    5.6106028963    6.7568243992
H        0.0567493879    2.9549836685    7.4646418001
H        0.6974002342    4.3552642326    6.5995963250
H       -0.9465037016    6.1769729821    5.7814502326
H       -1.9012680410    4.9892345296    4.9197351066
H       -1.3648299858    4.8783606008    7.9292951651
H       -2.2696866550    3.6902489346    6.9972501915
H       -2.5745770977    0.1479653615    5.1344788056
30   
torsion grid (-135,)
C        1.0467133725    1.8723144169    0.7763887666
C        0.0903443649    0.8261585605    0.7530739890
C        1.2237740924    2.6432136366    1.9089867660
C       -0.6794641230    0.5661615272    1.8706957061
C        0.5760265914    3.1587930008    4.2729620025
C        0.4479639040    2.4010161754    3.0737082292
C       -0.5111264050    1.3476603423    3.0395788301
C       -0.2161585943    2.8655850015    5.3599424032
C       -1.2680793540    1.1445856129    4.2367767921
C       -3.0853288313    6.2645109700    6.2238742303
C       -0.1571434857    3.6459171527    6.6493259723
C       -1.7871869744    5.4914801317    5.9029728287
C       -1.4612681816    4.4115234517    6.9419572463
N       -1.1395530889    1.8506783382    5.3317299882
O       -2.1874491586    0.1411448993    4.2319571379
H        1.6464078694    2.0672929274   -0.1092067647
H       -0.0341165293    0.2304578121   -0.1471156719
H        1.9592049357    3.4439892930    1.9207260459
H       -1.4157663379   -0.2310047295    1.8692427416
H        1.2945553886    3.9718774187    4.3244399814
H       -3.7168683640    6.3871463654    5.3383370999
H       -2.8852113826    7.2559508942    6.6419478719
H       -3.6901384547    5.7210833614    6.9593069329
H        0.0338795218    2.9446059115    7.4703628776
H        0.6855214577    4.3452424298    6.6140579849
H       -0.9426614710    6.1872838960    5.8204662865
H       -1.8737592540    5.0122376063    4.9215111806
H       -1.3830419810    4.8693491530    7.9367817911
H       -2.2873155948    3.6929252885    6.9893145066
H       -2.5947861218    0.1559449256    5.1180739118
30   
torsion grid (-120,)
C        1.0496777977    1.8854824667    0.7832969311
C        0.0910267694    0.8416170091    0.7521552103
C        1.2233461138    2.6520766039    1.9193312580
C       -0.6845298084    0.5793962617    1.8652722021
C        0.5662553965    3.1609196801    4.2820479907
C        0.4416783034    2.4075683606    3.0796433862
C       -0.5196609008    1.3565367589    3.0375470738
C       -0.2314521458    2.8656288934    5.3644470835
C       -1.2824325133    1.1510566141    4.2306273424
C       -3.0988021430    6.2678686377    6.2196389330
C       -0.1758779880    3.6412159041    6.6568244635
C       -1.7876089984    5.5048388152    5.9158586863
C       -1.4781488722    4.4111438567    6.9457414849
N       -1.1570735700    1.8530155417    5.3285974413
O       -2.2041245352    0.1498140881    4.2182270290
H        1.6538165218    2.0821021541   -0.0989100098
H       -0.0306641079    0.2493066581   -0.1506431530
H        1.9605379505    3.4511184738    1.9371919157
H       -1.4226101718   -0.2160931751    1.8577040150
H        1.2865215494    3.9720677597    4.3396127551
H       -3.8234907628    6.1746727830    5.4047803222
H       -2.9239210299    7.3366211420    6.3786514246
H       -3.5825461462    5.8835069632    7.1245141170
H        0.0082786421    2.9362343831    7.4762629596
H        0.6697072559    4.3374242615    6.6282542349
H       -0.9438864316    6.2055247778    5.8795123669
H       -1.8384905430    5.0508769469    4.9204496132
H       -1.4057133173    4.8613358705    7.9441814086
H       -2.3080864219    3.6959650020    6.9813072622
H       -2.6154015344    0.1625474822    5.1025575806
30   
torsion grid (-105,)
C        1.0523437676    1.9003458738    0.7911778598
C        0.0908166678    0.8594446176    0.7513403163
C        1.2227632282    2.6617251436    1.9311986046
C       -0.6906160775    0.5951652599    1.8598655990
C        0.5562987268    3.1630917038    4.2924843528
C        0.4348200381    2.4146649372    3.0867400716
C       -0.5294640962    1.3667291998    3.0363073676
C       -0.2472528717    2.8660323857    5.3701285465
C       -1.2984587436    1.1586189174    4.2249630619
C       -3.1105998442    6.2653460208    6.2142505216
C       -0.1959958392    3.6361584765    6.6659063245
C       -1.7909255169    5.5151923961    5.9279058651
C       -1.4967694246    4.4103945468    6.9503205031
N       -1.1756744638    1.8562742522    5.3260207523
O       -2.2230773493    0.1601480961    4.2045795592
H        1.6612258083    2.0988168028   -0.0873453815
H       -0.0284068183    0.2711136581   -0.1543876337
H        1.9621700339    3.4585511618    1.9558581430
H       -1.4309201855   -0.1981375612    1.8455197980
H        1.2788217033    3.9717468599    4.3564204229
H       -3.9043309245    5.9686042322    5.5211343818
H       -2.9897847970    7.3480753719    6.1021761722
H       -3.4668376176    6.0831684890    7.2338811834
H       -0.0193028526    2.9271956841    7.4835566014
H        0.6524951968    4.3291501501    6.6449158611
H       -0.9514950721    6.2225946768    5.9351535274
H       -1.8112897129    5.0871319560    4.9200432787
H       -1.4296088608    4.8548270735    7.9514380435
H       -2.3299098348    3.6981584308    6.9763485024
H       -2.6383092534    0.1707012636    5.0870913703
30   
torsion grid (-90,)
C        1.0584949283    1.9146722160    0.7997195784
C        0.0937056710    0.8772110565    0.7502859104
C        1.2257096489    2.6710724616    1.9435241906
C       -0.6945153613    0.6112409879    1.8535816734
C        0.5480372280    3.1650349466    4.3031813684
C        0.4306372221    2.4219641696    3.0937271986
C       -0.5369402971    1.3775886467    3.0338992857
C       -0.2622012882    2.8667885568    5.3755102384
C       -1.3129961868    1.1675066898    4.2176208883
C       -3.1127258050    6.2692663865    6.2162854766
C       -0.2162388496    3.6309270649    6.6750137915
C       -1.7997740160    5.5173509345    5.9337341767
C       -1.5158282067    4.4091365082    6.9546256393
N       -1.1938179018    1.8604277553    5.3220861856
O       -2.2408749945    0.1722656432    4.1883607970
H        1.6727206463    2.1145482465   -0.0747482109
H       -0.0226411124    0.2929676254   -0.1584604782
H        1.9677343650    3.4652217379    1.9752693215
H       -1.4374529800   -0.1794308447    1.8321567764
H        1.2730876847    3.9708078871    4.3741962823
H       -3.9614300679    5.7992388877    5.7079149389
H       -3.0651112026    7.2995513026    5.8463723243
H       -3.3321669478    6.3152049489    7.2886140296
H       -0.0475083495    2.9177712081    7.4906915531
H        0.6349776000    4.3207479910    6.6623797629
H       -0.9592428525    6.2241309388    5.9529155023
H       -1.8187054401    5.0993547146    4.9211865835
H       -1.4516440104    4.8516136589    7.9567571205
H       -2.3513417626    3.6993979440    6.9759657500
H       -2.6606848155    0.1806190317    5.0687292156
30   
torsion grid (-75,)
C        1.0709541184    1.9117761987    0.8007191562
C        0.1004310199    0.8799214158    0.7456865480
C        1.2390393738    2.6654920798    1.9461683342
C       -0.6936211915    0.6157016831    1.8451792480
C        0.5553249257    3.1583120595    4.3043683193
C        0.4382884640    2.4184718330    3.0928262065
C       -0.5348670327    1.3795809763    3.0269570716
C       -0.2604256704    2.8623532169    5.3730809422
C       -1.3160852740    1.1718011342    4.2076541498
C       -3.1040897712    6.2616033640    6.2212971035
C       -0.2135750103    3.6235669978    6.6742755281
C       -1.7937263481    5.5150198599    5.9383414700
C       -1.5120694204    4.4032852032    6.9555405055
N       -1.1974623049    1.8613860170    5.3142017562
O       -2.2493445293    0.1818574869    4.1729094254
H        1.6893312159    2.1095965617   -0.0712800614
H       -0.0157933287    0.2982843886   -0.1647380396
H        1.9855248138    3.4552807204    1.9819569729
H       -1.4410520396   -0.1706447687    1.8196722208
H        1.2845704843    3.9598965072    4.3797885793
H       -3.9733608167    5.6575037034    5.9378847694
H       -3.1616163101    7.1913719018    5.6440604430
H       -3.1977974094    6.5225007007    7.2815384196
H       -0.0456738553    2.9083118061    7.4883424718
H        0.6388340915    4.3119135384    6.6631785667
H       -0.9565341118    6.2264585854    5.9547777107
H       -1.8173630610    5.0968852163    4.9254543076
H       -1.4485552784    4.8405069975    7.9600738882
H       -2.3486696583    3.6947732594    6.9723813229
H       -2.6720890277    0.1905577955    5.0518666017
30   
torsion grid (-60,)
C        1.0873869174    1.9256441598    0.8085120022
C        0.1143274927    0.8968902646    0.7421983884
C        1.2491967955    2.6722529016    1.9595165813
C       -0.6871743977    0.6297689995    1.8356149241
C        0.5522927680    3.1557775675    4.3157582172
C        0.4406791399    2.4220296786    3.1000367771
C       -0.5349911584    1.3863096291    3.0229640709
C       -0.2715674646    2.8563579436    5.3771646003
C       -1.3247412911    1.1743066921    4.1972397346
C       -3.0955059548    6.2764692515    6.2403337287
C       -0.2306572825    3.6125377965    6.6814575222
C       -1.8139752240    5.4951430104    5.9305589705
C       -1.5294537720    4.3937165555    6.9576716494
N       -1.2111310896    1.8583196430    5.3077409914
O       -2.2604263508    0.1870585463    4.1514015427
H        1.7120606628    2.1265142889   -0.0583016760
H        0.0021066675    0.3201262305   -0.1718264418
H        1.9975107220    3.4598174644    2.0044198777
H       -1.4365266897   -0.1543660735    1.8010167778
H        1.2831270199    3.9550655434    4.3998826243
H       -3.9680306081    5.6129087008    6.2483628194
H       -3.2781061522    7.0576105615    5.4943567275
H       -3.0384435906    6.7597036506    7.2228776852
H       -0.0692316671    2.8939192615    7.4938586653
H        0.6230868082    4.2991874613    6.6780058041
H       -0.9609463160    6.1865333214    5.8942556598
H       -1.8883984710    5.0507052336    4.9309255729
H       -1.4654241793    4.8365574219    7.9600512983
H       -2.3659823984    3.6856466086    6.9785468529
H       -2.6889446786    0.1925467390    5.0275759974
30   
torsion grid (-45,)
C        1.1028949516    1.9251517942    0.8072394506
C        0.1268029222    0.8996561797    0.7351605617
C        1.2638686096    2.6681521447    1.9607008053
C       -0.6786583022    0.6321145127    1.8255516740
C        0.5614408138    3.1471365113    4.3166419273
C        0.4513879627    2.4174719654    3.0982977376
C       -0.5272588882    1.3850338980    3.0153165837
C       -0.2662705854    2.8473210322    5.3749098801
C       -1.3209779755    1.1722746125    4.1867662727
C       -3.0825932979    6.2767304613    6.2508015406
C       -0.2269198934    3.5992042580    6.6817826913
C       -1.8111893552    5.4806101630    5.9284209586
C       -1.5250849168    4.3814217992    6.9576919244
N       -1.2086636658    1.8524145552    5.2997630961
O       -2.2596424038    0.1881859135    4.1352120551
H        1.7306903414    2.1263990661   -0.0572267969
H        0.0153974748    0.3257755159   -0.1807787600
H        2.0145668980    3.4531859561    2.0098385083
H       -1.4304372575   -0.1495053803    1.7867334887
H        1.2944218865    3.9439603209    4.4052405513
H       -3.9036626148    5.6076387454    6.5334387523
H       -3.4092253004    6.8858906331    5.4017654387
H       -2.9195317550    6.9503323478    7.1007286294
H       -0.0686124230    2.8776438250    7.4922024738
H        0.6280459068    4.2842703449    6.6825446548
H       -0.9521981912    6.1616069863    5.8624199314
H       -1.9092754901    5.0197709836    4.9381610982
H       -1.4605946984    4.8233384551    7.9607511358
H       -2.3625978832    3.6748936967    6.9775246546
H       -2.6908505221    0.1925289688    5.0100707796
30   
torsion grid (-30,)
C        1.1151126540    1.9248894198    0.8048651025
C        0.1362103481    0.9024779574    0.7272263410
C        1.2755729225    2.6637746503    1.9610333095
C       -0.6726319771    0.6337596475    1.8148231146
C        0.5692307045    3.1373133465    4.3165669874
C        0.4595961793    2.4116713164    3.0958125263
C       -0.5219053785    1.3823811976    3.0073755764
C       -0.2617725700    2.8364731854    5.3719673476
C       -1.3189886592    1.1681821483    4.1762795779
C       -3.0769190650    6.2719922048    6.2537576759
C       -0.2229403614    3.5837473471    6.6815288698
C       -1.8021478855    5.4715936946    5.9323422974
C       -1.5196728714    4.3677961459    6.9582379977
N       -1.2069294697    1.8445802979    5.2915996485
O       -2.2605200740    0.1871102763    4.1195184258
H        1.7455254103    2.1270419665   -0.0574820780
H        0.0253191411    0.3318587430   -0.1908114704
H        2.0284300529    3.4464645623    2.0144791439
H       -1.4265751703   -0.1455432409    1.7716952956
H        1.3043248783    3.9317312118    4.4092601455
H       -3.8110438296    5.6503639480    6.7789741638
H       -3.5462490018    6.6826800104    5.3546254708
H       -2.8562431645    7.1114928810    6.9235300015
H       -0.0677017877    2.8589409976    7.4896518207
H        0.6336635432    4.2667525818    6.6862076757
H       -0.9404203299    6.1478893733    5.8632026544
H       -1.8988826533    5.0069331284    4.9440547972
H       -1.4561242184    4.8046926318    7.9636606195
H       -2.3594106022    3.6639817914    6.9724666337
H       -2.6938213213    0.1901313064    4.9933484048
30   
torsion grid (-15,)
C        1.1233750099    1.9214132764    0.7975796200
C        0.1422957769    0.9013514420    0.7165086769
C        1.2862253375    2.6559810573    1.9561676146
C       -0.6664938648    0.6306903042    1.8036429465
C        0.5813301874    3.1222099392    4.3143611840
C        0.4703913544    2.4018145204    3.0905969477
C       -0.5132771842    1.3749551418    2.9986197948
C       -0.2496926866    2.8197498610    5.3693560757
C       -1.3102059536    1.1584620505    4.1671895786
C       -3.0648171724    6.2587064702    6.2540479661
C       -0.2099167950    3.5613627602    6.6821638699
C       -1.7769872997    5.4639496864    5.9442583549
C       -1.5041481188    4.3485917510    6.9608433415
N       -1.1967789462    1.8301399344    5.2852258988
O       -2.2538334441    0.1796568700    4.1070632308
H        1.7537905402    2.1252465796   -0.0643627510
H        0.0297243006    0.3342438434   -0.2035002858
H        2.0408575768    3.4367985834    2.0118554002
H       -1.4222128752   -0.1467724936    1.7583169459
H        1.3180829826    3.9147345583    4.4098049962
H       -3.6926998718    5.7296164809    6.9796250033
H       -3.6642063614    6.4427085829    5.3575683165
H       -2.8369628047    7.2330429657    6.7002034701
H       -0.0581013053    2.8326408782    7.4873955087
H        0.6489787445    4.2414998734    6.6907323010
H       -0.9144901276    6.1408954822    5.9031828821
H       -1.8490469867    5.0137529342    4.9478413698
H       -1.4428573727    4.7769548734    7.9699321103
H       -2.3472164705    3.6485230343    6.9657150915
H       -2.6869323391    0.1804281457    4.9810039037
30   
torsion grid (0,)
C        1.1292356953    1.9235765822    0.7938518511
C        0.1459760297    0.9058475435    0.7099093619
C        1.2935294057    2.6537394860    1.9550006212
C       -0.6633524624    0.6329271686    1.7960887282
C        0.5906003470    3.1135911794    4.3144314421
C        0.4772451705    2.3971976250    3.0885804075
C       -0.5086476702    1.3727131436    2.9936328187
C       -0.2408167221    2.8091019350    5.3685701482
C       -1.3057983524    1.1538533441    4.1616104941
C       -3.0492513087    6.2520262338    6.2535191107
C       -0.1983316512    3.5463321530    6.6837235733
C       -1.7481587502    5.4681123135    5.9596143722
C       -1.4889263988    4.3386006032    6.9644110212
N       -1.1901652507    1.8218592743    5.2816401872
O       -2.2515982412    0.1772737882    4.0986927070
H        1.7599241867    2.1290253523   -0.0675144556
H        0.0321250774    0.3420513514   -0.2119696547
H        2.0497127109    3.4328626396    2.0133603842
H       -1.4205808910   -0.1428998490    1.7480932884
H        1.3292097841    3.9041210169    4.4122150430
H       -3.5611868361    5.8567705019    7.1379514094
H       -3.7572613791    6.1946921227    5.4208580351
H       -2.8550885282    7.3125560574    6.4423583882
H       -0.0501676124    2.8143166239    7.4866158556
H        0.6636267296    4.2226637914    6.6948737085
H       -0.8884021970    6.1499815587    5.9645683872
H       -1.7841061359    5.0443013007    4.9503615404
H       -1.4299627103    4.7585567092    7.9768113095
H       -2.3358414109    3.6427196569    6.9600462334
H       -2.6842827119    0.1760841658    4.9728401583
30   
torsion grid (15,)
C        1.1375838350    1.9322144543    0.8039864611
C        0.1474918823    0.9220830164    0.7092799515
C        1.2987538569    2.6572077070    1.9688157827
C       -0.6717630459    0.6514363903    1.7885603967
C        0.5819338458    3.1142302226    4.3246920378
C        0.4723388402    2.4028953819    3.0955244680
C       -0.5202985051    1.3860025497    2.9897368677
C       -0.2594226150    2.8121106642    5.3715790533
C       -1.3275036684    1.1689706189    4.1511231476
C       -3.0610712276    6.2548908487    6.2547885572
C       -0.2202394124    3.5443917331    6.6895847779
C       -1.7592915870    5.4747902522    5.9674794358
C       -1.5093761609    4.3396710813    6.9680405851
N       -1.2152773062    1.8321421924    5.2743418992
O       -2.2798954234    0.1995575548    4.0778608983
H        1.7760769677    2.1359219217   -0.0520264924
H        0.0362495097    0.3623130537   -0.2153675067
H        2.0602166745    3.4305056895    2.0353750958
H       -1.4343233764   -0.1186016414    1.7323616127
H        1.3255673840    3.8989749447    4.4306840338
H       -3.4400378297    6.0407920648    7.2604918140
H       -3.8582728621    5.9674316234    5.5607824235
H       -2.9257512109    7.3369593128    6.1657032452
H       -0.0772873461    2.8090127326    7.4903937682
H        0.6436241825    4.2182176888    6.7066402566
H       -0.9002992700    6.1577331450    6.0012094204
H       -1.7783013557    5.0708100885    4.9497111277
H       -1.4527260666    4.7582042883    7.9808471472
H       -2.3577615455    3.6452028259    6.9601187211
H       -2.7188381380    0.1983909751    4.9488840641
30   
torsion grid (30,)
C        1.1452491382    1.9330694044    0.7990977350
C        0.1557690768    0.9225425591    0.7022863699
C        1.3069949397    2.6544954469    1.9660614841
C       -0.6621701104    0.6480494031    1.7815993606
C        0.5924085592    3.1038610682    4.3240290985
C        0.4819158943    2.3961729180    3.0928342596
C       -0.5101463155    1.3789359392    2.9849504157
C       -0.2477559645    2.7977825901    5.3707209225
C       -1.3160867795    1.1577058997    4.1464252177
C       -3.0416475848    6.2338022990    6.2524092313
C       -0.2075979891    3.5265730482    6.6905421014
C       -1.7357961451    5.4679467340    5.9751234608
C       -1.4943585810    4.3259992767    6.9693198706
N       -1.2031618670    1.8175497912    5.2715296736
O       -2.2678311875    0.1878071688    4.0711438343
H        1.7827497878    2.1399003452   -0.0569072560
H        0.0439667924    0.3655350461   -0.2239611863
H        2.0679843820    3.4281114246    2.0342758197
H       -1.4242305770   -0.1223581660    1.7237651864
H        1.3357418920    3.8886597235    4.4317847435
H       -3.2900335267    6.2223532654    7.3200065210
H       -3.8872370153    5.7615242771    5.7391171076
H       -2.9918988495    7.2739910516    5.9161777933
H       -0.0684773502    2.7885829403    7.4895720057
H        0.6586666240    4.1972370809    6.7105263812
H       -0.8835715577    6.1587506485    6.0322917082
H       -1.7394012455    5.0792339334    4.9508107548
H       -1.4385609839    4.7392047736    7.9842834306
H       -2.3453222933    3.6345779010    6.9561939883
H       -2.7057849488    0.1835302794    4.9426537297
30   
torsion grid (45,)
C        1.1551589333    1.9388256802    0.8057495338
C        0.1603160806    0.9345478242    0.6993053761
C        1.3155486732    2.6560507639    1.9755011246
C       -0.6651444868    0.6618291490    1.7733067106
C        0.5902254866    3.1019693431    4.3306870718
C        0.4824341267    2.3989165296    3.0965842107
C       -0.5151292968    1.3880651268    2.9797267025
C       -0.2575847279    2.7977462133    5.3717220564
C       -1.3288232350    1.1680948380    4.1360345702
C       -3.0418188962    6.2341336886    6.2583419867
C       -0.2203265391    3.5215945018    6.6943773273
C       -1.7419593314    5.4679893619    5.9799381227
C       -1.5061787983    4.3232423835    6.9715932250
N       -1.2182891936    1.8236170685    5.2638948040
O       -2.2859448861    0.2042062020    4.0523067805
H        1.7986609227    2.1444349619   -0.0460273667
H        0.0503996526    0.3813110681   -0.2294382600
H        2.0809340505    3.4247329537    2.0502475830
H       -1.4316277552   -0.1036540395    1.7089198759
H        1.3376578793    3.8819104159    4.4450967000
H       -3.1539932052    6.4492142589    7.3276114897
H       -3.9145225917    5.6392383897    5.9639478925
H       -3.0839153597    7.1800621585    5.7086949268
H       -0.0856119557    2.7804228058    7.4912589288
H        0.6476238960    4.1898383353    6.7197034725
H       -0.8897432071    6.1596606466    6.0322462934
H       -1.7537224982    5.0777555049    4.9556958441
H       -1.4529648390    4.7315472128    7.9888240498
H       -2.3586987313    3.6340340175    6.9525097641
H       -2.7287185107    0.1996927648    4.9213747641
30   
torsion grid (60,)
C        1.1671896039    1.9434134510    0.8062966584
C        0.1709242812    0.9411021081    0.6948067824
C        1.3250835103    2.6560625601    1.9791726807
C       -0.6578562416    0.6656441650    1.7655679444
C        0.5943257482    3.0953275130    4.3342591739
C        0.4889235494    2.3966200167    3.0974764120
C       -0.5098018846    1.3876353557    2.9747611144
C       -0.2566004288    2.7891323886    5.3721557685
C       -1.3267679073    1.1650899136    4.1282713248
C       -3.0325363355    6.2321654224    6.2667488758
C       -0.2223707162    3.5088291221    6.6971763379
C       -1.7442569203    5.4536446945    5.9786161423
C       -1.5084214646    4.3110803210    6.9725993520
N       -1.2183846110    1.8167249683    5.2585821748
O       -2.2850014994    0.2028245969    4.0388736674
H        1.8131178353    2.1509437639   -0.0431949772
H        0.0624473833    0.3910923313   -0.2360048783
H        2.0913209752    3.4234113168    2.0585667947
H       -1.4252539588   -0.0985271601    1.6965462562
H        1.3425044644    3.8738710445    4.4531460496
H       -3.0103737808    6.6804242283    7.2671342001
H       -3.9081018500    5.5743574125    6.2185698689
H       -3.1823945428    7.0402087411    5.5424802463
H       -0.0909817588    2.7651187450    7.4922451411
H        0.6463367166    4.1758207598    6.7271153093
H       -0.8863803009    6.1394840252    6.0040172021
H       -1.7806982459    5.0488131694    4.9602045268
H       -1.4562607010    4.7179120596    7.9907993525
H       -2.3614005045    3.6229512902    6.9513539280
H       -2.7300965525    0.1961112062    4.9067382047
30   
torsion grid (75,)
C        1.1857943970    1.9399133545    0.7983368639
C        0.1913618585    0.9361320249    0.6837735686
C        1.3427401578    2.6487064666    1.9736685896
C       -0.6364092218    0.6555269882    1.7539846995
C        0.6123532477    3.0785661909    4.3304985232
C        0.5075519480    2.3838631851    3.0914380473
C       -0.4893850736    1.3734783243    2.9657037485
C       -0.2376102508    2.7671107046    5.3675744263
C       -1.3055361835    1.1453638911    4.1187017519
C       -3.0016893013    6.2269189018    6.2901940777
C       -0.2044867885    3.4827707856    6.6948000525
C       -1.7398301171    5.4151154096    5.9689266985
C       -1.4914969897    4.2828061075    6.9719584274
N       -1.1977372816    1.7933412662    5.2511689205
O       -2.2621125807    0.1817068753    4.0263362277
H        1.8310111077    2.1516261379   -0.0506642831
H        0.0835162049    0.3891112636   -0.2488722037
H        2.1075696746    3.4172070842    2.0554436054
H       -1.4023951596   -0.1098367065    1.6826011896
H        1.3591219121    3.8581057322    4.4517117145
H       -2.8402013379    6.8971621555    7.1423062931
H       -3.8487003724    5.5721253573    6.5235165453
H       -3.2928605442    6.8562076881    5.4416326373
H       -0.0728911356    2.7367612752    7.4876795953
H        0.6634363594    4.1505817243    6.7271700972
H       -0.8677347716    6.0816725389    5.9362535696
H       -1.8294738095    4.9834172400    4.9649316013
H       -1.4348168102    4.6958260444    7.9876812775
H       -2.3427660230    3.5927160400    6.9592372128
H       -2.7068864995    0.1712433453    4.8943250175
30   
torsion grid (90,)
C        1.1975720715    1.9399480453    0.7956412517
C        0.2001253686    0.9397900522    0.6757343285
C        1.3541047290    2.6440993210    1.9738074067
C       -0.6308714343    0.6581094952    1.7431684195
C        0.6203665657    3.0683379104    4.3302934646
C        0.5156234850    2.3779988520    3.0888255146
C       -0.4843476617    1.3712877855    2.9577508580
C       -0.2327350205    2.7560547135    5.3645516714
C       -1.3036958681    1.1418081395    4.1082196820
C       -2.9946985442    6.2223975640    6.2951325034
C       -0.1998212749    3.4667891621    6.6944612418
C       -1.7305551803    5.4050900340    5.9731718871
C       -1.4852128336    4.2686655502    6.9729601498
N       -1.1957922324    1.7857789105    5.2429857458
O       -2.2632867231    0.1816360109    4.0107107138
H        1.8452846036    2.1525049165   -0.0512506712
H        0.0925078985    0.3962935565   -0.2589940270
H        2.1211819824    3.4098843625    2.0599414569
H       -1.3991108271   -0.1045648787    1.6674286205
H        1.3693879368    3.8450808574    4.4555486435
H       -2.7730986914    7.0657346124    6.9583299591
H       -3.7657541860    5.6036604115    6.7666116673
H       -3.4295498317    6.6518843568    5.3857346162
H       -0.0711313243    2.7175229566    7.4847573187
H        0.6696894179    4.1323464315    6.7305631228
H       -0.8552575372    6.0662937756    5.9367346973
H       -1.8203561864    4.9695739627    4.9712453324
H       -1.4293149976    4.6769250811    7.9907173068
H       -2.3384549538    3.5812799742    6.9552752401
H       -2.7099295261    0.1698197862    4.8777216203
30   
torsion grid (105,)
C        0.9901997993    1.7784052512    0.7229461309
C        0.0696218613    0.7014697468    0.7716202073
C        1.1888179935    2.5889677816    1.8238363872
C       -0.6429694355    0.4509483957    1.9286616535
C        0.6247043248    3.1554378669    4.1974995629
C        0.4716024977    2.3574411564    3.0276285143
C       -0.4519116062    1.2728919278    3.0658825213
C       -0.1104252605    2.8699479360    5.3258316028
C       -1.1502339103    1.0820113059    4.3001541828
C       -3.0549359552    6.1976537111    6.2175731751
C       -0.0229434009    3.6909943486    6.5880292853
C       -1.7470502294    5.4570922021    5.8605408047
C       -1.3389109775    4.4213496853    6.9155106861
N       -0.9993487887    1.8251460508    5.3673845002
O       -2.0345304281    0.0495149682    4.3644795731
H        1.5449725126    1.9655798930   -0.1930909149
H       -0.0726022394    0.0747376869   -0.1045492525
H        1.8965948946    3.4132252811    1.7803450877
H       -1.3512949927   -0.3694221024    1.9823576421
H        1.3168868144    3.9926500226    4.1940251681
H       -2.8642472264    7.2189710285    6.5631006295
H       -3.6138833313    5.6746284604    7.0008729083
H       -3.7171135873    6.2824936826    5.3494765371
H        0.2276786736    3.0219912255    7.4199364130
H        0.7926257281    4.4166785048    6.4950821730
H       -0.9312841304    6.1772433739    5.7196462784
H       -1.8608750242    4.9444337184    4.8989925102
H       -1.2335796342    4.9122307181    7.8918915852
H       -2.1366334426    3.6773128445    7.0207494626
H       -2.4042895807    0.0782233816    5.2665885485
30   
torsion grid (120,)
C        0.9939293861    1.7896215696    0.7303793663
C        0.0689327953    0.7161411598    0.7710203739
C        1.1898128698    2.5963195866    1.8345846095
C       -0.6509529235    0.4649488346    1.9233837987
C        0.6152445390    3.1580052979    4.2066711550
C        0.4651298170    2.3639651576    3.0337353524
C       -0.4628040250    1.2829285068    3.0639343989
C       -0.1269146144    2.8720920009    5.3303223552
C       -1.1684314539    1.0912410261    4.2939137988
C       -3.0694261196    6.2027987728    6.2070616777
C       -0.0425147850    3.6886549862    6.5956326778
C       -1.7447422894    5.4770375807    5.8719134925
C       -1.3563426465    4.4248410218    6.9181694222
N       -1.0201550459    1.8307200994    5.3640606566
O       -2.0571570429    0.0620985221    4.3506029719
H        1.5543501541    1.9772158516   -0.1821252257
H       -0.0709312943    0.0924954346   -0.1077249891
H        1.9010094153    3.4179388489    1.7973030877
H       -1.3627150523   -0.3528261831    1.9708699727
H        1.3108135064    3.9924124479    4.2093064539
H       -2.9282261761    7.2822838351    6.3205707473
H       -3.4987471483    5.8347286903    7.1455351183
H       -3.8245275146    6.0539721677    5.4289050119
H        0.1998832173    3.0156298652    7.4267166409
H        0.7773550697    4.4104446769    6.5097649166
H       -0.9284815220    6.2049744636    5.7827962307
H       -1.8184189717    4.9932912721    4.8920732416
H       -1.2571244599    4.9066599474    7.8993925863
H       -2.1598695928    3.6848945079    7.0095532144
H       -2.4315594714    0.0896988953    5.2508320412
30   
torsion grid (135,)
C        1.0069906147    1.7865110265    0.7270133131
C        0.0773498516    0.7168702340    0.7630853043
C        1.2036383212    2.5903673060    1.8331596509
C       -0.6467672705    0.4661210054    1.9128738849
C        0.6244260144    3.1492123908    4.2054444008
C        0.4748576570    2.3587437729    3.0299677850
C       -0.4575719933    1.2814701839    3.0551446453
C       -0.1217219068    2.8645768882    5.3268037371
C       -1.1670519837    1.0905161530    4.2830069557
C       -3.0569990217    6.1967313914    6.2100749061
C       -0.0381706604    3.6771480307    6.5947634184
C       -1.7353177717    5.4710845829    5.8750168530
C       -1.3513619110    4.4141527337    6.9178812405
N       -1.0191365377    1.8267509354    5.3554364575
O       -2.0601051110    0.0649239529    4.3350603774
H        1.5705169409    1.9734551316   -0.1837098983
H       -0.0627867328    0.0956460148   -0.1173245673
H        1.9184132857    3.4090217570    1.7992516257
H       -1.3621388220   -0.3487102032    1.9569992734
H        1.3234034041    3.9807097764    4.2118068558
H       -2.9759521854    7.2794086007    6.0706218706
H       -3.3329939916    6.0415083206    7.2597990403
H       -3.8914282550    5.8349483053    5.6015925783
H        0.2025098249    3.0013762090    7.4241642049
H        0.7825640940    4.3983593069    6.5120681455
H       -0.9177709728    6.2006087857    5.8067723473
H       -1.8004127960    5.0045168308    4.8862253059
H       -1.2523502510    4.8955190060    7.8990388205
H       -2.1551558266    3.6740692965    7.0088226029
H       -2.4367573354    0.0920550227    5.2343693959
30   
torsion grid (150,)
C        1.0068739825    1.8130163212    0.7437242968
C        0.0736238407    0.7462001895    0.7675252441
C        1.1950560116    2.6102323335    1.8561098017
C       -0.6616159498    0.4916957142    1.9094441274
C        0.5975001364    3.1602150938    4.2252034586
C        0.4550457979    2.3750638048    3.0453311150
C       -0.4808417051    1.3005374527    3.0576581420
C       -0.1595582937    2.8719392139    5.3382626691
C       -1.2018665555    1.1055709480    4.2781561035
C       -3.0829481294    6.2074538174    6.1948986433
C       -0.0834345531    3.6797051326    6.6096212447
C       -1.7567574021    5.4923579415    5.8811360601
C       -1.3945946588    4.4256344352    6.9212464371
N       -1.0605781491    1.8368487180    5.3548571599
O       -2.0983890091    0.0823932872    4.3177920551
H        1.5790513460    2.0027658255   -0.1610301946
H       -0.0605967870    0.1295120055   -0.1169687505
H        1.9123566922    3.4270323502    1.8328940082
H       -1.3795718218   -0.3213577422    1.9428850582
H        1.2990542576    3.9894482236    4.2415089062
H       -3.0862917623    7.2376189234    5.8238350038
H       -3.2405458783    6.2716158542    7.2785652094
H       -3.9435144621    5.6791651219    5.7721789279
H        0.1431628146    2.9992858508    7.4391277302
H        0.7435461444    4.3950023299    6.5382620432
H       -0.9423452623    6.2285042421    5.8461497846
H       -1.7988251804    5.0433067948    4.8825357334
H       -1.3032130041    4.9005576457    7.9062130278
H       -2.2050070718    3.6911365301    6.9990584944
H       -2.4825828394    0.1064462872    5.2139895149
30   
torsion grid (165,)
C        1.0180006548    1.8127824188    0.7440117911
C        0.0799325561    0.7500851779    0.7613481631
C        1.2071543016    2.6070367811    1.8583796359
C       -0.6595389076    0.4971408306    1.9008623241
C        0.6045715523    3.1541514467    4.2270596585
C        0.4623854031    2.3726003829    3.0447429979
C       -0.4784917701    1.3024284796    3.0515489034
C       -0.1571892203    2.8669370726    5.3371727948
C       -1.2041485969    1.1079764433    4.2693940883
C       -3.0736676734    6.1993275671    6.2034857297
C       -0.0811875422    3.6708088259    6.6110440031
C       -1.7524312773    5.4865956372    5.8863813867
C       -1.3918455002    4.4173788954    6.9239004248
N       -1.0629794306    1.8359568138    5.3483367760
O       -2.1054421999    0.0888198961    4.3037623686
H        1.5938681587    2.0019536645   -0.1584964113
H       -0.0544715452    0.1361176482   -0.1250328255
H        1.9284464863    3.4204283713    1.8389697809
H       -1.3814871660   -0.3125033744    1.9305016542
H        1.3098901855    3.9800786967    4.2475293441
H       -3.1846538424    7.1193669538    5.6196026420
H       -3.1163885387    6.4873161718    7.2611206837
H       -3.9365281102    5.5549164362    6.0032581818
H        0.1442939445    2.9877612742    7.4387383395
H        0.7467365240    4.3852094215    6.5422613513
H       -0.9400440011    6.2251749195    5.8456412812
H       -1.8032172959    5.0357837726    4.8884611792
H       -1.3008515734    4.8879961800    7.9110948535
H       -2.2030600499    3.6834988652    6.9980073968
H       -2.4922337441    0.1123813203    5.1988519453
30   
torsion grid (180,)
C        1.0278593555    1.8258329530    0.7506345999
C        0.0845085057    0.7677119672    0.7586009230
C        1.2142071738    2.6133985863    1.8701905415
C       -0.6626742705    0.5121559368    1.8925054305
C        0.6014912390    3.1521973545    4.2379416565
C        0.4618853478    2.3767187090    3.0513422489
C       -0.4840821558    1.3110040394    3.0480286885
C       -0.1678059215    2.8633064704    5.3423625834
C       -1.2173060948    1.1141798835    4.2609591539
C       -3.0695638696    6.2083951832    6.2109170109
C       -0.0952191756    3.6616563236    6.6198868575
C       -1.7613569847    5.4787646738    5.8867738131
C       -1.4047339444    4.4123554604    6.9282475129
N       -1.0785190191    1.8365640023    5.3439551547
O       -2.1235354806    0.0991211577    4.2856708179
H        1.6094752716    2.0166229107   -0.1478552690
H       -0.0479937636    0.1586860130   -0.1314484983
H        1.9393296396    3.4235215209    1.8588706483
H       -1.3885244415   -0.2942580621    1.9140514134
H        1.3104617829    3.9747735084    4.2660571324
H       -3.3041241830    6.9649019943    5.4541486605
H       -3.0125813683    6.7138126345    7.1822907355
H       -3.9105469984    5.5065700075    6.2523984214
H        0.1227336079    2.9743762247    7.4460918514
H        0.7360905464    4.3727030361    6.5585123522
H       -0.9416325361    6.2069284240    5.8172608544
H       -1.8378228359    5.0107333865    4.8981178100
H       -1.3147138870    4.8825687304    7.9160352272
H       -2.2184762792    3.6814161673    7.0000061721
H       -2.5151234803    0.1203683395    5.1787269441
