
  -OEChem-05262117483D

 43 44  0     1  0  0  0  0  0999 V2000
    4.1458   -3.2551   -3.5127 C   0  0  0  0  0  0  0  0  0  0  0  0
    3.6450   -2.1945   -4.2768 C   0  0  0  0  0  0  0  0  0  0  0  0
    3.5906   -3.5539   -2.2631 C   0  0  0  0  0  0  0  0  0  0  0  0
    2.5880   -1.4205   -3.7916 C   0  0  0  0  0  0  0  0  0  0  0  0
    2.5340   -2.7872   -1.7650 C   0  0  0  0  0  0  0  0  0  0  0  0
    0.9804    1.0171    3.0893 C   0  0  0  0  0  0  0  0  0  0  0  0
   -0.4362    0.3574    1.6778 C   0  0  0  0  0  0  0  0  0  0  0  0
    2.0535   -1.7275   -2.5379 C   0  0  0  0  0  0  0  0  0  0  0  0
    0.8523    5.2411   -1.6132 C   0  0  0  0  0  0  0  0  0  0  0  0
    1.3454    3.2147   -3.0065 C   0  0  0  0  0  0  0  0  0  0  0  0
   -0.9604    3.5688   -2.0732 C   0  0  0  0  0  0  0  0  0  0  0  0
    1.5998    0.6235   -1.0320 C   0  0  0  0  0  0  0  0  0  0  0  0
    0.5630    1.5407   -0.3525 C   0  0  2  0  0  0  0  0  0  0  0  0
    0.9209    3.0447   -0.4637 C   0  0  2  0  0  0  0  0  0  0  0  0
    0.5460    3.7406   -1.7988 C   0  0  0  0  0  0  0  0  0  0  0  0
   -0.1346    0.2436    2.9670 N   0  0  0  0  0  0  0  0  0  0  0  0
    1.3817    1.5978    1.9625 N   0  0  0  0  0  0  0  0  0  0  0  0
    0.4474    1.1725    1.0601 N   0  0  0  0  0  0  0  0  0  0  0  0
    0.0027   -0.0972   -3.0186 O   0  0  0  0  0  0  0  0  0  0  0  0
   -0.0156   -1.4887   -0.8761 O   0  0  0  0  0  0  0  0  0  0  0  0
    2.3088    3.2349   -0.2052 O   0  0  0  0  0  0  0  0  0  0  0  0
    0.7246   -0.7140   -1.8894 S   0  0  0  0  0  0  0  0  0  0  0  0
    4.9667   -3.8554   -3.8958 H   0  0  0  0  0  0  0  0  0  0  0  0
    4.0713   -1.9750   -5.2515 H   0  0  0  0  0  0  0  0  0  0  0  0
    3.9749   -4.3861   -1.6800 H   0  0  0  0  0  0  0  0  0  0  0  0
    2.1684   -0.6073   -4.3762 H   0  0  0  0  0  0  0  0  0  0  0  0
    2.0735   -3.0118   -0.8076 H   0  0  0  0  0  0  0  0  0  0  0  0
    1.5093    1.1617    4.0226 H   0  0  0  0  0  0  0  0  0  0  0  0
   -1.2433   -0.1358    1.1534 H   0  0  0  0  0  0  0  0  0  0  0  0
    0.2794    5.6614   -0.7782 H   0  0  0  0  0  0  0  0  0  0  0  0
    1.9134    5.4035   -1.4112 H   0  0  0  0  0  0  0  0  0  0  0  0
    0.5806    5.7951   -2.5180 H   0  0  0  0  0  0  0  0  0  0  0  0
    1.0385    2.2048   -3.2928 H   0  0  0  0  0  0  0  0  0  0  0  0
    2.4208    3.2283   -2.8040 H   0  0  0  0  0  0  0  0  0  0  0  0
    1.1628    3.8603   -3.8725 H   0  0  0  0  0  0  0  0  0  0  0  0
   -1.2180    2.5438   -2.3568 H   0  0  0  0  0  0  0  0  0  0  0  0
   -1.5647    3.8540   -1.2033 H   0  0  0  0  0  0  0  0  0  0  0  0
   -1.2602    4.2140   -2.9054 H   0  0  0  0  0  0  0  0  0  0  0  0
    2.1973    1.1481   -1.7733 H   0  0  0  0  0  0  0  0  0  0  0  0
    2.2652    0.1682   -0.2975 H   0  0  0  0  0  0  0  0  0  0  0  0
   -0.4271    1.3847   -0.7823 H   0  0  0  0  0  0  0  0  0  0  0  0
    0.3273    3.5426    0.3168 H   0  0  0  0  0  0  0  0  0  0  0  0
    2.4546    2.9229    0.7095 H   0  0  0  0  0  0  0  0  0  0  0  0
  1  2  1  0  0  0  0
  1  3  2  0  0  0  0
  1 23  1  0  0  0  0
  2  4  2  0  0  0  0
  2 24  1  0  0  0  0
  3  5  1  0  0  0  0
  3 25  1  0  0  0  0
  4  8  1  0  0  0  0
  4 26  1  0  0  0  0
  5  8  2  0  0  0  0
  5 27  1  0  0  0  0
  6 16  1  0  0  0  0
  6 17  2  0  0  0  0
  6 28  1  0  0  0  0
  7 16  2  0  0  0  0
  7 18  1  0  0  0  0
  7 29  1  0  0  0  0
  8 22  1  0  0  0  0
  9 15  1  0  0  0  0
  9 30  1  0  0  0  0
  9 31  1  0  0  0  0
  9 32  1  0  0  0  0
 10 15  1  0  0  0  0
 10 33  1  0  0  0  0
 10 34  1  0  0  0  0
 10 35  1  0  0  0  0
 11 15  1  0  0  0  0
 11 36  1  0  0  0  0
 11 37  1  0  0  0  0
 11 38  1  0  0  0  0
 12 13  1  0  0  0  0
 12 22  1  0  0  0  0
 12 39  1  0  0  0  0
 12 40  1  0  0  0  0
 13 14  1  0  0  0  0
 13 18  1  0  0  0  0
 13 41  1  0  0  0  0
 14 15  1  0  0  0  0
 14 21  1  0  0  0  0
 14 42  1  0  0  0  0
 17 18  1  0  0  0  0
 19 22  2  0  0  0  0
 20 22  2  0  0  0  0
 21 43  1  0  0  0  0
M  END
$$$$
