
  -OEChem-05262117483D

 56 58  0     1  0  0  0  0  0999 V2000
    3.6226   -1.2781    1.2522 C   0  0  0  0  0  0  0  0  0  0  0  0
    2.9515   -0.0767    1.0269 C   0  0  0  0  0  0  0  0  0  0  0  0
   -3.0692    1.0887   -0.3439 C   0  0  0  0  0  0  0  0  0  0  0  0
   -2.6948    1.8064    1.9086 C   0  0  0  0  0  0  0  0  0  0  0  0
    1.1951   -1.2985   -0.1237 C   0  0  0  0  0  0  0  0  0  0  0  0
   -1.6983    1.0282   -0.5803 C   0  0  0  0  0  0  0  0  0  0  0  0
    3.1039   -2.4987    0.8096 C   0  0  0  0  0  0  0  0  0  0  0  0
   -3.5926    1.5048    0.8865 C   0  0  0  0  0  0  0  0  0  0  0  0
   -1.3096    1.7333    1.7196 C   0  0  0  0  0  0  0  0  0  0  0  0
    1.8651   -2.5031    0.1504 C   0  0  0  0  0  0  0  0  0  0  0  0
    1.7522   -0.0838    0.3156 C   0  0  0  0  0  0  0  0  0  0  0  0
   -0.7918    1.3826    0.4492 C   0  0  0  0  0  0  0  0  0  0  0  0
   -0.1135   -1.2850   -0.8418 C   0  0  0  0  0  0  0  0  0  0  0  0
   -1.2502    0.5028   -1.9299 C   0  0  0  0  0  0  0  0  0  0  0  0
   -5.0830    1.5510    1.1177 C   0  0  0  0  0  0  0  0  0  0  0  0
    6.1351   -3.5880   -2.2361 C   0  0  0  0  0  0  0  0  0  0  0  0
    4.0621   -5.0004   -1.9248 C   0  0  0  0  0  0  0  0  0  0  0  0
    0.1222    0.9728    3.4543 C   0  0  0  0  0  0  0  0  0  0  0  0
    0.4924   -4.3769    0.6229 C   0  0  0  0  0  0  0  0  0  0  0  0
    5.1296   -3.7977    0.0598 C   0  0  0  0  0  0  0  0  0  0  0  0
    3.9076   -3.7680    0.9956 C   0  0  1  0  0  0  0  0  0  0  0  0
    4.8277   -3.7566   -1.4486 C   0  0  0  0  0  0  0  0  0  0  0  0
   -1.0893   -1.9589   -0.5871 O   0  0  0  0  0  0  0  0  0  0  0  0
    1.1209    2.0516   -1.2932 O   0  0  0  0  0  0  0  0  0  0  0  0
    1.5925    2.3974    1.1529 O   0  0  0  0  0  0  0  0  0  0  0  0
   -0.0696   -0.3078   -1.7796 O   0  0  0  0  0  0  0  0  0  0  0  0
    4.3248   -3.7959    2.3733 O   0  0  0  0  0  0  0  0  0  0  0  0
   -0.5416    2.0628    2.8008 O   0  0  0  0  0  0  0  0  0  0  0  0
    1.3403   -3.6856   -0.3178 O   0  0  0  0  0  0  0  0  0  0  0  0
    0.9895    1.5843    0.0910 S   0  0  0  0  0  0  0  0  0  0  0  0
    4.5620   -1.2769    1.7965 H   0  0  0  0  0  0  0  0  0  0  0  0
    3.3425    0.8614    1.4053 H   0  0  0  0  0  0  0  0  0  0  0  0
   -3.7484    0.7803   -1.1355 H   0  0  0  0  0  0  0  0  0  0  0  0
   -3.0437    2.1056    2.8933 H   0  0  0  0  0  0  0  0  0  0  0  0
   -2.0538   -0.0753   -2.3907 H   0  0  0  0  0  0  0  0  0  0  0  0
   -0.9331    1.3064   -2.5948 H   0  0  0  0  0  0  0  0  0  0  0  0
   -5.4573    0.5623    1.4087 H   0  0  0  0  0  0  0  0  0  0  0  0
   -5.3415    2.2515    1.9162 H   0  0  0  0  0  0  0  0  0  0  0  0
   -5.6169    1.8500    0.2111 H   0  0  0  0  0  0  0  0  0  0  0  0
    6.8055   -4.4408   -2.0712 H   0  0  0  0  0  0  0  0  0  0  0  0
    5.9385   -3.5237   -3.3116 H   0  0  0  0  0  0  0  0  0  0  0  0
    6.6687   -2.6790   -1.9373 H   0  0  0  0  0  0  0  0  0  0  0  0
    4.6298   -5.9136   -1.7040 H   0  0  0  0  0  0  0  0  0  0  0  0
    3.0789   -5.0786   -1.4546 H   0  0  0  0  0  0  0  0  0  0  0  0
    3.9048   -4.9631   -3.0082 H   0  0  0  0  0  0  0  0  0  0  0  0
    0.7553    1.4217    4.2203 H   0  0  0  0  0  0  0  0  0  0  0  0
    0.7486    0.4012    2.7650 H   0  0  0  0  0  0  0  0  0  0  0  0
   -0.6150    0.3057    3.9190 H   0  0  0  0  0  0  0  0  0  0  0  0
    0.2263   -5.3216    0.1458 H   0  0  0  0  0  0  0  0  0  0  0  0
   -0.4087   -3.7905    0.8171 H   0  0  0  0  0  0  0  0  0  0  0  0
    1.0317   -4.5714    1.5575 H   0  0  0  0  0  0  0  0  0  0  0  0
    5.7017   -4.7126    0.2785 H   0  0  0  0  0  0  0  0  0  0  0  0
    5.7730   -2.9515    0.3296 H   0  0  0  0  0  0  0  0  0  0  0  0
    3.2713   -4.6325    0.7880 H   0  0  0  0  0  0  0  0  0  0  0  0
    4.2033   -2.8757   -1.6455 H   0  0  0  0  0  0  0  0  0  0  0  0
    4.9555   -4.5270    2.4729 H   0  0  0  0  0  0  0  0  0  0  0  0
  1  2  1  0  0  0  0
  1  7  2  0  0  0  0
  1 31  1  0  0  0  0
  2 11  2  0  0  0  0
  2 32  1  0  0  0  0
  3  6  1  0  0  0  0
  3  8  2  0  0  0  0
  3 33  1  0  0  0  0
  4  8  1  0  0  0  0
  4  9  2  0  0  0  0
  4 34  1  0  0  0  0
  5 10  2  0  0  0  0
  5 11  1  0  0  0  0
  5 13  1  0  0  0  0
  6 12  2  0  0  0  0
  6 14  1  0  0  0  0
  7 10  1  0  0  0  0
  7 21  1  0  0  0  0
  8 15  1  0  0  0  0
  9 12  1  0  0  0  0
  9 28  1  0  0  0  0
 10 29  1  0  0  0  0
 11 30  1  0  0  0  0
 12 30  1  0  0  0  0
 13 23  2  0  0  0  0
 13 26  1  0  0  0  0
 14 26  1  0  0  0  0
 14 35  1  0  0  0  0
 14 36  1  0  0  0  0
 15 37  1  0  0  0  0
 15 38  1  0  0  0  0
 15 39  1  0  0  0  0
 16 22  1  0  0  0  0
 16 40  1  0  0  0  0
 16 41  1  0  0  0  0
 16 42  1  0  0  0  0
 17 22  1  0  0  0  0
 17 43  1  0  0  0  0
 17 44  1  0  0  0  0
 17 45  1  0  0  0  0
 18 28  1  0  0  0  0
 18 46  1  0  0  0  0
 18 47  1  0  0  0  0
 18 48  1  0  0  0  0
 19 29  1  0  0  0  0
 19 49  1  0  0  0  0
 19 50  1  0  0  0  0
 19 51  1  0  0  0  0
 20 21  1  0  0  0  0
 20 22  1  0  0  0  0
 20 52  1  0  0  0  0
 20 53  1  0  0  0  0
 21 27  1  0  0  0  0
 21 54  1  0  0  0  0
 22 55  1  0  0  0  0
 24 30  2  0  0  0  0
 25 30  2  0  0  0  0
 27 56  1  0  0  0  0
M  END
$$$$
