46
0 1 C18F3H19N4O2
C                    -6.508849665726     0.497791863767     1.751317249317
C                    -7.458652484145     0.250308181502     3.951795505918
C                    -7.307816695742    -0.546479262835     1.276028233676
C                    -8.270132803617    -0.792320204409     3.498962014084
C                    -6.566808815745     0.906074788793     3.091535562374
C                    -8.171776032497    -1.175651090425     2.165155577245
C                    -3.774788242541    -1.806293617904     2.831168986831
C                    -3.309598092414     0.322954713796     2.269083817085
C                    -1.141315040812    -1.249737947835     0.668211251879
C                    -3.914961417072    -3.282133805764     2.637749149387
C                    -2.957778179971    -3.777719228108     1.540109807867
C                    -3.054317364958    -2.886934898399     0.292120579042
C                     0.805171468766     0.059593730797    -0.207784855546
C                    -1.119590702323     0.767942513177    -0.952407883742
C                    -2.669187535722    -1.421190527992     0.577289499946
C                     0.332992369382     1.277327575399    -1.023548134273
C                    -5.605534970012     1.950651605193     3.608986179597
C                    -4.381954193491     1.309990340214     4.306325197271
N                    -4.142855340005    -1.103561749984     3.864953371606
N                    -3.269222088202    -0.999327269999     1.831273803849
N                    -3.825470084057     0.212873217225     3.534278787823
N                    -0.582085216043    -0.440845066794    -0.271299741848
O                    -2.968460108811     1.331639593748     1.638278482947
O                    -0.467740228646    -1.850982485175     1.503189875894
F                    -8.949758683102    -2.197547694375     1.714687279997
F                     0.843518671053     1.335379098592    -2.292302340346
F                     0.556063741642     2.490540622049    -0.446571002343
H                    -5.824801071284     0.998327506079     1.070718276443
H                    -7.513845270335     0.546966857300     4.996806639223
H                    -7.271458443043    -0.867575490392     0.239162899804
H                    -8.961907485878    -1.306843122255     4.158934289008
H                    -3.737780435400    -3.788537536499     3.589625088321
H                    -4.952991766324    -3.492182777756     2.349889124237
H                    -1.929897433744    -3.774158765081     1.909464795660
H                    -3.215203720871    -4.806994276908     1.272040602930
H                    -2.409818729101    -3.267320415811    -0.505637577386
H                    -4.082924205819    -2.898863256533    -0.088376843475
H                     1.537721588781    -0.577865530507    -0.707746023078
H                     1.128242855553     0.297635155922     0.808915974334
H                    -1.771187689533     1.366567829703    -0.311070706004
H                    -1.570779267964     0.571046314840    -1.928147995053
H                    -3.064229388582    -0.777037831154    -0.212392353893
H                    -6.094232632366     2.616454968469     4.329116219430
H                    -5.248398985645     2.569177694373     2.781778893344
H                    -3.605314044303     2.063220451617     4.465457145519
H                    -4.658015037956     0.883380632522     5.271789877799
