26
0 1 C10H12N2O2
C                    -1.595232171154     2.168127738091    -0.137156901473
C                    -0.316535280929     2.699167742502     0.074285298864
C                    -1.757525297056     0.793779050727    -0.328887446507
C                     0.800056283094     1.856534861183     0.116324443547
C                    -0.650765448725    -0.063438430778    -0.293718323794
C                     0.625421855621     0.484990892412    -0.051884481396
C                     0.202898412016    -2.183317822841    -0.299849529710
C                     1.426654616074    -1.672699910012     0.440251282338
C                     1.245204470796    -1.673183117598     1.972125552901
C                     0.611167816564    -2.941523761097     2.551970714186
N                    -0.797221581320    -1.433146588553    -0.591370572140
N                     0.167672042912    -3.557095580912    -0.564681985196
O                     1.726224115788    -0.345518263839    -0.029651460730
O                     1.276507530643    -4.143491051172     2.153132369387
H                    -2.460487023681     2.824557176880    -0.163956657965
H                    -0.185797955201     3.768971082132     0.212862210339
H                    -2.735527265226     0.362237025132    -0.523307275418
H                     1.800164523405     2.245042888938     0.286578246818
H                     2.302897605835    -2.268462758836     0.175372507971
H                     0.612649660923    -0.820813126889     2.245274472761
H                     2.230925218848    -1.505082737484     2.417626532465
H                     0.666673272401    -2.897179499317     3.643667967141
H                    -0.451552666021    -2.986269366749     2.280736674980
H                    -0.632100109062    -3.801352917349    -1.145927190627
H                     1.034139690230    -3.916728990666    -0.957535102904
H                     0.863771060796    -4.408704471915     1.312675983351
