
  -OEChem-05262117483D

 20 22  0     0  0  0  0  0  0999 V2000
    2.2735   -0.9581    1.2643 C   0  0  0  0  0  0  0  0  0  0  0  0
   -1.5010    2.0442   -1.1189 C   0  0  0  0  0  0  0  0  0  0  0  0
    2.4447   -0.8777   -0.8885 C   0  0  0  0  0  0  0  0  0  0  0  0
   -1.7521    1.8519    1.0186 C   0  0  0  0  0  0  0  0  0  0  0  0
    0.9925   -0.8171    0.7817 C   0  0  0  0  0  0  0  0  0  0  0  0
   -0.9990    0.8078   -0.7826 C   0  0  0  0  0  0  0  0  0  0  0  0
    3.1590   -1.0078    0.2129 N   0  0  0  0  0  0  0  0  0  0  0  0
   -1.9762    2.6712    0.0093 N   0  0  0  0  0  0  0  0  0  0  0  0
    1.1018   -0.7717   -0.6104 N   0  0  0  0  0  0  0  0  0  0  0  0
   -1.1668    0.6801    0.5985 N   0  0  0  0  0  0  0  0  0  0  0  0
   -0.3533   -0.0876    2.9224 O   0  0  0  0  0  0  0  0  0  0  0  0
   -1.4134   -1.7897    1.3541 O   0  0  0  0  0  0  0  0  0  0  0  0
   -1.0268   -1.6421   -1.8120 O   0  0  0  0  0  0  0  0  0  0  0  0
    0.4012    0.1548   -2.9130 O   0  0  0  0  0  0  0  0  0  0  0  0
   -0.5517   -0.6521    1.5993 S   0  0  0  0  0  0  0  0  0  0  0  0
   -0.2240   -0.4388   -1.7446 S   0  0  0  0  0  0  0  0  0  0  0  0
    2.5910   -1.0188    2.2969 H   0  0  0  0  0  0  0  0  0  0  0  0
   -1.5356    2.5026   -2.0985 H   0  0  0  0  0  0  0  0  0  0  0  0
    2.8199   -0.8394   -1.9027 H   0  0  0  0  0  0  0  0  0  0  0  0
   -1.9691    2.0363    2.0624 H   0  0  0  0  0  0  0  0  0  0  0  0
  1  5  2  0  0  0  0
  1  7  1  0  0  0  0
  1 17  1  0  0  0  0
  2  6  2  0  0  0  0
  2  8  1  0  0  0  0
  2 18  1  0  0  0  0
  3  7  2  0  0  0  0
  3  9  1  0  0  0  0
  3 19  1  0  0  0  0
  4  8  2  0  0  0  0
  4 10  1  0  0  0  0
  4 20  1  0  0  0  0
  5  9  1  0  0  0  0
  5 15  1  0  0  0  0
  6 10  1  0  0  0  0
  6 16  1  0  0  0  0
  9 16  1  0  0  0  0
 10 15  1  0  0  0  0
 11 15  2  0  0  0  0
 12 15  2  0  0  0  0
 13 16  2  0  0  0  0
 14 16  2  0  0  0  0
M  END
$$$$
