58
0 1 C25H26N2O5
C                     3.542617213051   -11.262816660718    -2.390670007224
C                     3.364464344514   -10.997634350303     0.010709043881
C                     3.346953383770    -7.853037469334    -3.922551845022
C                     2.213035684727   -10.894898177381    -2.529253104781
C                     2.028687108864   -10.630279731743    -0.121983813895
C                     2.055537015481    -7.450336194399    -3.586573355098
C                     5.104812967362    -8.050127394156    -0.749568982996
C                     2.606871193468    -7.408723545380    -1.208083604944
C                     6.099425861093    -8.401860018818    -1.629379823097
C                     7.348016954910   -12.278452420918     0.071609196792
C                     3.919472028364    -7.797754892355    -1.526097274705
C                     4.143121198636   -11.297121303664    -1.118004319006
C                     4.265986272507    -8.030022486102    -2.884323837498
C                     1.455657765928   -10.547895301586    -1.400725562472
C                     1.685642563273    -7.245030856883    -2.238011986512
C                     7.626814391693   -12.193664711291    -1.256331442962
C                     5.547844102256   -11.638540105737    -0.978794231123
C                     6.077018894586    -9.676530500191    -5.055772448341
C                     9.463965152975   -11.516938871090    -2.900841744288
C                     7.871382132898    -8.285618380921    -3.959147454866
C                     8.879326424052   -12.592183316635    -1.976590273945
C                    -1.417155038459    -8.366117045754    -1.385277069907
C                    -0.470236722681    -9.310243819452    -0.655875337332
C                    -0.702175639170    -7.543943203170    -2.460396132203
C                     6.364393389061    -8.441445950870    -4.175271264818
N                     6.469030567611   -11.754328873777    -1.909853947289
N                     5.605816074239    -8.413818301923    -2.929981114940
O                     5.843750139891    -9.533928481639    -6.240733702691
O                     6.026584422248   -11.929253279778     0.262772559108
O                     6.144830265913   -10.899338820862    -4.511945368768
O                     0.178149084920   -10.135718621850    -1.637808822297
O                     0.408493299426    -6.826993608333    -1.895114017716
H                     4.120094994249   -11.515624696530    -3.272754552463
H                     3.813448955866   -11.036715828304     0.997924188376
H                     3.615751429771    -8.024132844291    -4.960921386282
H                     1.751259314996   -10.830518991233    -3.508866137094
H                     1.447372004415   -10.398643128903     0.763382524359
H                     1.328026276502    -7.281392078266    -4.374302296317
H                     5.205719589455    -7.995005427752     0.326361128045
H                     2.298729229320    -7.234399797848    -0.181413176958
H                     7.126059908145    -8.668528190047    -1.425973189288
H                     7.905628016007   -12.567719268974     0.949179410622
H                     8.767789515524   -11.274743410153    -3.707317031616
H                    10.391294376185   -11.873693159935    -3.359914298937
H                     9.693417762091   -10.601145801033    -2.346049843030
H                     8.287556301951    -9.098478514094    -3.364079061171
H                     8.373094395447    -8.285996324577    -4.930086325468
H                     8.083916724334    -7.337734480779    -3.457244222846
H                     9.622292116851   -12.888398832979    -1.228559344512
H                     8.659659513378   -13.488388299561    -2.569746014822
H                    -2.228642935748    -8.930550661626    -1.860462366814
H                    -1.869681940892    -7.700197030654    -0.641579763156
H                     0.278061822251    -8.726604372898    -0.114414891707
H                    -1.010331663557    -9.943343851188     0.058896402236
H                    -1.387666447891    -6.804933596864    -2.887929322921
H                    -0.361885011160    -8.204728585336    -3.260161627129
H                     6.023395409873    -7.600480776822    -4.784286086858
H                     6.295962996817   -10.965466651936    -3.525032770760
