19   
torsion grid (-165,)
C        0.3753738164   -0.6795470724   -1.5275161957
C        0.3109458724    0.5055489734   -2.3384073701
C       -0.4081646572    0.3197188887   -3.4984720947
C       -0.2845741747   -1.7347486667   -2.0922040113
C        2.3676886244    1.8463781310   -1.4562675391
C        2.0238099863    2.4216572222   -2.8120639938
C        0.9366208078    1.8056649258   -1.9514957761
C       -0.6780502543    1.3142609571   -4.5923847380
S       -1.0078001220   -1.3169397000   -3.6170035466
Br      -0.4532767704   -3.4862563885   -1.3881020116
H        0.8914974720   -0.7333033096   -0.5754116871
H        2.9171554613    0.9098063045   -1.4354104993
H        2.6100629214    2.5326331779   -0.6502491751
H        2.0310879366    3.5008339160   -2.9346558469
H        2.3430200917    1.8622655436   -3.6863171866
H        0.2609160593    2.5153479312   -1.4761521387
H        0.2133815147    1.4759731021   -5.2095269161
H       -1.4826569558    0.9808927120   -5.2534845846
H       -0.9657789477    2.2819761074   -4.1712138587
19   
torsion grid (-150,)
C        0.0835146620   -0.5927227803   -1.3528815049
C        0.0952212239    0.5229595331   -2.2603879233
C       -0.6397939685    0.2878330335   -3.4011851270
C       -0.6465388241   -1.6454958683   -1.8269114476
C        2.2568896646    1.7766624943   -1.5163220851
C        1.9158566193    2.2884998171   -2.8976997014
C        0.8132333927    1.8025707239   -1.9764269124
C       -0.8461205165    1.1961858619   -4.5798587909
S       -1.3462862990   -1.3115262697   -3.3835528505
Br      -0.9273231593   -3.3165627103   -0.9781840236
H        0.5995490196   -0.6001182372   -0.3992799580
H        2.7421931972    0.8075254431   -1.4472177441
H        2.5656381900    2.4937997045   -0.7615189755
H        1.9915842058    3.3552168319   -3.0880522666
H        2.1716056106    1.6567097535   -3.7430388577
H        0.1983449870    2.5835883935   -1.5314285030
H       -0.0714507871    1.0476445361   -5.3414278689
H       -1.8160237954    1.0260868720   -5.0564503304
H       -0.8035820159    2.2413855911   -4.2633893414
19   
torsion grid (-135,)
C        0.1349938402   -0.6245482498   -1.3934904717
C        0.1261295236    0.5053077719   -2.2849142121
C       -0.5970995166    0.2717583267   -3.4333690996
C       -0.5688818820   -1.6848138680   -1.8880574009
C        2.2575611259    1.7820907928   -1.4986020049
C        1.9172807772    2.3222831705   -2.8690221142
C        0.8167833255    1.7929127000   -1.9687560934
C       -0.8219351605    1.1880094468   -4.6015454287
S       -1.2707647472   -1.3431703839   -3.4428659150
Br      -0.8206954963   -3.3729978300   -1.0648487486
H        0.6454913051   -0.6342368316   -0.4369327614
H        2.7602590268    0.8205807471   -1.4503727041
H        2.5475454386    2.4854125982   -0.7236377348
H        1.9748141254    3.3948019506   -3.0313830186
H        2.1902769396    1.7169079147   -3.7282006826
H        0.1847886059    2.5508195377   -1.5084638574
H       -0.2155813244    0.8934310768   -5.4667156212
H       -1.8696085438    1.1899325718   -4.9192825185
H       -0.5470877369    2.2095818964   -4.3319251818
19   
torsion grid (-120,)
C        0.6804674251   -0.9095039770   -1.8292285288
C        0.4650863852    0.3344129364   -2.5210327642
C       -0.2249328906    0.1743558564   -3.7022620790
C        0.1593276130   -1.9776638616   -2.5006369116
C        2.3561410643    1.8021950467   -1.4910700976
C        1.9185577531    2.5000746575   -2.7587681484
C        0.9307542989    1.6489826793   -1.9822598760
C       -0.6541653328    1.2202770843   -4.6898530002
S       -0.6124689949   -1.5087158660   -3.9877383671
Br       0.2220442205   -3.7978424764   -1.9769186134
H        1.2035421071   -0.9902405910   -0.8829029634
H        3.0152320806    0.9451857668   -1.5944754041
H        2.5292014087    2.4037035828   -0.6036377257
H        1.7923896350    3.5788133986   -2.7381370066
H        2.2839902271    2.1020673421   -3.7007301208
H        0.1837563863    2.2022203400   -1.4152805412
H       -0.2118380018    1.0512358251   -5.6783176284
H       -1.7426597616    1.2357195398   -4.8137198937
H       -0.3403757802    2.2065455506   -4.3428859696
19   
torsion grid (-105,)
C        0.5576119649   -0.8419889864   -1.7243938992
C        0.3786159701    0.3737517756   -2.4724805668
C       -0.3271291428    0.1814253577   -3.6399297996
C       -0.0096937446   -1.9219845789   -2.3383687155
C        2.2712035408    1.8235945627   -1.4129323117
C        1.9893570854    2.4144049492   -2.7758471287
C        0.8861370332    1.7022538889   -2.0122593877
C       -0.7485293697    1.2031983937   -4.6552888329
S       -0.7769010268   -1.4971088301   -3.8403377440
Br       0.0074087795   -3.7185487265   -1.7352553764
H        1.0878491043   -0.8977167639   -0.7803809614
H        2.8823345543    0.9266252669   -1.3749584538
H        2.4080647776    2.5007398634   -0.5751132628
H        1.9319041173    3.4951562035   -2.8692051378
H        2.4032115711    1.9025594119   -3.6396294574
H        0.1314479518    2.3541644014   -1.5754076822
H       -0.5472548117    0.8691638083   -5.6779891294
H       -1.8201168226    1.4228206967   -4.5818772582
H       -0.2035127128    2.1359148000   -4.4896154577
19   
torsion grid (-90,)
C        0.5016141435   -0.8232223651   -1.6882374797
C        0.3426205585    0.3825025098   -2.4560781775
C       -0.3538355111    0.1804336363   -3.6275959189
C       -0.0715343471   -1.9058076288   -2.2930347280
C        2.2376641361    1.8329866567   -1.4012017110
C        1.9765396162    2.4000309915   -2.7785273071
C        0.8581886568    1.7132022394   -2.0132846829
C       -0.7579665183    1.1966254841   -4.6560278276
S       -0.8233730538   -1.4940217907   -3.8060889061
Br      -0.0911170540   -3.6911822748   -1.6578491556
H        1.0200077305   -0.8705120878   -0.7371456029
H        2.8395161947    0.9310620366   -1.3396750778
H        2.3721465341    2.5247896911   -0.5750321724
H        1.9310761668    3.4791993613   -2.8937497354
H        2.3983116240    1.8671751193   -3.6256815084
H        0.1054216231    2.3809797203   -1.5976632484
H       -0.7979159393    0.7670624630   -5.6615251288
H       -1.7448767514    1.6203849024   -4.4341184265
H       -0.0403750528    2.0211792143   -4.6658660246
19   
torsion grid (-75,)
C        0.7134434648   -0.8827825620   -1.8250906189
C        0.4702354609    0.3508495846   -2.5209659215
C       -0.2237651495    0.1704392162   -3.6975318803
C        0.2021176783   -1.9642304195   -2.4867623083
C        2.2445760795    1.8691269260   -1.3516614418
C        2.0092168618    2.4535184198   -2.7266037801
C        0.8994931057    1.6911487195   -2.0214010911
C       -0.6905354527    1.2240232380   -4.6604607116
S       -0.5897595965   -1.5156584597   -3.9678495514
Br       0.3076427657   -3.7809011313   -1.9572688072
H        1.2430296928   -0.9522185049   -0.8815938121
H        2.8923285163    1.0000574257   -1.2842301179
H        2.3088166423    2.5477555844   -0.5063618512
H        1.9101984945    3.5310548951   -2.8212601380
H        2.4907061121    1.9625398087   -3.5672425514
H        0.0958926519    2.3107759763   -1.6265157301
H       -0.9691425605    0.7981914889   -5.6282083754
H       -1.5619471677    1.7615351794   -4.2680350523
H        0.1007949322    1.9611318353   -4.8287385156
19   
torsion grid (-60,)
C        0.6408096775   -0.8746950743   -1.7787706814
C        0.4186224155    0.3528288986   -2.4916387318
C       -0.2669068814    0.1665343555   -3.6720447033
C        0.1267899908   -1.9595247958   -2.4332480041
C        2.2143667954    1.8695355779   -1.3537737982
C        1.9663781629    2.4435357957   -2.7310633387
C        0.8606041901    1.6943999259   -2.0072351459
C       -0.6834287267    1.2110970148   -4.6684320598
S       -0.6460285956   -1.5186600743   -3.9264107006
Br       0.1937410147   -3.7691470057   -1.8736614851
H        1.1566492036   -0.9375652274   -0.8272201427
H        2.8567616310    0.9965292007   -1.2858826523
H        2.2921326779    2.5548956173   -0.5150290784
H        1.8729895567    3.5206822040   -2.8348914996
H        2.4367825423    1.9425159037   -3.5720250175
H        0.0649389245    2.3210325874   -1.6070082541
H       -1.2091520024    0.7745257176   -5.5216488347
H       -1.3478626513    1.9497707407   -4.2067087608
H        0.1892545512    1.7523016878   -5.0498727491
19   
torsion grid (-45,)
C        1.3335154309   -0.9455589153   -2.2240664353
C        0.8870029891    0.3397398326   -2.6872510517
C        0.2488692691    0.2753179954   -3.9062934661
C        1.0340932181   -1.9494061467   -3.1019517024
C        2.4190299823    1.9369096505   -1.3053705335
C        1.9153316766    2.7336851099   -2.4881394034
C        1.0738686811    1.6067818063   -1.9184168722
C       -0.3347302545    1.4046077425   -4.7078974132
S        0.1962388780   -1.3638163591   -4.5082255893
Br       1.4366486384   -3.7916333563   -2.9118172374
H        1.8517375950   -1.1033073066   -1.2847553870
H        3.2343485253    1.2415222634   -1.4820100178
H        2.4327103078    2.4134088660   -0.3296123826
H        1.5845674010    3.7549256192   -2.3226974568
H        2.3950973044    2.5602394465   -3.4467500405
H        0.2086751843    1.9208063825   -1.3361920165
H       -1.0002637473    1.0402539204   -5.4952897709
H       -0.9130961778    2.0743453393   -4.0645949269
H        0.4515142214    2.0014276183   -5.1844021541
19   
torsion grid (-30,)
C        2.6025400769   -0.5548732662   -3.1443816466
C        1.7055365760    0.5691745711   -3.1307288668
C        1.0136361474    0.7124204703   -4.3129161989
C        2.5780164691   -1.2281500400   -4.3328203179
C        2.7492431325    2.0291896920   -1.2390752704
C        1.8618844826    2.9454301927   -2.0512962612
C        1.5340535244    1.4677590682   -1.9489241975
C        0.0174665998    1.7733761105   -4.6852964789
S        1.4615785865   -0.5239216099   -5.4651489120
Br       3.5949875228   -2.7571921401   -4.8011197992
H        3.2303848118   -0.8366580698   -2.3064610668
H        3.7251083167    1.7852747805   -1.6485861342
H        2.7180217544    2.1066199585   -0.1563204169
H        1.2241671752    3.6496052873   -1.5247046203
H        2.2478832047    3.3037016120   -3.0009520227
H        0.6925241281    1.2201364271   -1.3035375861
H       -0.7297134505    1.3969753353   -5.3901541343
H       -0.5081743342    2.1266331630   -3.7948521443
H        0.5064454082    2.6383231151   -5.1496782108
19   
torsion grid (-15,)
C        2.6473051697   -0.5162900127   -3.1823295857
C        1.7314829857    0.5932161476   -3.1570654859
C        1.0480269714    0.7468448387   -4.3429398987
C        2.6435937638   -1.1684832864   -4.3820377597
C        2.7429735277    2.0170966011   -1.2218856901
C        1.8549704639    2.9460325179   -2.0184619613
C        1.5391780661    1.4631301693   -1.9565405180
C        0.0279994151    1.7868474623   -4.7069955425
S        1.5274657515   -0.4616574148   -5.5137429403
Br       3.6928121692   -2.6692581035   -4.8696014676
H        3.2730819584   -0.8016592086   -2.3441112938
H        3.7245899516    1.7924340297   -1.6286672237
H        2.7016610130    2.0669180338   -0.1378627286
H        1.2066460523    3.6308351079   -1.4793132096
H        2.2449818353    3.3311175110   -2.9559259788
H        0.6942941078    1.1923342568   -1.3252282291
H       -0.8401314610    1.3439006440   -5.2059546897
H       -0.3253149413    2.2921220903   -3.8057810965
H        0.4453767989    2.5456386602   -5.3796008331
19   
torsion grid (0,)
C        2.6019460561   -0.5430411800   -3.1519165048
C        1.7033924830    0.5814799286   -3.1466077892
C        1.0375926686    0.7345588974   -4.3425329999
C        2.6032107153   -1.2064024263   -4.3450747434
C        2.7176035227    1.9933250592   -1.2047080742
C        1.8567085116    2.9371030020   -2.0133014679
C        1.5122621979    1.4601110535   -1.9520577480
C        0.0235082926    1.7733500167   -4.7242273752
S        1.5107299922   -0.4938983740   -5.4963346064
Br       3.6357020930   -2.7271243822   -4.8060174225
H        3.2133404105   -0.8297328238   -2.3036418296
H        3.6994007151    1.7498789569   -1.6001256507
H        2.6650151199    2.0463026195   -0.1213260173
H        1.2153535705    3.6350799715   -1.4827291761
H        2.2657836036    3.3129085298   -2.9464079116
H        0.6554986104    1.2073688028   -1.3295358884
H       -0.9394461655    1.3203385244   -4.9867557050
H       -0.1447019255    2.4507913790   -3.8847694558
H        0.3546459268    2.3674825636   -5.5829852558
19   
torsion grid (15,)
C        2.6573396488   -0.4952634301   -3.1955758244
C        1.7361242711    0.6101788506   -3.1758586168
C        1.0731252128    0.7719800711   -4.3724833282
C        2.6761798971   -1.1372651942   -4.4005738689
C        2.7003147526    1.9724498523   -1.1725484922
C        1.8745920492    2.9401192433   -1.9898087123
C        1.5164530089    1.4644834012   -1.9690869914
C        0.0207539024    1.7807967128   -4.7297200283
S        1.5750394439   -0.4264520487   -5.5442797944
Br       3.7435612418   -2.6264595112   -4.8844263351
H        3.2712976144   -0.7845049034   -2.3500168940
H        3.6929010953    1.7296336300   -1.5404443650
H        2.6128117994    2.0045975810   -0.0906224480
H        1.2218858399    3.6331724687   -1.4666729411
H        2.3187759016    3.3304008429   -2.9007194394
H        0.6366873640    1.2093117108   -1.3807188337
H       -0.9781466906    1.3293447003   -4.7555242865
H        0.0071557235    2.5798132645   -3.9852828819
H        0.2054496074    2.2311801488   -5.7105700929
19   
torsion grid (30,)
C        3.2274035846   -0.1724863728   -3.8352358681
C        2.1682688214    0.7529820123   -3.5345051194
C        1.2964226515    0.9249767267   -4.5874545187
C        3.1364280232   -0.6770310041   -5.1014379367
C        3.2314363048    2.0356167824   -1.5270854535
C        2.1618570168    2.9396511800   -2.0976720233
C        2.0232248055    1.4314416078   -2.2111517836
C        0.0450156095    1.7530330210   -4.6346101346
S        1.7637523882   -0.0472578394   -5.9634645602
Br       4.3215293136   -1.9013766054   -5.9310780972
H        4.0141963619   -0.4374134666   -3.1378317347
H        4.1800489323    1.9919368012   -2.0541163957
H        3.3075809262    1.9429671495   -0.4477893011
H        1.5059888815    3.4642726487   -1.4088084399
H        2.4030618408    3.4860009024   -3.0047556993
H        1.2882056654    0.9833353624   -1.5444999272
H       -0.8304747526    1.1731223451   -4.3186874477
H        0.1379355207    2.6096640524   -3.9622763358
H       -0.1546161257    2.1321944940   -5.6415166331
19   
torsion grid (45,)
C        3.2913420739   -0.0827163732   -3.8908975371
C        2.2011822819    0.7939155647   -3.5604819889
C        1.3195253272    0.9620104073   -4.6056599998
C        3.2144169033   -0.5544813817   -5.1715032524
C        3.2185069065    2.0016370399   -1.4813476128
C        2.1903590349    2.9414694538   -2.0702932620
C        2.0264179055    1.4385924844   -2.2246644652
C        0.0525176919    1.7682937654   -4.6210762706
S        1.8139647983    0.0460335750   -6.0082951469
Br       4.4314725857   -1.7236083870   -6.0341509175
H        4.0870946663   -0.3441863085   -3.2025197050
H        4.1862393315    1.9515687174   -1.9716859431
H        3.2510305700    1.8823160978   -0.4024815875
H        1.5186639089    3.4637023950   -1.3950748057
H        2.4770743112    3.5026274740   -2.9548557440
H        1.2551252449    0.9930187416   -1.5985024850
H       -0.7476928965    1.2652301312   -4.0655290311
H        0.2178015070    2.7443074490   -4.1549241896
H       -0.3076594530    1.9385406956   -5.6396118075
19   
torsion grid (60,)
C        2.9173704716   -0.4709465190   -3.5842068253
C        1.9430693021    0.5690226392   -3.4007350777
C        1.0872363371    0.6920131343   -4.4732466091
C        2.7832436176   -1.1056361967   -4.7878108171
C        3.0954315184    1.9391784575   -1.4997056824
C        2.1898506450    2.8970036946   -2.2415469599
C        1.8459334242    1.4186301214   -2.1765695992
C       -0.0514955492    1.6588276262   -4.6338362790
S        1.4664799938   -0.4650811504   -5.7243821890
Br       3.8459436976   -2.5260951194   -5.4549808142
H        3.6741668198   -0.7281144895   -2.8516399721
H        4.0513548093    1.7015568191   -1.9570646167
H        3.1102492850    1.9782282088   -0.4145716828
H        1.5842362705    3.5900724065   -1.6648008652
H        2.5445307275    3.2825595853   -3.1928856203
H        1.0245215565    1.1653957049   -1.5079981459
H       -0.7912209445    1.5308014509   -3.8358410976
H        0.3074900049    2.6925543026   -4.5860287781
H       -0.5659583315    1.5251924341   -5.5890797163
19   
torsion grid (75,)
C        2.1195018924   -0.9659949819   -2.9065448359
C        1.4172150861    0.2801077865   -3.0480411709
C        0.6106609204    0.3152117638   -4.1641202523
C        1.8376115411   -1.8415722286   -3.9173726048
C        2.8908054339    1.8539186603   -1.5780306480
C        2.1067880183    2.7436589649   -2.5168082100
C        1.5316223146    1.4099522527   -2.0776731540
C       -0.2620688701    1.4408971796   -4.6433512780
S        0.7093324582   -1.1795144930   -5.0625970088
Br       2.5389324575   -3.5873767523   -4.1466073783
H        2.7990244105   -1.1882240558   -2.0913319651
H        3.7628313390    1.3474949849   -1.9812732781
H        2.9802759021    2.1522685692   -0.5376973871
H        1.6600235590    3.6506374854   -2.1198920287
H        2.4581113042    2.8200914721   -3.5414954373
H        0.7260374082    1.4691175696   -1.3470857956
H       -0.8182446094    1.8770502094   -3.8086645413
H        0.3346338288    2.2415941242   -5.0956001718
H       -0.9864035723    1.1034639629   -5.3900578375
19   
torsion grid (90,)
C        2.0652575197   -0.9901135155   -2.8587077125
C        1.3805007989    0.2637099887   -3.0238915237
C        0.5918693942    0.2957416033   -4.1526708627
C        1.7909304844   -1.8720469438   -3.8651932049
C        2.8682412830    1.8469750382   -1.5821600266
C        2.0634285179    2.7338046789   -2.5054403356
C        1.5017422315    1.3974367665   -2.0577266592
C       -0.2454999230    1.4288341581   -4.6737161913
S        0.6895159291   -1.2095298556   -5.0367894709
Br       2.4748827571   -3.6281954590   -4.0647787272
H        2.7280694325   -1.2114739648   -2.0296252238
H        3.7346442025    1.3437423507   -2.0012225735
H        2.9751229040    2.1450690177   -0.5433967171
H        1.6201788339    3.6382009014   -2.0987088790
H        2.3935243207    2.8130315430   -3.5369097350
H        0.7099350225    1.4505226702   -1.3119162586
H       -0.5842294962    2.0569755798   -3.8459667132
H        0.3253882339    2.0676712932   -5.3583786825
H       -1.1292197482    1.0690198425   -5.2084762003
19   
torsion grid (105,)
C        2.4453227057   -0.8270716756   -3.2297413141
C        1.6262551453    0.3560683628   -3.2236057712
C        0.8209147261    0.4520162525   -4.3367830435
C        2.2514033038   -1.5911816060   -4.3445817414
C        2.9661582818    1.8669314802   -1.5746490764
C        2.0642102495    2.7891439990   -2.3632872213
C        1.6450271209    1.3530186960   -2.1097627204
C       -0.1497953554    1.5384724121   -4.6998985802
S        1.0653904284   -0.9037354714   -5.4156537223
Br       3.1166774685   -3.2204394114   -4.7784159594
H        3.1414906455   -1.0829010571   -2.4388499269
H        3.8721892857    1.5182383647   -2.0615510990
H        3.0581009243    2.0242773593   -0.5041206300
H        1.5380082935    3.5774322230   -1.8325340753
H        2.3696645338    3.0458423909   -3.3732775887
H        0.8625450344    1.2213688240   -1.3640099682
H       -0.3437224786    2.1677280724   -3.8288854386
H        0.2436177082    2.1820314732   -5.4959354984
H       -1.1060552040    1.1309688582   -5.0435250239
19   
torsion grid (120,)
C        1.9477321432   -1.0187330919   -2.7539248719
C        1.3091919909    0.2512035903   -2.9816209610
C        0.5600218553    0.2710288366   -4.1372233015
C        1.6762452468   -1.9240102813   -3.7388637754
C        2.8132442069    1.8211480373   -1.5448586556
C        2.0500215095    2.7157387637   -2.4950075727
C        1.4425454138    1.4025351115   -2.0372438984
C       -0.2617650961    1.3910125410   -4.7062681514
S        0.6351029894   -1.2676805255   -4.9686061731
Br       2.3136296501   -3.7044258340   -3.8618958429
H        2.5790913220   -1.2311716944   -1.8984050865
H        3.6715160726    1.2871508194   -1.9420714167
H        2.9114171363    2.1320664038   -0.5090065586
H        1.6262700698    3.6384092357   -2.1088241455
H        2.4003275905    2.7698840071   -3.5214571067
H        0.6412229032    1.4898067737   -1.3052540865
H       -0.1963045928    2.2643199309   -4.0545798172
H        0.0863474713    1.6846531473   -5.7031547261
H       -1.3179587773    1.1129055106   -4.7930243838
19   
torsion grid (135,)
C        1.5109755491   -1.0566862891   -2.3492770843
C        1.0340030262    0.2338318725   -2.7715330535
C        0.3018540606    0.1756548958   -3.9369963680
C        1.1360711818   -2.0563771333   -3.2003056606
C        2.6905560718    1.7895260279   -1.4936746527
C        2.1018351318    2.6194842510   -2.6120133000
C        1.2954359529    1.4875704897   -2.0007069564
C       -0.3955574764    1.2893211620   -4.6624762102
S        0.1916115093   -1.4648404327   -4.5360004343
Br       1.5563984522   -3.8985221935   -3.0544809150
H        2.1071711340   -1.2173670751   -1.4580173307
H        3.4798940361    1.0903854382   -1.7538907036
H        2.7909447615    2.2425054620   -0.5118367526
H        1.7990335424    3.6398541693   -2.3948422999
H        2.4981681398    2.4638472103   -3.6110434997
H        0.4860256248    1.7977547985   -1.3418753252
H       -0.0421386288    2.2526236030   -4.2887769327
H       -0.2107475122    1.2520783827   -5.7412403706
H       -1.4807515089    1.2486787128   -4.5115772890
19   
torsion grid (150,)
C        1.1600970994   -1.0190789449   -2.0638607801
C        0.8099224425    0.2580560125   -2.6252210792
C        0.0778678022    0.1464799718   -3.7871173080
C        0.6902797822   -2.0634656699   -2.8085020340
C        2.5847579911    1.7771602641   -1.4649608828
C        2.1271519671    2.5175184065   -2.7016096326
C        1.1829440366    1.5605462588   -1.9951260718
C       -0.5202953925    1.2428866978   -4.6201307875
S       -0.1916793772   -1.5288714981   -4.2087397508
Br       0.9321559622   -3.9114974684   -2.4649345497
H        1.7372309164   -1.1411497050   -1.1541175674
H        3.3021817604    0.9734315630   -1.6022563731
H        2.7015953941    2.3368349958   -0.5417267654
H        1.9303103000    3.5829273568   -2.6234984662
H        2.5376538221    2.1974594398   -3.6547802765
H        0.3902003439    2.0343675793   -1.4184551078
H        0.0793622685    2.1520116976   -4.5301486679
H       -0.5737401036    0.9688800673   -5.6781616329
H       -1.5386255111    1.4822473393   -4.2903841770
19   
torsion grid (165,)
C        0.8525310279   -0.9490593253   -1.8465751630
C        0.6052259078    0.2989271191   -2.5153807444
C       -0.1343084887    0.1482771061   -3.6682014703
C        0.2996433752   -2.0122215716   -2.5039630709
C        2.4755479406    1.7741381523   -1.4481999022
C        2.1215513041    2.4126451670   -2.7727747468
C        1.0764238807    1.6212219760   -2.0053561998
C       -0.6293505965    1.2207664397   -4.5958617234
S       -0.5381474001   -1.5280168646   -3.9481556388
Br       0.3916025111   -3.8379346382   -2.0035839135
H        1.4167454250   -1.0403380122   -0.9251975622
H        3.1236762168    0.9030254359   -1.4725116971
H        2.6145971570    2.4183989545   -0.5851511209
H        2.0171614675    3.4929597651   -2.8156489122
H        2.5296474939    1.9567727500   -3.6700854473
H        0.3119177348    2.2214255476   -1.5144146754
H        0.1598438583    1.9534998346   -4.7883275819
H       -0.9572652134    0.8105431596   -5.5550197753
H       -1.4791030017    1.7591125870   -4.1593172384
19   
torsion grid (180,)
C        0.9334560932   -0.9680448988   -1.9045909170
C        0.6438721920    0.2890664305   -2.5372944963
C       -0.0990661086    0.1492715837   -3.6890034782
C        0.4112354203   -2.0292043328   -2.5905843249
C        2.4621692234    1.7905544651   -1.4156352255
C        2.1233624483    2.4320269012   -2.7428997779
C        1.0787168694    1.6139090212   -2.0032109188
C       -0.5938207530    1.2335287568   -4.6039913113
S       -0.4504977698   -1.5294286989   -4.0150564896
Br       0.5519254600   -3.8640217153   -2.1364637283
H        1.5007907192   -1.0679775322   -0.9860598198
H        3.1287037262    0.9332937338   -1.4320240575
H        2.5697423717    2.4308277198   -0.5451571160
H        1.9975966251    3.5102205466   -2.7806790816
H        2.5582957746    1.9912136346   -3.6350980816
H        0.2913757534    2.1951511442   -1.5255422381
H        0.2429679561    1.8140558991   -5.0071254555
H       -1.1611904977    0.8283017507   -5.4460095035
H       -1.2469935740    1.9304241930   -4.0672803566
