20   
torsion grid (-165,)
C       -1.2769063847   -1.7780472629    0.8757564480
C       -1.6387451661   -1.4351147183    2.3039836113
C        0.5506560912    2.6227315103   -1.2141980110
C        2.4322824195   -0.4789635216    0.7245474556
N       -0.7481189422   -0.7565842574    0.0734673693
O       -1.4026743756   -2.8995659524    0.4080888551
O       -1.2970353219    1.6894389259    1.1414845261
O        0.2232324633    1.2292363987   -0.9831110665
P       -0.2882842417    0.8191577662    0.4956139366
S        1.4226879116    0.6931538247    1.7169114868
H       -0.8682688505   -1.8539770058    2.9590654838
H       -2.5829278739   -1.9286916281    2.5419093820
H       -1.7166126140   -0.3649989006    2.4956046021
H        0.8265659687    2.6937149862   -2.2658494194
H        1.3936214853    2.9210724034   -0.5839985304
H       -0.3173517448    3.2503692199   -1.0028824354
H        3.3739270264   -0.6045862230    1.2627799624
H        2.6347197427   -0.0741745737   -0.2683841328
H        1.9338337773   -1.4463922463    0.6419159630
H       -0.5269852601   -1.0600844651   -0.8728350546
20   
torsion grid (-150,)
C       -1.1400633837   -1.9808216208    0.7987296414
C       -1.5929698088   -1.6018540449    2.1903702388
C        0.1573316572    2.5210154385   -1.4645087760
C        2.3773073461   -0.1438957868    0.7339480833
N       -0.6913118159   -0.9441375222   -0.0342860734
O       -1.1167799037   -3.1300138998    0.3857196142
O       -1.6542741402    1.4411245403    0.8579838105
O        0.0292583115    1.1079465004   -1.1655180251
P       -0.4935115714    0.7026533525    0.3105212047
S        1.1501758957    0.9059930649    1.6111673928
H       -0.7204951776   -1.6078832235    2.8529899943
H       -2.2971112097   -2.3572175176    2.5401573049
H       -2.0383283511   -0.6066228909    2.2353708349
H        0.4777542286    2.5778871694   -2.5043280220
H        0.9097736842    2.9770202177   -0.8144036221
H       -0.8051043014    3.0193661098   -1.3326593149
H        3.2960147493   -0.0988921336    1.3222780764
H        2.5708905882    0.2392771639   -0.2692396525
H        2.0343105012   -1.1787177159    0.6813056210
H       -0.3955270396   -1.2613816323   -0.9551881008
20   
torsion grid (-135,)
C       -1.1233578742   -2.0019483133    0.7968874982
C       -1.6021921099   -1.6030063798    2.1729780124
C        0.1683383067    2.5039324003   -1.4582824080
C        2.4416883626   -0.1497131125    0.6856871909
N       -0.6355904764   -0.9736848545   -0.0272197428
O       -1.1199846263   -3.1499837398    0.3808840888
O       -1.6021959218    1.3946011265    0.8916720385
O        0.0471327875    1.0888269485   -1.1662787185
P       -0.4441675265    0.6725451804    0.3172535042
S        1.2240627899    0.8922813459    1.5852224221
H       -0.7391741877   -1.3529015393    2.8001510540
H       -2.1301479581   -2.4486104420    2.6129966321
H       -2.2426729235   -0.7189591711    2.1373286732
H        0.4679899489    2.5680819877   -2.5038530741
H        0.9330128642    2.9563809820   -0.8200958537
H       -0.7918244627    3.0003871727   -1.3043229050
H        3.3732857987   -0.0921304305    1.2522323067
H        2.6083002283    0.2298387118   -0.3237554614
H        2.1078570055   -1.1881386201    0.6470930382
H       -0.3323323267   -1.2957792718   -0.9438454865
20   
torsion grid (-120,)
C       -1.1874077279   -1.9527464029    0.8901663400
C       -1.6564232147   -1.5493839112    2.2682141567
C        0.1410646064    2.5445257436   -1.3463381717
C        2.4337016646   -0.0858345179    0.8000375775
N       -0.6400521061   -0.9370140250    0.0878468306
O       -1.2570899150   -3.0886649383    0.4479508397
O       -1.6232849346    1.4248889578    1.0035844010
O        0.0319667024    1.1289277235   -1.0522500349
P       -0.4593092131    0.7107000356    0.4312447235
S        1.2062652849    0.9442922122    1.6996009419
H       -0.8341380067   -1.1151757125    2.8459596707
H       -2.0342211652   -2.4363244588    2.7758844549
H       -2.4380475964   -0.7879922460    2.1992218488
H        0.4442326409    2.6097071263   -2.3908505454
H        0.8989576568    3.0054590732   -0.7061182712
H       -0.8242717858    3.0323014059   -1.1969860799
H        3.3635667693   -0.0229299687    1.3688778253
H        2.5992500325    0.2981315027   -0.2078694917
H        2.1066168023   -1.1261743640    0.7575772135
H       -0.3742823636   -1.2505627337   -0.8432306065
20   
torsion grid (-105,)
C       -1.2643053320   -1.9373019050    0.8371449151
C       -1.7020202577   -1.5485035444    2.2300933697
C        0.1513627081    2.5403601356   -1.3643963233
C        2.4244723997   -0.1073527078    0.7790034644
N       -0.6489753945   -0.9392734050    0.0626731901
O       -1.4304463847   -3.0468989761    0.3561126519
O       -1.6236367511    1.4274930951    0.9824559515
O        0.0317939431    1.1254324926   -1.0721621984
P       -0.4625552245    0.7078797211    0.4109779928
S        1.2030106275    0.9278451887    1.6807188987
H       -0.9345255464   -0.9774238862    2.7590199539
H       -1.9356028759   -2.4600287079    2.7804600981
H       -2.5959199629   -0.9210249265    2.1680414199
H        0.4518497078    2.6047320143   -2.4097545825
H        0.9149151435    2.9940642678   -0.7257571127
H       -0.8094936523    3.0358946856   -1.2114750499
H        3.3547097166   -0.0511935471    1.3479526328
H        2.5919515023    0.2780988861   -0.2280008108
H        2.0899103406   -1.1450849771    0.7336621475
H       -0.4389457021   -1.2353796810   -0.8883745312
20   
torsion grid (-90,)
C       -1.0934045796   -1.9851847170    0.9578085821
C       -1.5373367640   -1.6076025902    2.3523661019
C        0.1650450258    2.5030302100   -1.3177834286
C        2.5323804998   -0.0617124958    0.8363282973
N       -0.5273956728   -0.9745558549    0.1648588081
O       -1.2317292953   -3.1038366367    0.4885043279
O       -1.5481130568    1.3812004605    1.0668583927
O        0.0885689137    1.0897805730   -1.0039679835
P       -0.3773120625    0.6813569604    0.4911650440
S        1.2977627859    0.9588149587    1.7366901833
H       -0.9286969829   -0.8255853173    2.8087198230
H       -1.5148965530   -2.5076745661    2.9685597251
H       -2.5705213916   -1.2508339007    2.3020708139
H        0.4495384992    2.5605399216   -2.3680082166
H        0.9243408864    2.9866866421   -0.6962648150
H       -0.8069517973    2.9742480873   -1.1584953989
H        3.4674863291    0.0245827234    1.3934049579
H        2.6793092914    0.3122999576   -0.1781674016
H        2.2216777320   -1.1074656296    0.8105015700
H       -0.3211621481   -1.2746720959   -0.7858221470
20   
torsion grid (-75,)
C       -1.0564909937   -1.9865980670    0.9828301064
C       -1.5075411840   -1.6313746620    2.3819640557
C        0.1863905788    2.5050260909   -1.3087131770
C        2.5409657594   -0.0770126889    0.8405445744
N       -0.5284799009   -0.9625972883    0.1832640075
O       -1.1560514260   -3.1127449911    0.5205396034
O       -1.5243509152    1.4058832755    1.0869800625
O        0.0972380683    1.0932428638   -0.9917076301
P       -0.3636508360    0.6929191953    0.5071467400
S        1.3197619437    0.9570133475    1.7438317017
H       -1.1214916498   -0.6839954665    2.7562404719
H       -1.2132026287   -2.4456127907    3.0471039134
H       -2.6005828392   -1.5819477023    2.3801588552
H        0.4662383801    2.5576424871   -2.3604328638
H        0.9535838093    2.9821929444   -0.6918750564
H       -0.7800089780    2.9863064462   -1.1455250675
H        3.4803544636    0.0057936651    1.3909193136
H        2.6840302561    0.2906534377   -0.1768354241
H        2.2234544732   -1.1208827379    0.8224226893
H       -0.3078752706   -1.2658365013   -0.7632624360
20   
torsion grid (-60,)
C       -1.1096572917   -1.9460893745    0.9972489349
C       -1.6165114796   -1.6038691726    2.3811540471
C        0.1851231954    2.5674232607   -1.2436692653
C        2.4186650625   -0.1484517931    0.8915540342
N       -0.6693005981   -0.8981276150    0.1770097696
O       -1.0795838413   -3.0902900623    0.5700777327
O       -1.5868661816    1.4920806564    1.1105539675
O        0.0469714860    1.1538183768   -0.9523746073
P       -0.4473086777    0.7442497826    0.5327508210
S        1.2275782515    0.9184187625    1.7973761502
H       -1.5714335312   -0.5448749290    2.6312015585
H       -1.0438051026   -2.1840836678    3.1088061271
H       -2.6578441693   -1.9322298993    2.4413926111
H        0.4793279294    2.6288188019   -2.2909632690
H        0.9597814952    3.0087659865   -0.6097113757
H       -0.7672177263    3.0766801749   -1.0831302894
H        3.3520879384   -0.1148106612    1.4570205166
H        2.5927220522    0.2316777431   -0.1164002339
H        2.0610144604   -1.1786553528    0.8490525475
H       -0.3778224808   -1.2077161887   -0.7480917031
20   
torsion grid (-45,)
C       -1.1023705459   -1.9438127767    0.9858602558
C       -1.5660318274   -1.5945248240    2.3830500960
C        0.2167768552    2.5707680540   -1.2398882441
C        2.4129883796   -0.1756707301    0.8934465394
N       -0.6779146676   -0.8950606350    0.1573894304
O       -1.0652171481   -3.0898296126    0.5644217179
O       -1.5793664704    1.4985867967    1.0970432866
O        0.0643731623    1.1568803515   -0.9568448487
P       -0.4429220988    0.7433472631    0.5224031386
S        1.2244016189    0.8935156607    1.8000538431
H       -1.7651972847   -0.5328798479    2.5288712903
H       -0.7999409174   -1.9191468928    3.0931879052
H       -2.4775736895   -2.1615177192    2.5839637228
H        0.5189217767    2.6347710805   -2.2847552461
H        0.9907254593    3.0020629802   -0.5982192095
H       -0.7322528629    3.0873795730   -1.0834305749
H        3.3428438569   -0.1542166605    1.4653576446
H        2.5970345612    0.2109391915   -0.1102584299
H        2.0477664876   -1.2027711105    0.8399195279
H       -0.3821357320   -1.2051304626   -0.7661347655
20   
torsion grid (-30,)
C       -1.2239830550   -1.9147892346    0.9750621913
C       -1.6522874015   -1.5577786771    2.3807222941
C        0.2093745930    2.5927935180   -1.1918612619
C        2.3455679616   -0.1943417865    0.9433070512
N       -0.7487384675   -0.8732589562    0.1636512198
O       -1.2430597600   -3.0534941705    0.5336165995
O       -1.6295669403    1.5239932811    1.1104844427
O        0.0388389787    1.1781737031   -0.9226637151
P       -0.4954647853    0.7580273771    0.5451323376
S        1.1551593167    0.8750602582    1.8471566266
H       -2.0357743730   -0.5393130681    2.4611988133
H       -0.7898867732   -1.6551340686    3.0481845257
H       -2.4188283487   -2.2683314550    2.6925440950
H        0.5300565466    2.6619875234   -2.2308541886
H        0.9762275296    3.0117652179   -0.5337193890
H       -0.7372531493    3.1172308874   -1.0474837169
H        3.2654412953   -0.1948086501    1.5315358346
H        2.5516514382    0.2063141629   -0.0505038773
H        1.9675409556   -1.2152978293    0.8658921658
H       -0.4741436503   -1.1765760056   -0.7684646928
20   
torsion grid (-15,)
C       -1.2091428462   -1.9375628287    0.9699292347
C       -1.6616162077   -1.5587529114    2.3608671067
C        0.2238469535    2.5742679522   -1.1867029177
C        2.4076960868   -0.2012283076    0.8925917210
N       -0.6962729820   -0.9054362287    0.1665892012
O       -1.2445725626   -3.0748893032    0.5268396783
O       -1.5817983544    1.4732765945    1.1404533940
O        0.0540660304    1.1579915759   -0.9264802878
P       -0.4494195316    0.7253977733    0.5483275656
S        1.2264430399    0.8596650154    1.8181336000
H       -2.2475225558   -0.6369223116    2.3590963494
H       -0.7852176923   -1.3908691770    2.9963307565
H       -2.2484144705   -2.3824084665    2.7670180503
H        0.5240609381    2.6516665294   -2.2312163592
H        1.0046541010    2.9853651575   -0.5401265441
H       -0.7182896794    3.1001087615   -1.0194753480
H        3.3412664702   -0.1878189214    1.4586704239
H        2.5859112187    0.1957625066   -0.1081210683
H        2.0395129292   -1.2268307377    0.8305243115
H       -0.4068417489   -1.2151216315   -0.7587705065
20   
torsion grid (0,)
C       -1.2610661801   -1.8939218904    1.0751692957
C       -1.7147498719   -1.5073668402    2.4631663572
C        0.1970916265    2.6104837371   -1.0670677178
C        2.4108607748   -0.1366614483    1.0079248315
N       -0.6896928869   -0.8761595507    0.2925002398
O       -1.3607067742   -3.0183205989    0.6098718764
O       -1.5966571604    1.4930217832    1.2657374336
O        0.0386013377    1.1932435305   -0.8054779164
P       -0.4575569557    0.7573000975    0.6711741018
S        1.2206419840    0.9123141751    1.9352804209
H       -2.4600886994   -0.7090546628    2.4163300069
H       -0.8727362923   -1.1271136913    3.0508721372
H       -2.1306131640   -2.3902833043    2.9475181495
H        0.4952596729    2.6894469990   -2.1120657474
H        0.9755231229    3.0283376765   -0.4219581832
H       -0.7488911953    3.1291728693   -0.8990498299
H        3.3462595194   -0.1112107903    1.5705753704
H        2.5805954091    0.2604796047    0.0058075969
H        2.0532502822   -1.1661138108    0.9492757595
H       -0.4304379992   -1.1783521939   -0.6441438865
20   
torsion grid (15,)
C       -1.1785178206   -1.9291467980    1.1462517568
C       -1.5992133658   -1.5544236200    2.5480934183
C        0.2032071590    2.5725599853   -1.0283600782
C        2.5053756887   -0.0917254544    1.0635264550
N       -0.5747326416   -0.9219761854    0.3745028572
O       -1.3498683092   -3.0339125414    0.6559246947
O       -1.5424989683    1.4346930162    1.3276425633
O        0.0900765166    1.1546700145   -0.7482179627
P       -0.3869260651    0.7221395105    0.7363627902
S        1.2925148887    0.9323970148    1.9891878491
H       -2.4921499364   -0.9240103497    2.5062255604
H       -0.8244639548   -0.9834892406    3.0672393990
H       -1.8120635723   -2.4705375513    3.0987239769
H        0.4923346941    2.6474994453   -2.0762166703
H        0.9725080671    3.0221312669   -0.3937043849
H       -0.7570984666    3.0643052370   -0.8604725788
H        3.4405886851   -0.0433063936    1.6249775532
H        2.6640751863    0.3064953327    0.0600903996
H        2.1697547937   -1.1286066917    1.0078762988
H       -0.3810238949   -1.2068723736   -0.5833945097
20   
torsion grid (30,)
C       -1.2045076217   -1.8971319190    1.1380432694
C       -1.6312008376   -1.5413039759    2.5439772386
C        0.2234010150    2.5933571177   -1.0296979145
C        2.4933553124   -0.1112258985    1.0576325407
N       -0.5985500610   -0.8897051447    0.3710607577
O       -1.3906785178   -2.9955907537    0.6383831589
O       -1.5284028835    1.4817279623    1.3307023439
O        0.0937706262    1.1769518590   -0.7493708798
P       -0.3857581069    0.7512654245    0.7366857350
S        1.3001799510    0.9343245947    1.9847785857
H       -2.6568243179   -1.1619368318    2.5133418586
H       -1.0079132319   -0.7719969730    3.0029879770
H       -1.5985383277   -2.4478740577    3.1494923015
H        0.5096302423    2.6649758904   -2.0785827971
H        1.0005681183    3.0331636914   -0.3977718704
H       -0.7300782033    3.0969774827   -0.8581380033
H        3.4308597906   -0.0770199896    1.6163011651
H        2.6556128206    0.2827140557    0.0530719119
H        2.1408241722   -1.1425966472    1.0049115015
H       -0.4094957585   -1.1722740201   -0.5885765204
20   
torsion grid (45,)
C       -1.1483273082   -1.8796596027    1.0578621960
C       -1.5710644657   -1.5283511354    2.4671889432
C        0.3208535793    2.5766198048   -1.1746722948
C        2.5344544045   -0.1909121485    0.8936541076
N       -0.5930083947   -0.8666841824    0.2631993402
O       -1.2912339397   -2.9965856864    0.5843717604
O       -1.4243856678    1.5425057136    1.2247936190
O        0.1453539945    1.1674757564   -0.8827233216
P       -0.3193742645    0.7685326662    0.6151891242
S        1.3937017026    0.9020470634    1.8320911543
H       -2.6641731469   -1.4983552102    2.4930944720
H       -1.1969535663   -0.5695370299    2.8244174927
H       -1.2350876443   -2.3273284165    3.1311189759
H        0.5888020899    2.6317109590   -2.2293517884
H        1.1257351763    2.9913371720   -0.5607268265
H       -0.6101756248    3.1155647546   -0.9878681219
H        3.4849247452   -0.1763477143    1.4308866297
H        2.6860929558    0.1842781160   -0.1197481321
H        2.1522267076   -1.2125941280    0.8636558565
H       -0.3878303597   -1.1690736648   -0.6870831335
20   
torsion grid (60,)
C       -1.1710199989   -1.8555647560    1.0591778341
C       -1.6315956270   -1.5085853505    2.4579684964
C        0.3301500343    2.6219583083   -1.1248449776
C        2.4355231955   -0.2546471304    0.9289783455
N       -0.6986267308   -0.8171092214    0.2444879620
O       -1.1962056395   -2.9949095065    0.6189554343
O       -1.4685680805    1.6023816919    1.2342349025
O        0.1164998225    1.2130302526   -0.8573735965
P       -0.3803216917    0.8033361592    0.6267180112
S        1.3176218099    0.8589318516    1.8712465581
H       -2.6593565033   -1.8659176079    2.5640355692
H       -1.6017668190   -0.4457707962    2.6939835201
H       -1.0168125995   -2.0667156238    3.1689516896
H        0.6139855371    2.6865019070   -2.1748060197
H        1.1363855875    3.0072018873   -0.4937026117
H       -0.5899752011    3.1805233203   -0.9420155728
H        3.3768201610   -0.2833908968    1.4815153395
H        2.6171049063    0.1344268369   -0.0742335648
H        2.0209746230   -1.2626476300    0.8726874956
H       -0.4305591556   -1.1275147328   -0.6873993432
20   
torsion grid (75,)
C       -1.2188731743   -1.8433645654    1.0312711357
C       -1.6467965267   -1.4932747113    2.4392997434
C        0.3451483019    2.6333974575   -1.1099078526
C        2.3882091051   -0.2890769995    0.9420376789
N       -0.7472398963   -0.8035675848    0.2167908928
O       -1.2465759502   -2.9820190123    0.5897542828
O       -1.4940266201    1.6175561086    1.2178127577
O        0.1117275018    1.2248323609   -0.8569997808
P       -0.4095541042    0.8085304356    0.6165250157
S        1.2726926107    0.8278476331    1.8833548049
H       -2.5442068429   -2.0721829266    2.6673502567
H       -1.8440605150   -0.4321773355    2.5910009040
H       -0.8621609969   -1.8198873306    3.1288339748
H        0.6442491948    2.7030094953   -2.1552919909
H        1.1469345523    3.0041385869   -0.4645898027
H       -0.5709640710    3.2010204584   -0.9351328494
H        3.3218153940   -0.3368706274    1.5061893775
H        2.5878312457    0.1092851878   -0.0540619016
H        1.9616768636   -1.2909930442    0.8680271679
H       -0.4738913860   -1.1117634189   -0.7142278555
20   
torsion grid (90,)
C       -1.1010834555   -1.8986216884    1.0278811709
C       -1.4750536478   -1.5325245896    2.4462351460
C        0.3985354223    2.5785778284   -1.1570878342
C        2.5242381100   -0.2812756844    0.8837287050
N       -0.6136062803   -0.8684503824    0.2087930028
O       -1.1720726112   -3.0334087198    0.5817917062
O       -1.3935879748    1.5440782850    1.2012940956
O        0.1919638274    1.1679755692   -0.8923808840
P       -0.3014933707    0.7522062074    0.5907475158
S        1.3969213613    0.8158176576    1.8340415311
H       -2.2183463916   -2.2504674116    2.7950625062
H       -1.8579451327   -0.5148924115    2.5374001501
H       -0.5864675727   -1.6279254382    3.0794284418
H        0.6842620400    2.6462609618   -2.2063276888
H        1.2013041031    2.9671440743   -0.5235943190
H       -0.5249901905    3.1318140811   -0.9752901596
H        3.4642711843   -0.3100038627    1.4384369076
H        2.7057365755    0.1184382433   -0.1152675955
H        2.1155885738   -1.2910638540    0.8159235819
H       -0.3747584498   -1.1752586357   -0.7319454069
20   
torsion grid (105,)
C       -1.1404893648   -1.9199140075    0.9491118563
C       -1.5332117983   -1.5359816151    2.3570836033
C        0.4078903630    2.5519318891   -1.2084045049
C        2.5439474523   -0.3343897725    0.7732849836
N       -0.6093949076   -0.9021748029    0.1395965877
O       -1.2417895271   -3.0495455289    0.4965123428
O       -1.3620642778    1.5019025851    1.1627306121
O        0.1978700663    1.1397980969   -0.9547969305
P       -0.2810437043    0.7123912222    0.5300075775
S        1.4360657561    0.7598481529    1.7493809888
H       -2.1213027837   -2.3500857422    2.7808269270
H       -2.0952088151   -0.5999500916    2.3820720408
H       -0.6305071235   -1.3998892093    2.9625329443
H        0.6827917113    2.6284291989   -2.2599387103
H        1.2189503989    2.9313456924   -0.5799172473
H       -0.5112821741    3.1073211992   -1.0116780452
H        3.4916676055   -0.3731836459    1.3140995081
H        2.7128732249    0.0734415945   -0.2246110958
H        2.1286201220   -1.3412958209    0.7029533864
H       -0.3723303247   -1.2100645728   -0.8011230808
20   
torsion grid (120,)
C       -1.2778640355   -1.8602010644    0.9124020653
C       -1.6648230826   -1.4731714883    2.3203641884
C        0.4062838540    2.5834754860   -1.1903984891
C        2.4962536287   -0.3446682848    0.7638223612
N       -0.6673034263   -0.8650260399    0.1305092173
O       -1.4623119713   -2.9668689939    0.4306763833
O       -1.3853658895    1.5385195542    1.1748363351
O        0.1659429359    1.1740084896   -0.9499084032
P       -0.3156006031    0.7413488861    0.5326405148
S        1.4049623677    0.7586509117    1.7480658676
H       -2.1256205444   -2.3360448769    2.8000941359
H       -2.3557650071   -0.6260465472    2.3106743843
H       -0.7828238129   -1.1618237913    2.8896496639
H        0.6793531892    2.6643730158   -2.2420894043
H        1.2274431738    2.9388644913   -0.5609967540
H       -0.4998576804    3.1570376715   -0.9852975051
H        3.4458610563   -0.3958680805    1.3003004363
H        2.6655167801    0.0646959416   -0.2334152280
H        2.0684117690   -1.3461353585    0.6920619243
H       -0.4557572193   -1.1640933306   -0.8190337422
20   
torsion grid (135,)
C       -1.1841046810   -1.8996943536    0.9891200656
C       -1.5493384422   -1.5210844404    2.4054419827
C        0.4106929818    2.5514064237   -1.1445556981
C        2.5969618050   -0.3021208400    0.8159259603
N       -0.5551598403   -0.9148359180    0.2096820236
O       -1.4206204006   -2.9898938351    0.4931134209
O       -1.3326304323    1.4758774231    1.2433323802
O        0.2130140360    1.1378687229   -0.8904003061
P       -0.2455304951    0.7039121526    0.5995309731
S        1.4828437861    0.7771912146    1.8009486265
H       -1.8267592274   -2.4260368302    2.9451179644
H       -2.3932471054   -0.8247377809    2.3875143129
H       -0.7286802154   -1.0096745236    2.9159468877
H        0.6724884453    2.6311231020   -2.1992209565
H        1.2265713408    2.9355534634   -0.5252806451
H       -0.5097913060    3.1005654476   -0.9364455045
H        3.5523022537   -0.3213985062    1.3442908893
H        2.7453790581    0.1041687233   -0.1858616440
H        2.1966881247   -1.3155632519    0.7555624522
H       -0.3862133271   -1.2004852825   -0.7526058918
20   
torsion grid (150,)
C       -1.2723544735   -1.8296218747    0.9494882645
C       -1.6388391452   -1.4689343415    2.3705375018
C        0.4380471127    2.5885756237   -1.1628471578
C        2.5479791506   -0.3301649553    0.8008703906
N       -0.6126511216   -0.8538026975    0.1856312781
O       -1.5507634063   -2.9013316177    0.4348152607
O       -1.3308348581    1.5572666147    1.2222302730
O        0.2069200407    1.1799671453   -0.9097736026
P       -0.2638532182    0.7567389694    0.5796855897
S        1.4639748314    0.7819624848    1.7829703449
H       -1.7201597789   -2.3885381261    2.9504321426
H       -2.6126497794   -0.9690530969    2.3569562622
H       -0.9336727566   -0.7799730662    2.8387126928
H        0.6991012868    2.6632626636   -2.2180641348
H        1.2645762346    2.9519218740   -0.5451351860
H       -0.4682622591    3.1597361857   -0.9517183030
H        3.5006819427   -0.3785717639    1.3321078922
H        2.7114809190    0.0720058865   -0.2002300769
H        2.1170191638   -1.3307660246    0.7387094819
H       -0.4662515394   -1.1303338482   -0.7831221415
20   
torsion grid (165,)
C       -1.2217418304   -1.8368283466    0.8701863772
C       -1.5861899915   -1.4908993643    2.2966691187
C        0.5045339296    2.5629916643   -1.2848937281
C        2.5760421060   -0.3945115237    0.6613378594
N       -0.6027975851   -0.8492872698    0.0903920461
O       -1.4692517857   -2.9227656390    0.3688025467
O       -1.2525760917    1.5824540846    1.1299003100
O        0.2425587992    1.1613945054   -1.0232304773
P       -0.2141981496    0.7549349174    0.4752175446
S        1.5310726376    0.7458803754    1.6532625231
H       -1.3719905034   -2.3573450797    2.9247652277
H       -2.6644752961   -1.3066665342    2.3283818217
H       -1.0881093236   -0.6043549717    2.6878308955
H        0.7518461368    2.6276870742   -2.3440637051
H        1.3486672047    2.9079407876   -0.6805755552
H       -0.3843061447    3.1569705997   -1.0627323423
H        3.5366167447   -0.4573951547    1.1766713753
H        2.7306040623   -0.0031054541   -0.3454647896
H        2.1256762164   -1.3873731066    0.6142308708
H       -0.4484261748   -1.1369675641   -0.8739549968
20   
torsion grid (180,)
C       -1.2243753854   -1.7984597056    0.9021425089
C       -1.6297842972   -1.4528372756    2.3182415307
C        0.5287715062    2.6113093378   -1.2308992542
C        2.4897282543   -0.4447751601    0.7023165000
N       -0.6934283452   -0.7793176351    0.0992866274
O       -1.3478346568   -2.9210028797    0.4360648255
O       -1.2689197250    1.6640639156    1.1594395558
O        0.2269225443    1.2145633894   -0.9854944307
P       -0.2549687290    0.8071736037    0.5042155032
S        1.4776971803    0.7218811121    1.6983801630
H       -1.0844959586   -2.1115640400    2.9988754243
H       -2.6944044742   -1.6790414714    2.4225900801
H       -1.4621217182   -0.4134043472    2.5967175107
H        0.7866414500    2.6795802847   -2.2873028583
H        1.3769174495    2.9270866392   -0.6163206701
H       -0.3455068675    3.2267709234   -1.0097526484
H        3.4421324658   -0.5489152265    1.2260046551
H        2.6689823763   -0.0478505894   -0.2982363527
H        2.0057165687   -1.4209018625    0.6392184678
H       -0.4734514274   -1.0863039185   -0.8462359432
