23   
torsion grid (-165,)
C        1.5205584324    1.3273562520   -0.7641995986
C        1.4614938539    0.0976974213   -1.2890608757
C       -0.3042580521   -0.4723928060    0.2325799397
C        0.7867625791    1.6079303388    0.5264906749
C       -4.8725767048   -1.4709451233    1.9433730066
C       -1.3797467402   -1.4989813647    0.5114900824
C       -2.6325575309   -0.9216409369    1.1667467396
N       -0.3277863759    0.6823674518    0.7803834967
N        0.6998114761   -0.9042903428   -0.6536884731
N       -3.6338056275   -1.9779973191    1.3509500826
H        2.0807179918    2.1120163126   -1.2632316421
H        1.9595018579   -0.1950197992   -2.2081392112
H        1.4755407819    1.5554670335    1.3854423169
H        0.3859491756    2.6284661728    0.5305851718
H       -5.3585041072   -0.7885839640    1.2372322281
H       -4.7267528142   -0.9234049400    2.8916268748
H       -5.5591097287   -2.3037120563    2.1263357405
H       -0.9457958538   -2.2810092767    1.1513811203
H       -1.6712329519   -1.9981629229   -0.4212867515
H       -2.3613080978   -0.4098920237    2.1028502927
H       -3.0594247974   -0.1561194690    0.5103573961
H        0.4676511396   -1.7136975682   -1.2151591458
H       -3.2460778990   -2.6897109376    1.9688147193
23   
torsion grid (-150,)
C        1.4682891979    1.3574614291   -0.7724234902
C        1.3344260386    0.1696410958   -1.3741953977
C       -0.2684390388   -0.4967839119    0.2832581707
C        0.8774567642    1.5510977355    0.6049509301
C       -4.8866294220   -1.4662211169    1.8596326652
C       -1.3175135037   -1.5343700631    0.6236574626
C       -2.6282307430   -0.9303494495    1.1286280363
N       -0.2158752223    0.6161774878    0.9110739431
N        0.6233938865   -0.8676599081   -0.7374514195
N       -3.6000397813   -1.9942789967    1.4025908139
H        1.9870269661    2.1706691319   -1.2706670125
H        1.7289775884   -0.0603910324   -2.3589472004
H        1.6525108555    1.4357174263    1.3802537153
H        0.4927940658    2.5713041003    0.7212135836
H       -5.3574315410   -0.9048035865    1.0449827462
H       -4.8122110690   -0.7923090761    2.7316281874
H       -5.5520512030   -2.2958817110    2.1187146558
H       -0.8979767988   -2.2047213619    1.3867403101
H       -1.5343732349   -2.1618701098   -0.2488730125
H       -2.4260595705   -0.2875546811    1.9983164072
H       -3.0459760837   -0.2802759048    0.3513737256
H        0.3272187410   -1.6374619805   -1.3231398481
H       -3.2208171016   -2.5996272193    2.1295612860
23   
torsion grid (-135,)
C        0.4151192519    1.6094719619   -0.8388777923
C       -0.1620049117    0.7252505966   -1.6610968641
C       -0.5522334603   -0.7493348913    0.1921952884
C        0.7599490849    1.1870841471    0.5707048402
C       -3.9375361885   -2.6967871244    3.2623591420
C       -1.3034887747   -1.9851519790    0.6437736369
C       -2.2777449664   -1.6973951451    1.7895520542
N       -0.0300715697    0.0430496237    1.0498864194
N       -0.4688920442   -0.5704683729   -1.1980202064
N       -2.9774709635   -2.9244707235    2.1809813675
H        0.6267235623    2.6183168917   -1.1797678652
H       -0.4378635261    0.9404026088   -2.6887010306
H        1.8272613577    0.9221880235    0.6466737980
H        0.6117756075    2.0183112447    1.2705525856
H       -4.7489177136   -2.0570367791    2.8976479053
H       -3.5033025970   -2.2116839657    4.1545818408
H       -4.3790350600   -3.6509304420    3.5670503589
H       -0.5676540358   -2.7318126680    0.9687212056
H       -1.8562719122   -2.4339218783   -0.1889843761
H       -1.7313117252   -1.2206512137    2.6172389477
H       -3.0290789930   -0.9741514147    1.4494221464
H       -1.1226280107   -1.1069989097   -1.7528584467
H       -2.2859760941   -3.6033590359    2.4966068669
23   
torsion grid (-120,)
C        0.3473907178    1.6237334349   -0.8015119059
C       -0.3288439013    0.7781885437   -1.5883716504
C       -0.4761587935   -0.7914401910    0.2198281622
C        0.8747107713    1.1299281494    0.5262154132
C       -3.9935726587   -2.6632229937    3.1727006830
C       -1.1869771553   -2.0349188468    0.7114366624
C       -2.2664832353   -1.7059317383    1.7496168871
N        0.1518383724   -0.0416729897    1.0441449378
N       -0.5696008631   -0.5427801802   -1.1586695187
N       -2.9405824159   -2.9292256587    2.1910863832
H        0.5113316296    2.6508054312   -1.1130316557
H       -0.7353965173    1.0440715509   -2.5591146767
H        1.9420987707    0.8665202422    0.4459146613
H        0.8221235427    1.9225482477    1.2822070915
H       -4.7995876129   -2.0954551289    2.6945392805
H       -3.6538476590   -2.0879082728    4.0521502348
H       -4.4169693794   -3.6105848344    3.5209978911
H       -0.4407116449   -2.6984497174    1.1631417509
H       -1.6426267804   -2.5846715561   -0.1189824128
H       -1.8063455371   -1.1372210883    2.5726753465
H       -3.0212209202   -1.0517871499    1.2946354316
H       -1.2828652609   -1.0600792624   -1.6554618322
H       -2.2469465441   -3.5443803145    2.6142356589
23   
torsion grid (-105,)
C        0.2646802818    1.6352344018   -0.7764267811
C       -0.5149682005    0.8188715218   -1.4957303001
C       -0.4206599185   -0.8159710483    0.2559512731
C        0.9732795201    1.0871238680    0.4412063650
C       -4.0767702603   -2.6125611902    3.0718759863
C       -1.0974749046   -2.0542114051    0.7994969524
C       -2.2753343985   -1.6950818774    1.7160234146
N        0.3167076922   -0.0980123695    1.0151811546
N       -0.6911116320   -0.5200106302   -1.0903020402
N       -2.9446860138   -2.9069999842    2.1916841619
H        0.3817809496    2.6759860897   -1.0624520422
H       -1.0541822377    1.1216436290   -2.3878875706
H        2.0136271478    0.8177083117    0.1959811956
H        1.0418676408    1.8502901143    1.2254526049
H       -4.8615981652   -2.1085309370    2.4967805566
H       -3.8224762152   -1.9665318819    3.9308112562
H       -4.4955928291   -3.5485407592    3.4545494014
H       -0.3565966292   -2.6245447779    1.3685057406
H       -1.4541537458   -2.6970596808   -0.0125221254
H       -1.9055897062   -1.0515553550    2.5308754438
H       -3.0112785412   -1.1045510399    1.1546394449
H       -1.4626711212   -1.0239007521   -1.5079164824
H       -2.2673312890   -3.4691006604    2.7051417045
23   
torsion grid (-90,)
C        0.2328184084    1.6396864456   -0.7453742215
C       -0.6535233948    0.8589419969   -1.3752963684
C       -0.3603258662   -0.8280838902    0.3029771592
C        1.0912465833    1.0378549542    0.3437015192
C       -4.1299404589   -2.6207119731    2.9698949434
C       -1.0069992728   -2.0556646029    0.8989546703
C       -2.2791512061   -1.7014720314    1.6829106268
N        0.4870160333   -0.1463964495    0.9760316034
N       -0.7960415921   -0.4895022443   -0.9895341426
N       -2.9217479250   -2.9118439655    2.1963354733
H        0.3285230462    2.6881250819   -1.0102432185
H       -1.3054219498    1.1987906142   -2.1740114542
H        2.0769130228    0.7471962823   -0.0549374129
H        1.2940742311    1.7749662779    1.1293773818
H       -4.8935872155   -2.2007028820    2.3056444335
H       -3.9731165543   -1.9049916819    3.7963094370
H       -4.5292256439   -3.5500639168    3.3877982909
H       -0.2817446120   -2.5230224109    1.5706486881
H       -1.2561741804   -2.7815907040    0.1165624913
H       -2.0179646032   -0.9789346768    2.4747296718
H       -2.9972254021   -1.1981221004    1.0218662403
H       -1.6222185065   -0.9720180003   -1.3189245588
H       -2.2578534359   -3.4008594570    2.7949253760
23   
torsion grid (-75,)
C        0.6587131671    1.4150642040   -1.0688461670
C       -0.4631247065    0.8579764136   -1.5400939510
C       -0.4349622463   -0.7266023207    0.2607820334
C        1.1383193666    1.0403665946    0.3145804210
C       -3.9899171903   -2.8459101294    2.9927343876
C       -1.0394688470   -2.0135022177    0.7673032204
C       -2.2564150020   -1.7624831109    1.6702510099
N        0.6442873774   -0.2678717860    0.7725667747
N       -1.1617222431   -0.0855483778   -0.7587796616
N       -2.8340829542   -3.0313810297    2.1140640597
H        1.2185370805    2.1204505105   -1.6751283845
H       -0.8836346824    1.0707329273   -2.5179500381
H        2.2338535637    1.0202523747    0.3525023536
H        0.8288884022    1.7987554252    1.0523921477
H       -4.8073495298   -2.3874649198    2.4250091584
H       -3.7897566880   -2.2054640939    3.8700636246
H       -4.3388853290   -3.8204171911    3.3481726960
H       -0.2611091074   -2.5355049311    1.3294668114
H       -1.3457557876   -2.6589179000   -0.0652744723
H       -1.9524622759   -1.1092416085    2.5075281472
H       -3.0298300663   -1.2188825701    1.1138084508
H       -1.8289065361   -0.6673114462   -1.2496446213
H       -2.1190259758   -3.5555627906    2.6160572948
23   
torsion grid (-60,)
C        0.6267061000    1.4027705701   -1.1191834612
C       -0.5736851277    0.9086156131   -1.4435554660
C       -0.3943800587   -0.7001779581    0.3261395477
C        1.2581714230    0.9884402754    0.1896212688
C       -4.0468523707   -2.8987291724    2.8901954297
C       -0.9777695097   -1.9807086396    0.8729291632
C       -2.2926541836   -1.7675031431    1.6360429581
N        0.7614039126   -0.2990571953    0.7004347491
N       -1.2157863951   -0.0053068528   -0.5812928308
N       -2.8102670294   -3.0465153067    2.1216184555
H        1.1396634928    2.0861863926   -1.7888205582
H       -1.1057727369    1.1540832340   -2.3573069891
H        2.3473049236    0.9142010608    0.0883030937
H        1.0827034298    1.7522487842    0.9647728971
H       -4.8454862312   -2.5447649143    2.2286119272
H       -3.9701659868   -2.1894787524    3.7334551496
H       -4.3507778231   -3.8733735741    3.2843147866
H       -0.2236757359   -2.4162689818    1.5327768068
H       -1.1601323311   -2.6936215897    0.0582953399
H       -2.1281097488   -1.0331980008    2.4455389295
H       -3.0526454747   -1.3326443739    0.9751958365
H       -1.9649238350   -0.5490864319   -0.9915026030
H       -2.1032245495   -3.4808177386    2.7125937250
23   
torsion grid (-45,)
C        0.6158624803    1.3903291564   -1.1595864819
C       -0.6432571892    0.9754659274   -1.3399610691
C       -0.3568271327   -0.6672779201    0.3841685477
C        1.3736887082    0.9174643127    0.0590165531
C       -4.0834063617   -2.9560229218    2.8030151904
C       -0.9302617831   -1.9326489366    0.9818292311
C       -2.3271478640   -1.7767050081    1.5958114757
N        0.8560515990   -0.3383492622    0.6243240294
N       -1.2333614998    0.0872858085   -0.4158069971
N       -2.7749670397   -3.0514392677    2.1553750428
H        1.0847610762    2.0543000886   -1.8793121281
H       -1.2655361781    1.2691457019   -2.1795061703
H        2.4343420017    0.7700610254   -0.1766997683
H        1.3493052548    1.6825344124    0.8521540447
H       -4.8473954147   -2.7375541565    2.0483290435
H       -4.1447506193   -2.1730062765    3.5796999178
H       -4.3356798745   -3.9176678512    3.2602630109
H       -0.2171788818   -2.2713505418    1.7372320430
H       -0.9792044882   -2.7120019732    0.2101319750
H       -2.3158096392   -0.9597252733    2.3406195877
H       -3.0591026818   -1.4853770578    0.8315079118
H       -2.0615752107   -0.3976782546   -0.7366019629
H       -2.0882811211   -3.3683752930    2.8375877958
23   
torsion grid (-30,)
C        0.5790390875    1.3905312041   -1.1794510964
C       -0.7155287054    1.0552694425   -1.2194761704
C       -0.3384634549   -0.6334641318    0.4419530966
C        1.4412515667    0.8488728479   -0.0631943641
C       -4.1142789586   -3.0227001841    2.7231653547
C       -0.9009954038   -1.8824463094    1.0915551571
C       -2.3576325731   -1.8000116812    1.5603285897
N        0.9107146806   -0.3791880243    0.5479437991
N       -1.2503634818    0.1839611896   -0.2471349578
N       -2.7471623115   -3.0539351473    2.2035834633
H        1.0025223340    2.0386102678   -1.9407206213
H       -1.4100341199    1.4024183769   -1.9781172725
H        2.4547427350    0.6368543154   -0.4245609790
H        1.5621149978    1.6009969325    0.7334709327
H       -4.8192375245   -2.9485158238    1.8873975414
H       -4.3156320718   -2.1803066065    3.4088088708
H       -4.3254690777   -3.9572602143    3.2516580514
H       -0.2442273642   -2.1185199028    1.9327268950
H       -0.8153427008   -2.7167160751    0.3843584550
H       -2.4947995807   -0.9206519496    2.2164657353
H       -3.0344482293   -1.6601947221    0.7061854922
H       -2.1421454612   -0.2361217598   -0.4726242225
H       -2.1030965922   -3.2430376441    2.9694903395
23   
torsion grid (-15,)
C        1.8707092479    0.8552345704   -0.4624270057
C        1.4644604281    0.2056903323    0.6347180203
C       -0.8110238246    0.3474642109   -0.1110034544
C        0.8370418349    1.5321576532   -1.3326034927
C       -4.1753554506   -2.5343356298    2.2787106669
C       -2.2310019212   -0.1627379535    0.0682887911
C       -2.4747620968   -1.1632389229    1.2006242114
N       -0.5062463239    0.9492851298   -1.1982217797
N        0.0908656313    0.1309541351    0.9424720925
N       -3.8843420711   -1.5459163462    1.2408229715
H        2.9238704309    0.8872137560   -0.7243064921
H        2.1320651050   -0.3045268782    1.3220525496
H        0.7733158093    2.6070848986   -1.0960947010
H        1.1255132755    1.4778126735   -2.3890069651
H       -4.0146869783   -2.0838465953    3.2645809229
H       -3.5535963400   -3.4458284861    2.2192630784
H       -5.2272246917   -2.8292444517    2.2173171834
H       -2.5286595573   -0.5963001487   -0.8912486575
H       -2.8848196888    0.7009534162    0.2282370002
H       -1.8065745523   -2.0402895709    1.0868963631
H       -2.2388455546   -0.7028127877    2.1696639670
H       -0.1743778560   -0.5537368064    1.6362110857
H       -4.1486006034   -1.9243430151    0.3330160416
23   
torsion grid (0,)
C        1.8776837069    0.8962882840   -0.4518725924
C        1.5013215194    0.1121055124    0.5648932999
C       -0.7862049968    0.2845577287   -0.1365663179
C        0.8193221423    1.6416047770   -1.2315430133
C       -4.2227803822   -2.4426340844    2.3353452258
C       -2.1908953884   -0.2858302524   -0.0118612151
C       -2.4836617763   -1.1633996276    1.2074830855
N       -0.5124641110    1.0255078357   -1.1423039441
N        0.1337081421   -0.0365953016    0.8744585285
N       -3.8901197694   -1.5581507416    1.2192284405
H        2.9273252689    0.9903973295   -0.7131876474
H        2.1907965200   -0.4536813482    1.1837870551
H        0.7412887432    2.6840843883   -0.8815142501
H        1.0931298105    1.7058029960   -2.2914996334
H       -4.1098444139   -1.8957998152    3.2780462622
H       -3.5933669836   -3.3490679199    2.3941954103
H       -5.2688712773   -2.7533391697    2.2559597465
H       -2.3892617634   -0.8495347589   -0.9304326942
H       -2.8920533267    0.5529608877   -0.0133606360
H       -1.8097795357   -2.0445888850    1.2198031575
H       -2.2917532467   -0.6008080727    2.1302913760
H       -0.1042384197   -0.8170405820    1.4707346244
H       -4.1091631575   -2.0267550204    0.3418836954
23   
torsion grid (15,)
C        1.8643607860    0.9476298589   -0.4607853990
C        1.5302929791    0.0416366678    0.4654637187
C       -0.7765991157    0.2367805250   -0.1620191286
C        0.7707696609    1.7539657283   -1.1220938026
C       -4.2701565134   -2.3453704476    2.3719697840
C       -2.1544972321   -0.3996413338   -0.0838978898
C       -2.4971849488   -1.1491189075    1.2069855630
N       -0.5474012765    1.1042063659   -1.0730535144
N        0.1741572605   -0.1739894733    0.7870097057
N       -3.8936719911   -1.5763933931    1.1865382921
H        2.9045242757    1.0950885404   -0.7350920404
H        2.2469763332   -0.5760888724    0.9977131149
H        0.6812102775    2.7462652301   -0.6505915941
H        1.0146777145    1.9478480450   -2.1735711689
H       -4.2191118333   -1.6988795144    3.2549901399
H       -3.6277945725   -3.2246597834    2.5609115895
H       -5.3042422076   -2.6885213509    2.2715986695
H       -2.2475352698   -1.0856501711   -0.9359735513
H       -2.8909847561    0.3901095637   -0.2444180833
H       -1.8119192196   -2.0098148641    1.3520303651
H       -2.3609153455   -0.4879687813    2.0717184802
H       -0.0338293942   -1.0251295759    1.2913748805
H       -4.0563329578   -2.1397590085    0.3537274095
23   
torsion grid (30,)
C        1.8611220391    0.9836501913   -0.4498662566
C        1.5776652651   -0.0341067063    0.3711825681
C       -0.7530513880    0.1777237624   -0.1574821959
C        0.7292956599    1.8369094702   -0.9734300504
C       -4.3080294512   -2.2594998897    2.4107062357
C       -2.1024768342   -0.5126680762   -0.1162196128
C       -2.5044920347   -1.1264576280    1.2296125683
N       -0.5745211823    1.1561828579   -0.9614852445
N        0.2375726914   -0.3174180919    0.7076531937
N       -3.8803058723   -1.6135065850    1.1704969570
H        2.8879186650    1.1887967518   -0.7370421807
H        2.3245322227   -0.6932647700    0.8026576584
H        0.6356409914    2.7624772531   -0.3823336241
H        0.9322247725    2.1621484496   -2.0008397182
H       -4.3386127971   -1.5161129091    3.2148120708
H       -3.6490205083   -3.0836493831    2.7395078957
H       -5.3204227982   -2.6555085052    2.2862623629
H       -2.1020931759   -1.3011172823   -0.8827367817
H       -2.8520472162    0.2192799844   -0.4198442919
H       -1.8013482347   -1.9332899089    1.5206038793
H       -2.4471899610   -0.3655876466    2.0172842161
H        0.0616036630   -1.2262757544    1.1145990651
H       -3.9662884759   -2.2739279607    0.3997864706
23   
torsion grid (45,)
C        1.8556043416    1.0152939141   -0.4691890469
C        1.6251041322   -0.1020762750    0.2299218644
C       -0.7282183428    0.1164172796   -0.1843346121
C        0.6865930523    1.9003352680   -0.8343817997
C       -4.3427913558   -2.1482639969    2.4223013991
C       -2.0500033324   -0.6189235766   -0.1708110243
C       -2.5167125979   -1.0798668593    1.2163461329
N       -0.6004561392    1.1881929211   -0.8710147147
N        0.3047948087   -0.4513908539    0.5829427382
N       -3.8576569782   -1.6544781756    1.1340524685
H        2.8648489246    1.2772353957   -0.7716359315
H        2.4002143771   -0.7941016074    0.5441114686
H        0.5930575867    2.7345230798   -0.1200415832
H        0.8433388145    2.3659694177   -1.8144715271
H       -4.4725085067   -1.3041362446    3.1083891676
H       -3.6680112412   -2.8760016776    2.9088619944
H       -5.3209149221   -2.6201586103    2.2881448374
H       -1.9694790883   -1.4960495656   -0.8307373188
H       -2.7973433201    0.0452173458   -0.6057842109
H       -1.7917214880   -1.7903187269    1.6601433000
H       -2.5560230448   -0.2183479426    1.8935422843
H        0.1605762376   -1.4068880682    0.8821672701
H       -3.8504322394   -2.4199774443    0.4620645837
23   
torsion grid (60,)
C        1.8327210919    1.0517779200   -0.4559428184
C        1.6634379996   -0.1565897645    0.0933557319
C       -0.7098790146    0.0392896659   -0.1983673723
C        0.6250965375    1.9391961327   -0.6503034447
C       -4.3907463741   -2.0351062892    2.4312976294
C       -2.0060354286   -0.7357584380   -0.2086059210
C       -2.5411494672   -1.0420994146    1.1977641707
N       -0.6405255945    1.1943847116   -0.7435843260
N        0.3693341571   -0.5910427287    0.4500167055
N       -3.8369630710   -1.7139839356    1.1160342997
H        2.8198819011    1.3845278512   -0.7614370489
H        2.4696697854   -0.8593392782    0.2791927124
H        0.5354449493    2.6602391473    0.1786068048
H        0.7294056188    2.5432591296   -1.5590602065
H       -4.6227598226   -1.1059053939    2.9630833073
H       -3.7142502803   -2.6290136744    3.0724836625
H       -5.3261691081   -2.5896809170    2.3086971280
H       -1.8616988269   -1.6798276806   -0.7556062077
H       -2.7411591919   -0.1450845024   -0.7558016046
H       -1.8008946817   -1.6264297306    1.7769217361
H       -2.6798855069   -0.0986737954    1.7387215697
H        0.2623303976   -1.5846648683    0.6100492164
H       -3.7314245090   -2.5732173427    0.5791295170
23   
torsion grid (75,)
C        1.7987615164    1.1181696912   -0.4640896356
C        1.7051988921   -0.1594699022   -0.0770891308
C       -0.6865615084   -0.0300581241   -0.2214062537
C        0.5502086568    1.9696638730   -0.4843730894
C       -4.4318115665   -1.9098959946    2.4323820092
C       -1.9600784524   -0.8413826172   -0.2341768977
C       -2.5595019203   -0.9973801956    1.1715663504
N       -0.6898903785    1.1881298734   -0.6115173450
N        0.4494884059   -0.6972192637    0.2741750211
N       -3.8103124470   -1.7534436286    1.1170767352
H        2.7558887935    1.5329064628   -0.7648324961
H        2.5470170783   -0.8429066888   -0.0257507383
H        0.4783626086    2.5764607506    0.4331606895
H        0.5837392450    2.6873195928   -1.3123758693
H       -4.7485262194   -0.9285220887    2.8019299361
H       -3.7681572358   -2.3575612915    3.1942160071
H       -5.3256895411   -2.5349216728    2.3422946306
H       -1.7700849467   -1.8353724243   -0.6651461550
H       -2.6796724149   -0.3306348928   -0.8749671194
H       -1.8175284445   -1.4514279023    1.8550388312
H       -2.7803693238   -0.0000354398    1.5684444913
H        0.3867912204   -1.7069945220    0.2969807011
H       -3.6223118359   -2.6755560202    0.7270080050
23   
torsion grid (90,)
C        1.7983332913    1.1388268875   -0.4564594793
C        1.7697941925   -0.1800371425   -0.2313719775
C       -0.6293620277   -0.1272400668   -0.2121590815
C        0.5245170922    1.9386275715   -0.3074829209
C       -4.4776554038   -1.7934624662    2.4182567732
C       -1.8859012752   -0.9668522304   -0.2208843847
C       -2.5590061693   -0.9807915920    1.1593940447
N       -0.6956897759    1.1289621148   -0.4431396048
N        0.5561739393   -0.8105010520    0.1126588976
N       -3.7754710990   -1.7929531003    1.1342927706
H        2.7237590295    1.6253545825   -0.7490613560
H        2.6364814438   -0.8287648525   -0.3111746642
H        0.4935259903    2.4424808309    0.6725380139
H        0.4825053572    2.7412565082   -1.0533887709
H       -4.8541418072   -0.7857610734    2.6248548807
H       -3.8505555869   -2.1001213594    3.2748382445
H       -5.3399093412   -2.4653382797    2.3631155571
H       -1.6597909174   -1.9962295565   -0.5325322595
H       -2.5802254963   -0.5427186818   -0.9479949299
H       -1.8368641555   -1.3163805275    1.9273363886
H       -2.8373398189    0.0470088294    1.4155638465
H        0.5266169186   -1.8157525666    0.0031150281
H       -3.5276115005   -2.7511963713    0.8930744267
23   
torsion grid (105,)
C        1.7604268496    1.1695992563   -0.4956562561
C        1.7927487914   -0.1652013766   -0.4044180981
C       -0.5950106528   -0.2099628716   -0.1736713695
C        0.4808970058    1.9003342625   -0.1587716292
C       -4.5565785024   -1.7042458302    2.3867648255
C       -1.8267239164   -1.0887984591   -0.1675060641
C       -2.5830597014   -0.9762760045    1.1626570906
N       -0.7202188687    1.0591900482   -0.2683684375
N        0.6341344329   -0.8744863373   -0.0267366097
N       -3.7771389362   -1.8213771057    1.1537119430
H        2.6411762586    1.7185416519   -0.8147232384
H        2.6685252151   -0.7679060369   -0.6237265522
H        0.5228635208    2.3063306285    0.8652681648
H        0.3477275727    2.7686684255   -0.8151108307
H       -4.9665748525   -0.6911687182    2.4603389019
H       -3.9764399888   -1.8995653593    3.3066910150
H       -5.3990001145   -2.4023347381    2.3547224853
H       -1.5541730715   -2.1369397821   -0.3506249339
H       -2.4899159916   -0.7739240991   -0.9762335097
H       -1.8993778087   -1.2097444427    2.0006490693
H       -2.8957810714    0.0648478860    1.2899843295
H        0.6273421064   -1.8658325765   -0.2268157680
H       -3.4935116920   -2.7925771932    1.0343635030
23   
torsion grid (120,)
C        1.7291546069    1.2133096930   -0.5596828414
C        1.8041582417   -0.1226546436   -0.5866366225
C       -0.5416238443   -0.2672411316   -0.1045249105
C        0.4786289339    1.8688380859   -0.0203309496
C       -4.6338681460   -1.6322937540    2.3323527189
C       -1.7439546779   -1.1882094950   -0.0737519324
C       -2.5910228519   -0.9733313200    1.1852005842
N       -0.7066164928    1.0002913971   -0.0748586737
N        0.7128524634   -0.8982664680   -0.1436297441
N       -3.7654560364   -1.8460180152    1.1739263537
H        2.5533799558    1.8162922444   -0.9283216069
H        2.6635225910   -0.6760204203   -0.9521842788
H        0.6251696925    2.1844201113    1.0256253560
H        0.2526687865    2.7862965824   -0.5767786054
H       -5.0657583213   -0.6270624458    2.2795571980
H       -4.1183285690   -1.7256324408    3.3051975417
H       -5.4593694353   -2.3507332191    2.3085652974
H       -1.4210387749   -2.2364100041   -0.1257059969
H       -2.3659519434   -0.9957360927   -0.9526397553
H       -1.9604239300   -1.1136799157    2.0832303301
H       -2.9286234631    0.0669872413    1.1963367772
H        0.7095237489   -1.8710781880   -0.4206194316
H       -3.4561194939   -2.8167504838    1.1701797804
23   
torsion grid (135,)
C        1.6915887906    1.2563277144   -0.6258758165
C        1.7828990470   -0.0720970477   -0.7608073315
C       -0.4884999588   -0.3059380594   -0.0255792627
C        0.5056018423    1.8388862625    0.1076817781
C       -4.7078931308   -1.5813006027    2.2563754190
C       -1.6624928610   -1.2613759768    0.0350745971
C       -2.6056714300   -0.9567575752    1.2011913682
N       -0.6670876814    0.9513779718    0.1203675230
N        0.7646043453   -0.9021676892   -0.2475763375
N       -3.7477002738   -1.8723666862    1.1909700090
H        2.4552938646    1.9045613636   -1.0445665203
H        2.5998097846   -0.5775449497   -1.2663318617
H        0.7703554690    2.0718604059    1.1519704824
H        0.2039453215    2.7928017600   -0.3409829226
H       -5.1660921160   -0.6034990242    2.0725704349
H       -4.2648491163   -1.5593174911    3.2683439542
H       -5.5060454087   -2.3303592387    2.2449555117
H       -1.2939166003   -2.2925064547    0.1212006841
H       -2.2267225886   -1.2016346002   -0.9019163268
H       -2.0383380744   -0.9859949543    2.1497206284
H       -2.9754640723    0.0660372351    1.0899296534
H        0.7446585230   -1.8541203482   -0.5899094927
H       -3.4081884102   -2.8259022899    1.3077424598
23   
torsion grid (150,)
C        1.6573511191    1.2525360604   -0.6921812763
C        1.7325952226   -0.0629966769   -0.9273493707
C       -0.4316098682   -0.3652454665    0.0593069441
C        0.5779919485    1.7658901943    0.2324596566
C       -4.7766727943   -1.5334327044    2.1746710962
C       -1.5851077390   -1.3396522266    0.1600431939
C       -2.6192345526   -0.9457280823    1.2142542173
N       -0.5918731578    0.8772436608    0.3116477928
N        0.7917957860   -0.9344651595   -0.3393028247
N       -3.7308799640   -1.8994613963    1.2185472031
H        2.3544773395    1.9373928614   -1.1649204669
H        2.4750316958   -0.5254727024   -1.5702286150
H        0.9728112025    1.9023387341    1.2524712968
H        0.2313153998    2.7554094375   -0.0872083539
H       -5.2460189330   -0.5965315952    1.8555769209
H       -4.4123647487   -1.3908485868    3.2079631068
H       -5.5510964332   -2.3070567648    2.1849878039
H       -1.1874641671   -2.3384995546    0.3885728886
H       -2.0812816103   -1.4163138831   -0.8151261571
H       -2.1247013823   -0.8538063483    2.1977553026
H       -3.0101969991    0.0457421843    0.9714829559
H        0.7320673764   -1.8635552008   -0.7368367256
H       -3.3735230440   -2.8218998014    1.4628486822
23   
torsion grid (165,)
C        1.6053685978    1.2803549525   -0.7371429039
C        1.6543325967   -0.0146394055   -1.0723630768
C       -0.3835725450   -0.4042394984    0.1286169738
C        0.6390645157    1.7160574623    0.3398021338
C       -4.8220373200   -1.5081502490    2.0922256685
C       -1.5111834967   -1.3997275076    0.2799097457
C       -2.6275066445   -0.9326741314    1.2109860255
N       -0.5159038729    0.8158481427    0.4844567090
N        0.7890334290   -0.9336914329   -0.4429786621
N       -3.6993161946   -1.9315194474    1.2541947039
H        2.2422838370    2.0036730833   -1.2366309471
H        2.3178358672   -0.4235307151   -1.8280036077
H        1.1470263326    1.7781200427    1.3160518328
H        0.2595267340    2.7240941037    0.1368974591
H       -5.3065432524   -0.6384923084    1.6350845566
H       -4.5351710778   -1.2289888332    3.1219623812
H       -5.5631375183   -2.3120547941    2.1456687760
H       -1.0896996016   -2.3467697123    0.6473277844
H       -1.9388251466   -1.6167594458   -0.7074693668
H       -2.2080172320   -0.7035100645    2.2055198723
H       -3.0413209861    0.0049240137    0.8301603714
H        0.6848721180   -1.8330695374   -0.8962485206
H       -3.3234458948   -2.8014550642    1.6287920737
23   
torsion grid (180,)
C        1.5596236789    1.3006237708   -0.7567003612
C        1.5638335486    0.0334938047   -1.1878888316
C       -0.3404114336   -0.4447077388    0.1887220660
C        0.7089836471    1.6593091040    0.4395050171
C       -4.8554042473   -1.4820682557    2.0144168855
C       -1.4431733167   -1.4563342005    0.4014447897
C       -2.6318854283   -0.9243719321    1.1975415687
N       -0.4273065455    0.7468891922    0.6421637981
N        0.7590325300   -0.9297478553   -0.5451543886
N       -3.6707331472   -1.9549272264    1.2965711116
H        2.1510513404    2.0571209151   -1.2629251387
H        2.1455672539   -0.3191818566   -2.0338342657
H        1.3137561671    1.6599404947    1.3610409161
H        0.3126195765    2.6767745049    0.3433979975
H       -5.3403355370   -0.6917733441    1.4309343512
H       -4.6402697558   -1.0732675785    3.0179269312
H       -5.5713355312   -2.3032425432    2.1214687808
H       -1.0105737748   -2.3318494283    0.9077052481
H       -1.8033987202   -1.8154704148   -0.5714886007
H       -2.2891966252   -0.5571119716    2.1784766638
H       -3.0528596107   -0.0588541149    0.6774423583
H        0.5965056368   -1.7888029051   -1.0556531705
H       -3.2886925155   -2.7580917409    1.7940657698
