
  -OEChem-05262117483D

 45 47  0     0  0  0  0  0  0999 V2000
    4.3913   -7.3562   -6.1521 C   0  0  0  0  0  0  0  0  0  0  0  0
    3.5860   -7.9166   -5.1548 C   0  0  0  0  0  0  0  0  0  0  0  0
    4.0752   -6.0920   -6.6609 C   0  0  0  0  0  0  0  0  0  0  0  0
    2.4763   -7.2193   -4.6729 C   0  0  0  0  0  0  0  0  0  0  0  0
    2.9653   -5.3958   -6.1776 C   0  0  0  0  0  0  0  0  0  0  0  0
    0.1599   -4.4407   -5.5190 C   0  0  0  0  0  0  0  0  0  0  0  0
    0.6139   -5.2459   -3.3069 C   0  0  0  0  0  0  0  0  0  0  0  0
   -0.9453   -3.7427   -5.0343 C   0  0  0  0  0  0  0  0  0  0  0  0
   -0.4942   -4.5444   -2.8275 C   0  0  0  0  0  0  0  0  0  0  0  0
    2.1471   -5.9479   -5.1759 C   0  0  0  0  0  0  0  0  0  0  0  0
    0.9684   -5.2085   -4.6641 C   0  0  0  0  0  0  0  0  0  0  0  0
   -1.3010   -3.7676   -3.6746 C   0  0  0  0  0  0  0  0  0  0  0  0
   -4.4545   -5.7337   -1.9473 C   0  0  0  0  0  0  0  0  0  0  0  0
   -1.7013   -0.4627   -1.9413 C   0  0  0  0  0  0  0  0  0  0  0  0
   -1.7255   -0.6653   -3.4624 C   0  0  0  0  0  0  0  0  0  0  0  0
   -1.5268   -1.7991   -1.2071 C   0  0  0  0  0  0  0  0  0  0  0  0
   -2.7883   -1.6959   -3.8640 C   0  0  0  0  0  0  0  0  0  0  0  0
   -2.5798   -2.8239   -1.6531 C   0  0  0  0  0  0  0  0  0  0  0  0
   -2.5758   -3.0687   -3.1799 C   0  0  0  0  0  0  0  0  0  0  0  0
   -3.7812   -3.9707   -3.5626 C   0  0  0  0  0  0  0  0  0  0  0  0
   -3.7117   -5.3159   -3.0106 N   0  0  0  0  0  0  0  0  0  0  0  0
   -5.3033   -5.0679   -1.3653 O   0  0  0  0  0  0  0  0  0  0  0  0
    5.2551   -7.8980   -6.5279 H   0  0  0  0  0  0  0  0  0  0  0  0
    3.8171   -8.9021   -4.7584 H   0  0  0  0  0  0  0  0  0  0  0  0
    4.6999   -5.6427   -7.4288 H   0  0  0  0  0  0  0  0  0  0  0  0
    1.8432   -7.6768   -3.9173 H   0  0  0  0  0  0  0  0  0  0  0  0
    2.7468   -4.4025   -6.5606 H   0  0  0  0  0  0  0  0  0  0  0  0
    0.3816   -4.4105   -6.5826 H   0  0  0  0  0  0  0  0  0  0  0  0
    1.2280   -5.8066   -2.6070 H   0  0  0  0  0  0  0  0  0  0  0  0
   -1.5430   -3.1771   -5.7425 H   0  0  0  0  0  0  0  0  0  0  0  0
   -0.7152   -4.6009   -1.7676 H   0  0  0  0  0  0  0  0  0  0  0  0
   -4.2137   -6.7749   -1.6576 H   0  0  0  0  0  0  0  0  0  0  0  0
   -2.6458    0.0020   -1.6262 H   0  0  0  0  0  0  0  0  0  0  0  0
   -0.9001    0.2317   -1.6626 H   0  0  0  0  0  0  0  0  0  0  0  0
   -1.9268    0.2862   -3.9684 H   0  0  0  0  0  0  0  0  0  0  0  0
   -0.7397   -1.0032   -3.8052 H   0  0  0  0  0  0  0  0  0  0  0  0
   -0.5194   -2.1861   -1.4003 H   0  0  0  0  0  0  0  0  0  0  0  0
   -1.6024   -1.6480   -0.1239 H   0  0  0  0  0  0  0  0  0  0  0  0
   -3.7766   -1.3235   -3.5633 H   0  0  0  0  0  0  0  0  0  0  0  0
   -2.8269   -1.7994   -4.9531 H   0  0  0  0  0  0  0  0  0  0  0  0
   -2.4647   -3.7621   -1.1037 H   0  0  0  0  0  0  0  0  0  0  0  0
   -3.5758   -2.4541   -1.3825 H   0  0  0  0  0  0  0  0  0  0  0  0
   -3.8489   -4.0422   -4.6540 H   0  0  0  0  0  0  0  0  0  0  0  0
   -4.7070   -3.5260   -3.1923 H   0  0  0  0  0  0  0  0  0  0  0  0
   -2.9837   -5.9329   -3.3494 H   0  0  0  0  0  0  0  0  0  0  0  0
  1  2  1  0  0  0  0
  1  3  2  0  0  0  0
  1 23  1  0  0  0  0
  2  4  2  0  0  0  0
  2 24  1  0  0  0  0
  3  5  1  0  0  0  0
  3 25  1  0  0  0  0
  4 10  1  0  0  0  0
  4 26  1  0  0  0  0
  5 10  2  0  0  0  0
  5 27  1  0  0  0  0
  6  8  2  0  0  0  0
  6 11  1  0  0  0  0
  6 28  1  0  0  0  0
  7  9  1  0  0  0  0
  7 11  2  0  0  0  0
  7 29  1  0  0  0  0
  8 12  1  0  0  0  0
  8 30  1  0  0  0  0
  9 12  2  0  0  0  0
  9 31  1  0  0  0  0
 10 11  1  0  0  0  0
 12 19  1  0  0  0  0
 13 21  1  0  0  0  0
 13 22  2  0  0  0  0
 13 32  1  0  0  0  0
 14 15  1  0  0  0  0
 14 16  1  0  0  0  0
 14 33  1  0  0  0  0
 14 34  1  0  0  0  0
 15 17  1  0  0  0  0
 15 35  1  0  0  0  0
 15 36  1  0  0  0  0
 16 18  1  0  0  0  0
 16 37  1  0  0  0  0
 16 38  1  0  0  0  0
 17 19  1  0  0  0  0
 17 39  1  0  0  0  0
 17 40  1  0  0  0  0
 18 19  1  0  0  0  0
 18 41  1  0  0  0  0
 18 42  1  0  0  0  0
 19 20  1  0  0  0  0
 20 21  1  0  0  0  0
 20 43  1  0  0  0  0
 20 44  1  0  0  0  0
 21 45  1  0  0  0  0
M  END
$$$$
