
  -OEChem-05262117483D

 34 36  0     0  0  0  0  0  0999 V2000
   -2.9811   -2.3033   -1.2346 C   0  0  0  0  0  0  0  0  0  0  0  0
   -2.4613   -2.7475    1.0634 C   0  0  0  0  0  0  0  0  0  0  0  0
   -1.9828   -1.3211   -1.2230 C   0  0  0  0  0  0  0  0  0  0  0  0
   -3.2298   -3.0290   -0.0740 C   0  0  0  0  0  0  0  0  0  0  0  0
   -1.2081   -1.1457   -0.0562 C   0  0  0  0  0  0  0  0  0  0  0  0
   -4.0961    1.1800   -0.5298 C   0  0  0  0  0  0  0  0  0  0  0  0
   -4.7289    1.9733   -1.6528 C   0  0  0  0  0  0  0  0  0  0  0  0
   -0.2235    1.2683    0.1047 C   0  0  0  0  0  0  0  0  0  0  0  0
    0.3001    0.4639    1.2729 C   0  0  0  0  0  0  0  0  0  0  0  0
   -3.3155    1.4692   -1.7804 C   0  0  0  0  0  0  0  0  0  0  0  0
   -0.0080   -0.2384   -0.0216 C   0  0  0  0  0  0  0  0  0  0  0  0
    1.1772   -0.7480   -0.8361 C   0  0  0  0  0  0  0  0  0  0  0  0
   -1.7859   -0.4728   -2.4496 C   0  0  0  0  0  0  0  0  0  0  0  0
   -1.4752   -1.8495    1.0555 N   0  0  0  0  0  0  0  0  0  0  0  0
   -3.0415    0.3622   -2.7410 N   0  3  0  0  0  0  0  0  0  0  0  0
   -4.5764   -4.3702   -0.0269 Br  0  0  0  0  0  0  0  0  0  0  0  0
   -3.5564   -2.5184   -2.1343 H   0  0  0  0  0  0  0  0  0  0  0  0
   -2.6424   -3.2742    1.9979 H   0  0  0  0  0  0  0  0  0  0  0  0
   -3.7839    1.6980    0.3707 H   0  0  0  0  0  0  0  0  0  0  0  0
   -4.4470    0.1668   -0.3621 H   0  0  0  0  0  0  0  0  0  0  0  0
   -5.5089    1.4891   -2.2351 H   0  0  0  0  0  0  0  0  0  0  0  0
   -4.8572    3.0446   -1.5408 H   0  0  0  0  0  0  0  0  0  0  0  0
   -1.2402    1.6392    0.1898 H   0  0  0  0  0  0  0  0  0  0  0  0
    0.4604    1.9271   -0.4247 H   0  0  0  0  0  0  0  0  0  0  0  0
    1.3456    0.5747    1.5419 H   0  0  0  0  0  0  0  0  0  0  0  0
   -0.3670    0.2881    2.1093 H   0  0  0  0  0  0  0  0  0  0  0  0
   -2.4851    2.1654   -1.7574 H   0  0  0  0  0  0  0  0  0  0  0  0
    2.0142   -0.0470   -0.7735 H   0  0  0  0  0  0  0  0  0  0  0  0
    0.9397   -0.8860   -1.8976 H   0  0  0  0  0  0  0  0  0  0  0  0
    1.5163   -1.7129   -0.4464 H   0  0  0  0  0  0  0  0  0  0  0  0
   -0.9727    0.2404   -2.3360 H   0  0  0  0  0  0  0  0  0  0  0  0
   -1.6189   -1.0718   -3.3495 H   0  0  0  0  0  0  0  0  0  0  0  0
   -3.8523   -0.2671   -2.7646 H   0  0  0  0  0  0  0  0  0  0  0  0
   -2.9646    0.7603   -3.6855 H   0  0  0  0  0  0  0  0  0  0  0  0
  1  3  1  0  0  0  0
  1  4  2  0  0  0  0
  1 17  1  0  0  0  0
  2  4  1  0  0  0  0
  2 14  2  0  0  0  0
  2 18  1  0  0  0  0
  3  5  2  0  0  0  0
  3 13  1  0  0  0  0
  4 16  1  0  0  0  0
  5 11  1  0  0  0  0
  5 14  1  0  0  0  0
  6  7  1  0  0  0  0
  6 10  1  0  0  0  0
  6 19  1  0  0  0  0
  6 20  1  0  0  0  0
  7 10  1  0  0  0  0
  7 21  1  0  0  0  0
  7 22  1  0  0  0  0
  8  9  1  0  0  0  0
  8 11  1  0  0  0  0
  8 23  1  0  0  0  0
  8 24  1  0  0  0  0
  9 11  1  0  0  0  0
  9 25  1  0  0  0  0
  9 26  1  0  0  0  0
 10 15  1  0  0  0  0
 10 27  1  0  0  0  0
 11 12  1  0  0  0  0
 12 28  1  0  0  0  0
 12 29  1  0  0  0  0
 12 30  1  0  0  0  0
 13 15  1  0  0  0  0
 13 31  1  0  0  0  0
 13 32  1  0  0  0  0
 15 33  1  0  0  0  0
 15 34  1  0  0  0  0
M  CHG  1  15   1
M  END
$$$$
