
  -OEChem-05262117483D

 51 54  0     1  0  0  0  0  0999 V2000
    6.7556    0.1332    3.0070 C   0  0  0  0  0  0  0  0  0  0  0  0
    5.8244    1.1156    3.3682 C   0  0  0  0  0  0  0  0  0  0  0  0
    6.3256   -1.1784    2.7900 C   0  0  0  0  0  0  0  0  0  0  0  0
    4.4757    0.7855    3.5116 C   0  0  0  0  0  0  0  0  0  0  0  0
    4.9711   -1.5042    2.9325 C   0  0  0  0  0  0  0  0  0  0  0  0
    1.6408    2.4706    0.9843 C   0  0  0  0  0  0  0  0  0  0  0  0
    0.1252    3.4852   -0.6152 C   0  0  0  0  0  0  0  0  0  0  0  0
    1.1765    1.1974    0.6254 C   0  0  0  0  0  0  0  0  0  0  0  0
    4.0353   -0.5296    3.2971 C   0  0  0  0  0  0  0  0  0  0  0  0
   -0.3627    2.2304   -0.9784 C   0  0  0  0  0  0  0  0  0  0  0  0
    0.1713    1.0899   -0.3433 C   0  0  0  0  0  0  0  0  0  0  0  0
    1.1163    3.5963    0.3661 C   0  0  0  0  0  0  0  0  0  0  0  0
   -3.0207   -2.2608    0.1049 C   0  0  0  0  0  0  0  0  0  0  0  0
   -2.6556   -1.0023    0.9009 C   0  0  0  0  0  0  0  0  0  0  0  0
   -2.0728   -2.4454   -1.0866 C   0  0  0  0  0  0  0  0  0  0  0  0
   -1.1884   -1.0189    1.3516 C   0  0  0  0  0  0  0  0  0  0  0  0
   -0.6078   -2.4675   -0.6329 C   0  0  0  0  0  0  0  0  0  0  0  0
    1.2557   -1.3205    0.6139 C   0  0  0  0  0  0  0  0  0  0  0  0
    1.8034   -0.0301    1.2615 C   0  0  2  0  0  0  0  0  0  0  0  0
   -0.2097   -1.2281    0.1786 C   0  0  0  0  0  0  0  0  0  0  0  0
   -1.4399    2.0708   -2.0218 C   0  0  0  0  0  0  0  0  0  0  0  0
    2.5674   -0.8754    3.4596 C   0  0  0  0  0  0  0  0  0  0  0  0
    1.7127    0.0631    2.7283 N   0  0  0  0  0  0  0  0  0  0  0  0
   -0.3445   -0.1154   -0.7484 O   0  0  0  0  0  0  0  0  0  0  0  0
    1.7041    5.1957    0.8201 Cl  0  0  0  0  0  0  0  0  0  0  0  0
    7.8054    0.3907    2.8923 H   0  0  0  0  0  0  0  0  0  0  0  0
    6.1518    2.1388    3.5358 H   0  0  0  0  0  0  0  0  0  0  0  0
    7.0402   -1.9460    2.5035 H   0  0  0  0  0  0  0  0  0  0  0  0
    3.7472    1.5458    3.7803 H   0  0  0  0  0  0  0  0  0  0  0  0
    4.6398   -2.5251    2.7523 H   0  0  0  0  0  0  0  0  0  0  0  0
    2.4075    2.5576    1.7469 H   0  0  0  0  0  0  0  0  0  0  0  0
   -0.2718    4.3791   -1.0874 H   0  0  0  0  0  0  0  0  0  0  0  0
   -4.0594   -2.2026   -0.2401 H   0  0  0  0  0  0  0  0  0  0  0  0
   -2.9559   -3.1394    0.7626 H   0  0  0  0  0  0  0  0  0  0  0  0
   -2.8254   -0.1160    0.2787 H   0  0  0  0  0  0  0  0  0  0  0  0
   -3.3039   -0.9008    1.7787 H   0  0  0  0  0  0  0  0  0  0  0  0
   -2.3040   -3.3743   -1.6205 H   0  0  0  0  0  0  0  0  0  0  0  0
   -2.2146   -1.6242   -1.7981 H   0  0  0  0  0  0  0  0  0  0  0  0
   -0.9618   -0.0790    1.8640 H   0  0  0  0  0  0  0  0  0  0  0  0
   -1.0293   -1.8288    2.0757 H   0  0  0  0  0  0  0  0  0  0  0  0
   -0.4294   -3.3506   -0.0056 H   0  0  0  0  0  0  0  0  0  0  0  0
    0.0603   -2.5461   -1.4973 H   0  0  0  0  0  0  0  0  0  0  0  0
    1.8476   -1.5442   -0.2813 H   0  0  0  0  0  0  0  0  0  0  0  0
    1.3826   -2.1684    1.2942 H   0  0  0  0  0  0  0  0  0  0  0  0
    2.8761    0.0074    1.0425 H   0  0  0  0  0  0  0  0  0  0  0  0
   -1.0861    1.4685   -2.8654 H   0  0  0  0  0  0  0  0  0  0  0  0
   -2.3116    1.5510   -1.6103 H   0  0  0  0  0  0  0  0  0  0  0  0
   -1.7631    3.0432   -2.4018 H   0  0  0  0  0  0  0  0  0  0  0  0
    2.4180   -1.9309    3.1755 H   0  0  0  0  0  0  0  0  0  0  0  0
    2.2905   -0.7977    4.5177 H   0  0  0  0  0  0  0  0  0  0  0  0
    0.7482   -0.0260    3.0343 H   0  0  0  0  0  0  0  0  0  0  0  0
  1  2  1  0  0  0  0
  1  3  2  0  0  0  0
  1 26  1  0  0  0  0
  2  4  2  0  0  0  0
  2 27  1  0  0  0  0
  3  5  1  0  0  0  0
  3 28  1  0  0  0  0
  4  9  1  0  0  0  0
  4 29  1  0  0  0  0
  5  9  2  0  0  0  0
  5 30  1  0  0  0  0
  6  8  1  0  0  0  0
  6 12  2  0  0  0  0
  6 31  1  0  0  0  0
  7 10  2  0  0  0  0
  7 12  1  0  0  0  0
  7 32  1  0  0  0  0
  8 11  2  0  0  0  0
  8 19  1  0  0  0  0
  9 22  1  0  0  0  0
 10 11  1  0  0  0  0
 10 21  1  0  0  0  0
 11 24  1  0  0  0  0
 12 25  1  0  0  0  0
 13 14  1  0  0  0  0
 13 15  1  0  0  0  0
 13 33  1  0  0  0  0
 13 34  1  0  0  0  0
 14 16  1  0  0  0  0
 14 35  1  0  0  0  0
 14 36  1  0  0  0  0
 15 17  1  0  0  0  0
 15 37  1  0  0  0  0
 15 38  1  0  0  0  0
 16 20  1  0  0  0  0
 16 39  1  0  0  0  0
 16 40  1  0  0  0  0
 17 20  1  0  0  0  0
 17 41  1  0  0  0  0
 17 42  1  0  0  0  0
 18 19  1  0  0  0  0
 18 20  1  0  0  0  0
 18 43  1  0  0  0  0
 18 44  1  0  0  0  0
 19 23  1  0  0  0  0
 19 45  1  0  0  0  0
 20 24  1  0  0  0  0
 21 46  1  0  0  0  0
 21 47  1  0  0  0  0
 21 48  1  0  0  0  0
 22 23  1  0  0  0  0
 22 49  1  0  0  0  0
 22 50  1  0  0  0  0
 23 51  1  0  0  0  0
M  END
$$$$
