
  -OEChem-05262117483D

 34 36  0     0  0  0  0  0  0999 V2000
   -3.3612   -2.4493   -0.7655 C   0  0  0  0  0  0  0  0  0  0  0  0
   -2.0124   -3.4254    0.9583 C   0  0  0  0  0  0  0  0  0  0  0  0
   -2.3117   -1.5643   -1.0310 C   0  0  0  0  0  0  0  0  0  0  0  0
   -3.2178   -3.3905    0.2504 C   0  0  0  0  0  0  0  0  0  0  0  0
   -1.1311   -1.6496   -0.2538 C   0  0  0  0  0  0  0  0  0  0  0  0
   -1.2112   -3.3218   -3.6478 C   0  0  0  0  0  0  0  0  0  0  0  0
   -0.4053   -2.6226   -4.7210 C   0  0  0  0  0  0  0  0  0  0  0  0
    1.3862   -1.2513    0.0590 C   0  0  0  0  0  0  0  0  0  0  0  0
    1.1724   -1.2146   -1.4353 C   0  0  0  0  0  0  0  0  0  0  0  0
   -1.6049   -1.9465   -4.1116 C   0  0  0  0  0  0  0  0  0  0  0  0
    0.0679   -0.7436   -0.4531 C   0  0  0  0  0  0  0  0  0  0  0  0
   -0.1568    0.7611   -0.3233 C   0  0  0  0  0  0  0  0  0  0  0  0
   -2.4808   -0.5845   -2.1622 C   0  0  0  0  0  0  0  0  0  0  0  0
   -1.0110   -2.5808    0.7031 N   0  0  0  0  0  0  0  0  0  0  0  0
   -1.3944   -0.7774   -3.2144 N   0  3  0  0  0  0  0  0  0  0  0  0
   -4.6110   -4.6170    0.6518 Br  0  0  0  0  0  0  0  0  0  0  0  0
   -4.2777   -2.4113   -1.3477 H   0  0  0  0  0  0  0  0  0  0  0  0
   -1.8531   -4.1535    1.7504 H   0  0  0  0  0  0  0  0  0  0  0  0
   -1.8703   -4.1358   -3.9297 H   0  0  0  0  0  0  0  0  0  0  0  0
   -0.7660   -3.4284   -2.6650 H   0  0  0  0  0  0  0  0  0  0  0  0
    0.5819   -2.2585   -4.4502 H   0  0  0  0  0  0  0  0  0  0  0  0
   -0.4957   -2.9484   -5.7516 H   0  0  0  0  0  0  0  0  0  0  0  0
    1.3913   -2.2227    0.5368 H   0  0  0  0  0  0  0  0  0  0  0  0
    2.0644   -0.5217    0.4885 H   0  0  0  0  0  0  0  0  0  0  0  0
    1.7077   -0.4608   -2.0100 H   0  0  0  0  0  0  0  0  0  0  0  0
    1.0769   -2.1843   -1.9190 H   0  0  0  0  0  0  0  0  0  0  0  0
   -2.5061   -1.8174   -4.7018 H   0  0  0  0  0  0  0  0  0  0  0  0
    0.8041    1.2793   -0.2729 H   0  0  0  0  0  0  0  0  0  0  0  0
   -0.7030    0.9848    0.5976 H   0  0  0  0  0  0  0  0  0  0  0  0
   -0.7069    1.2124   -1.1559 H   0  0  0  0  0  0  0  0  0  0  0  0
   -3.4353   -0.7238   -2.6710 H   0  0  0  0  0  0  0  0  0  0  0  0
   -2.4170    0.4536   -1.8360 H   0  0  0  0  0  0  0  0  0  0  0  0
   -0.4925   -0.8649   -2.7096 H   0  0  0  0  0  0  0  0  0  0  0  0
   -1.3205    0.0686   -3.7914 H   0  0  0  0  0  0  0  0  0  0  0  0
  1  3  1  0  0  0  0
  1  4  2  0  0  0  0
  1 17  1  0  0  0  0
  2  4  1  0  0  0  0
  2 14  2  0  0  0  0
  2 18  1  0  0  0  0
  3  5  2  0  0  0  0
  3 13  1  0  0  0  0
  4 16  1  0  0  0  0
  5 11  1  0  0  0  0
  5 14  1  0  0  0  0
  6  7  1  0  0  0  0
  6 10  1  0  0  0  0
  6 19  1  0  0  0  0
  6 20  1  0  0  0  0
  7 10  1  0  0  0  0
  7 21  1  0  0  0  0
  7 22  1  0  0  0  0
  8  9  1  0  0  0  0
  8 11  1  0  0  0  0
  8 23  1  0  0  0  0
  8 24  1  0  0  0  0
  9 11  1  0  0  0  0
  9 25  1  0  0  0  0
  9 26  1  0  0  0  0
 10 15  1  0  0  0  0
 10 27  1  0  0  0  0
 11 12  1  0  0  0  0
 12 28  1  0  0  0  0
 12 29  1  0  0  0  0
 12 30  1  0  0  0  0
 13 15  1  0  0  0  0
 13 31  1  0  0  0  0
 13 32  1  0  0  0  0
 15 33  1  0  0  0  0
 15 34  1  0  0  0  0
M  CHG  1  15   1
M  END
$$$$
