33
0 1 BrC13H17N2
C                    -1.342891689866     3.988225605006    -2.171253566707
C                    -1.074997256286     4.118182976443     0.214010413759
C                    -0.052143301970     3.456541904144    -2.257193242204
C                    -1.859208904755     4.319129026182    -0.922060676691
C                     0.677551922869     3.289240555159    -1.059538582351
C                     0.619955301574    -0.208660104069    -5.521396677242
C                     1.851876244317     0.666658227893    -5.402923731885
C                     2.459404898619     1.703398469564    -0.086080468386
C                     2.422064503602     1.420721073721    -1.573444955829
C                     0.472951004889     1.270313950609    -5.261802726885
C                     2.103975262043     2.807770844950    -1.050454477640
C                     3.116679264078     3.925531541351    -1.259647314990
C                     0.475993260548     3.052376274156    -3.615441982814
N                     0.162724542915     3.621882334056     0.137105613618
N                     0.063370727846     1.677945125107    -3.940028488624
Br                   -3.620166281155     5.055537197320    -0.758129657361
H                    -1.932188564687     4.146853247373    -3.070967502550
H                    -1.451327127806     4.367458669706     1.204065710553
H                     0.344634955948    -0.586687380284    -6.501575220072
H                     0.401303252246    -0.872537881435    -4.690871471046
H                     2.438329304932     0.577030303656    -4.494470386783
H                     2.419351332666     0.887353271678    -6.302202139008
H                     1.662475867628     1.302701823738     0.532076286852
H                     3.426722863574     1.759918754996     0.405674991562
H                     3.366911148809     1.291167914297    -2.096262371903
H                     1.601821332320     0.830575298111    -1.968355371654
H                     0.130556373580     1.883632279856    -6.101955243491
H                     4.138075033548     3.531187186388    -1.240896746047
H                     3.025831194779     4.676643128834    -0.467623889036
H                     2.968340038502     4.429662895184    -2.221932751754
H                     0.124067105197     3.780683239625    -4.367203918505
H                     1.566827758855     3.080969015333    -3.630844823261
H                    -0.948320947601     1.595921937773    -3.850395468411
