
  -OEChem-05262117483D

 52 55  0     1  0  0  0  0  0999 V2000
   -1.3392   -5.0388    3.1759 C   0  0  0  0  0  0  0  0  0  0  0  0
   -2.6091   -4.7095    2.6884 C   0  0  0  0  0  0  0  0  0  0  0  0
   -0.2127   -4.8739    2.3635 C   0  0  0  0  0  0  0  0  0  0  0  0
   -2.7508   -4.2092    1.3923 C   0  0  0  0  0  0  0  0  0  0  0  0
   -0.3535   -4.3668    1.0692 C   0  0  0  0  0  0  0  0  0  0  0  0
   -2.6269    0.5287    0.8481 C   0  0  0  0  0  0  0  0  0  0  0  0
   -2.4175    2.9020    0.4221 C   0  0  0  0  0  0  0  0  0  0  0  0
   -1.4198    0.3065    0.1622 C   0  0  0  0  0  0  0  0  0  0  0  0
   -1.6219   -4.0273    0.5783 C   0  0  0  0  0  0  0  0  0  0  0  0
   -1.1947    2.7118   -0.2192 C   0  0  0  0  0  0  0  0  0  0  0  0
   -0.6926    1.3971   -0.3334 C   0  0  0  0  0  0  0  0  0  0  0  0
   -3.1222    1.8201    0.9672 C   0  0  0  0  0  0  0  0  0  0  0  0
    3.9514   -1.0342    0.1056 C   0  0  0  0  0  0  0  0  0  0  0  0
    3.4645   -1.0602   -1.3494 C   0  0  0  0  0  0  0  0  0  0  0  0
    2.7772   -1.0534    1.0932 C   0  0  0  0  0  0  0  0  0  0  0  0
    2.4501    0.0597   -1.6271 C   0  0  0  0  0  0  0  0  0  0  0  0
    1.7838    0.0815    0.7995 C   0  0  0  0  0  0  0  0  0  0  0  0
    0.3368   -1.1441   -0.9339 C   0  0  0  0  0  0  0  0  0  0  0  0
   -0.9000   -1.0950   -0.0372 C   0  0  2  0  0  0  0  0  0  0  0  0
    1.2701    0.0412   -0.6511 C   0  0  0  0  0  0  0  0  0  0  0  0
   -0.3991    3.8652   -0.7719 C   0  0  0  0  0  0  0  0  0  0  0  0
   -1.7776   -3.4306   -0.7916 C   0  0  0  0  0  0  0  0  0  0  0  0
   -2.0133   -1.9232   -0.6918 N   0  3  0  0  0  0  0  0  0  0  0  0
    0.5229    1.2575   -0.9376 O   0  0  0  0  0  0  0  0  0  0  0  0
   -4.6242    2.0990    1.8170 Cl  0  0  0  0  0  0  0  0  0  0  0  0
   -1.2303   -5.4347    4.1814 H   0  0  0  0  0  0  0  0  0  0  0  0
   -3.4865   -4.8547    3.3116 H   0  0  0  0  0  0  0  0  0  0  0  0
    0.7715   -5.1437    2.7349 H   0  0  0  0  0  0  0  0  0  0  0  0
   -3.7463   -3.9858    1.0104 H   0  0  0  0  0  0  0  0  0  0  0  0
    0.5246   -4.2500    0.4380 H   0  0  0  0  0  0  0  0  0  0  0  0
   -3.1659   -0.2890    1.3244 H   0  0  0  0  0  0  0  0  0  0  0  0
   -2.8202    3.9052    0.5238 H   0  0  0  0  0  0  0  0  0  0  0  0
    4.5409   -0.1237    0.2718 H   0  0  0  0  0  0  0  0  0  0  0  0
    4.6209   -1.8795    0.2955 H   0  0  0  0  0  0  0  0  0  0  0  0
    4.3108   -0.9508   -2.0346 H   0  0  0  0  0  0  0  0  0  0  0  0
    3.0210   -2.0395   -1.5741 H   0  0  0  0  0  0  0  0  0  0  0  0
    2.2664   -2.0257    1.0475 H   0  0  0  0  0  0  0  0  0  0  0  0
    3.1415   -0.9523    2.1205 H   0  0  0  0  0  0  0  0  0  0  0  0
    2.9397    1.0338   -1.5197 H   0  0  0  0  0  0  0  0  0  0  0  0
    2.0751    0.0076   -2.6551 H   0  0  0  0  0  0  0  0  0  0  0  0
    0.9549    0.0655    1.5144 H   0  0  0  0  0  0  0  0  0  0  0  0
    2.2850    1.0466    0.9312 H   0  0  0  0  0  0  0  0  0  0  0  0
    0.8696   -2.0863   -0.8040 H   0  0  0  0  0  0  0  0  0  0  0  0
    0.0379   -1.0738   -1.9877 H   0  0  0  0  0  0  0  0  0  0  0  0
   -0.7196   -1.5932    0.9177 H   0  0  0  0  0  0  0  0  0  0  0  0
    0.5854    3.9190   -0.2966 H   0  0  0  0  0  0  0  0  0  0  0  0
   -0.2245    3.7436   -1.8454 H   0  0  0  0  0  0  0  0  0  0  0  0
   -0.9174    4.8119   -0.6084 H   0  0  0  0  0  0  0  0  0  0  0  0
   -0.8954   -3.5707   -1.4152 H   0  0  0  0  0  0  0  0  0  0  0  0
   -2.6474   -3.8262   -1.3222 H   0  0  0  0  0  0  0  0  0  0  0  0
   -2.8747   -1.7682   -0.1568 H   0  0  0  0  0  0  0  0  0  0  0  0
   -2.1906   -1.5285   -1.6239 H   0  0  0  0  0  0  0  0  0  0  0  0
  1  2  1  0  0  0  0
  1  3  2  0  0  0  0
  1 26  1  0  0  0  0
  2  4  2  0  0  0  0
  2 27  1  0  0  0  0
  3  5  1  0  0  0  0
  3 28  1  0  0  0  0
  4  9  1  0  0  0  0
  4 29  1  0  0  0  0
  5  9  2  0  0  0  0
  5 30  1  0  0  0  0
  6  8  1  0  0  0  0
  6 12  2  0  0  0  0
  6 31  1  0  0  0  0
  7 10  2  0  0  0  0
  7 12  1  0  0  0  0
  7 32  1  0  0  0  0
  8 11  2  0  0  0  0
  8 19  1  0  0  0  0
  9 22  1  0  0  0  0
 10 11  1  0  0  0  0
 10 21  1  0  0  0  0
 11 24  1  0  0  0  0
 12 25  1  0  0  0  0
 13 14  1  0  0  0  0
 13 15  1  0  0  0  0
 13 33  1  0  0  0  0
 13 34  1  0  0  0  0
 14 16  1  0  0  0  0
 14 35  1  0  0  0  0
 14 36  1  0  0  0  0
 15 17  1  0  0  0  0
 15 37  1  0  0  0  0
 15 38  1  0  0  0  0
 16 20  1  0  0  0  0
 16 39  1  0  0  0  0
 16 40  1  0  0  0  0
 17 20  1  0  0  0  0
 17 41  1  0  0  0  0
 17 42  1  0  0  0  0
 18 19  1  0  0  0  0
 18 20  1  0  0  0  0
 18 43  1  0  0  0  0
 18 44  1  0  0  0  0
 19 23  1  0  0  0  0
 19 45  1  0  0  0  0
 20 24  1  0  0  0  0
 21 46  1  0  0  0  0
 21 47  1  0  0  0  0
 21 48  1  0  0  0  0
 22 23  1  0  0  0  0
 22 49  1  0  0  0  0
 22 50  1  0  0  0  0
 23 51  1  0  0  0  0
 23 52  1  0  0  0  0
M  CHG  1  23   1
M  END
$$$$
