
  -OEChem-05262117483D

 33 35  0     0  0  0  0  0  0999 V2000
   -3.3134   -1.7425   -0.8466 C   0  0  0  0  0  0  0  0  0  0  0  0
   -2.5994   -2.3201    1.3771 C   0  0  0  0  0  0  0  0  0  0  0  0
   -2.1538   -0.9708   -0.9809 C   0  0  0  0  0  0  0  0  0  0  0  0
   -3.5351   -2.4208    0.3447 C   0  0  0  0  0  0  0  0  0  0  0  0
   -1.2643   -0.9124    0.1098 C   0  0  0  0  0  0  0  0  0  0  0  0
   -1.3863   -3.1869   -4.6024 C   0  0  0  0  0  0  0  0  0  0  0  0
   -1.0291   -3.3173   -3.1356 C   0  0  0  0  0  0  0  0  0  0  0  0
   -0.0268    1.3680   -0.0822 C   0  0  0  0  0  0  0  0  0  0  0  0
    0.3816    0.7244    1.2270 C   0  0  0  0  0  0  0  0  0  0  0  0
   -1.0946   -1.9531   -3.7844 C   0  0  0  0  0  0  0  0  0  0  0  0
    0.0299   -0.1435    0.0458 C   0  0  0  0  0  0  0  0  0  0  0  0
    1.1587   -0.9006   -0.6404 C   0  0  0  0  0  0  0  0  0  0  0  0
   -1.9328   -0.2261   -2.2879 C   0  0  0  0  0  0  0  0  0  0  0  0
   -1.4944   -1.5826    1.2546 N   0  0  0  0  0  0  0  0  0  0  0  0
   -2.1989   -1.0833   -3.4524 N   0  0  0  0  0  0  0  0  0  0  0  0
   -5.1050   -3.4974    0.5798 Br  0  0  0  0  0  0  0  0  0  0  0  0
   -4.0039   -1.8191   -1.6804 H   0  0  0  0  0  0  0  0  0  0  0  0
   -2.7459   -2.8465    2.3180 H   0  0  0  0  0  0  0  0  0  0  0  0
   -0.6566   -3.4927   -5.3464 H   0  0  0  0  0  0  0  0  0  0  0  0
   -2.4234   -3.3559   -4.8751 H   0  0  0  0  0  0  0  0  0  0  0  0
   -1.8269   -3.5763   -2.4493 H   0  0  0  0  0  0  0  0  0  0  0  0
   -0.0504   -3.7073   -2.8720 H   0  0  0  0  0  0  0  0  0  0  0  0
   -1.0039    1.8418   -0.1258 H   0  0  0  0  0  0  0  0  0  0  0  0
    0.7362    1.8555   -0.6842 H   0  0  0  0  0  0  0  0  0  0  0  0
    1.4266    0.7747    1.5200 H   0  0  0  0  0  0  0  0  0  0  0  0
   -0.3210    0.7523    2.0533 H   0  0  0  0  0  0  0  0  0  0  0  0
   -0.1296   -1.4690   -3.9677 H   0  0  0  0  0  0  0  0  0  0  0  0
    2.0714   -0.2959   -0.6696 H   0  0  0  0  0  0  0  0  0  0  0  0
    0.8971   -1.1726   -1.6683 H   0  0  0  0  0  0  0  0  0  0  0  0
    1.3790   -1.8244   -0.0947 H   0  0  0  0  0  0  0  0  0  0  0  0
   -2.6367    0.6146   -2.3283 H   0  0  0  0  0  0  0  0  0  0  0  0
   -0.9263    0.2075   -2.3074 H   0  0  0  0  0  0  0  0  0  0  0  0
   -2.4185   -0.4999   -4.2565 H   0  0  0  0  0  0  0  0  0  0  0  0
  1  3  1  0  0  0  0
  1  4  2  0  0  0  0
  1 17  1  0  0  0  0
  2  4  1  0  0  0  0
  2 14  2  0  0  0  0
  2 18  1  0  0  0  0
  3  5  2  0  0  0  0
  3 13  1  0  0  0  0
  4 16  1  0  0  0  0
  5 11  1  0  0  0  0
  5 14  1  0  0  0  0
  6  7  1  0  0  0  0
  6 10  1  0  0  0  0
  6 19  1  0  0  0  0
  6 20  1  0  0  0  0
  7 10  1  0  0  0  0
  7 21  1  0  0  0  0
  7 22  1  0  0  0  0
  8  9  1  0  0  0  0
  8 11  1  0  0  0  0
  8 23  1  0  0  0  0
  8 24  1  0  0  0  0
  9 11  1  0  0  0  0
  9 25  1  0  0  0  0
  9 26  1  0  0  0  0
 10 15  1  0  0  0  0
 10 27  1  0  0  0  0
 11 12  1  0  0  0  0
 12 28  1  0  0  0  0
 12 29  1  0  0  0  0
 12 30  1  0  0  0  0
 13 15  1  0  0  0  0
 13 31  1  0  0  0  0
 13 32  1  0  0  0  0
 15 33  1  0  0  0  0
M  END
$$$$
