33
0 1 BrC13H17N2
C                    -3.313422212694    -1.742539485293    -0.846557958028
C                    -2.599390823795    -2.320085308096     1.377121845828
C                    -2.153781606323    -0.970804771806    -0.980866335618
C                    -3.535101028664    -2.420783455535     0.344701156017
C                    -1.264255792316    -0.912416443193     0.109798598434
C                    -1.386266244991    -3.186881489793    -4.602442413656
C                    -1.029074305426    -3.317289355081    -3.135614626995
C                    -0.026827972221     1.368029321907    -0.082230280836
C                     0.381575271827     0.724445644031     1.226960398528
C                    -1.094611347186    -1.953117703289    -3.784369382239
C                     0.029853283627    -0.143462640616     0.045820264023
C                     1.158677720810    -0.900646975809    -0.640406788950
C                    -1.932808210034    -0.226071277867    -2.287895373703
N                    -1.494405867578    -1.582644262419     1.254580665453
N                    -2.198853677272    -1.083317964662    -3.452427408453
Br                   -5.105049805914    -3.497427193794     0.579773769987
H                    -4.003883228405    -1.819074782155    -1.680407058579
H                    -2.745925443954    -2.846496461860     2.317999915961
H                    -0.656616381223    -3.492670224052    -5.346378448122
H                    -2.423448651264    -3.355922027306    -4.875135754271
H                    -1.826911134630    -3.576252896627    -2.449297709147
H                    -0.050425709163    -3.707275919839    -2.871950727085
H                    -1.003928116589     1.841821903773    -0.125785497061
H                     0.736231425950     1.855476840143    -0.684179751014
H                     1.426588098499     0.774655570603     1.519965730116
H                    -0.321008648728     0.752296828016     2.053271480840
H                    -0.129643050757    -1.468964927035    -3.967684956561
H                     2.071378866634    -0.295943439880    -0.669617402730
H                     0.897082099444    -1.172642702107    -1.668323725607
H                     1.378987602962    -1.824438490612    -0.094693922886
H                    -2.636716391267     0.614558281412    -2.328266049100
H                    -0.926274403692     0.207536793145    -2.307397316076
H                    -2.418535817667    -0.499935454812    -4.256513354839
