
  -OEChem-05262117483D

 34 36  0     0  0  0  0  0  0999 V2000
   -2.9208   -2.2569   -1.5608 C   0  0  0  0  0  0  0  0  0  0  0  0
   -2.1378   -2.6627    0.6710 C   0  0  0  0  0  0  0  0  0  0  0  0
   -2.0463   -1.1620   -1.6269 C   0  0  0  0  0  0  0  0  0  0  0  0
   -2.9646   -3.0232   -0.4016 C   0  0  0  0  0  0  0  0  0  0  0  0
   -1.2384   -0.8760   -0.5045 C   0  0  0  0  0  0  0  0  0  0  0  0
   -0.9178    2.3364   -4.5594 C   0  0  0  0  0  0  0  0  0  0  0  0
   -1.7229    3.3744   -3.8064 C   0  0  0  0  0  0  0  0  0  0  0  0
    1.1675   -0.0189   -0.2181 C   0  0  0  0  0  0  0  0  0  0  0  0
    0.7081    0.6244   -1.5070 C   0  0  0  0  0  0  0  0  0  0  0  0
   -2.2082    1.9522   -3.8876 C   0  0  0  0  0  0  0  0  0  0  0  0
   -0.2942    0.2973   -0.3886 C   0  0  0  0  0  0  0  0  0  0  0  0
   -0.8410    1.4358    0.4703 C   0  0  0  0  0  0  0  0  0  0  0  0
   -2.0139   -0.3738   -2.9138 C   0  0  0  0  0  0  0  0  0  0  0  0
   -1.3116   -1.6196    0.6113 N   0  0  0  0  0  0  0  0  0  0  0  0
   -2.1438    1.1154   -2.6621 N   0  3  0  0  0  0  0  0  0  0  0  0
   -4.1239   -4.5208   -0.2658 Br  0  0  0  0  0  0  0  0  0  0  0  0
   -3.5553   -2.5120   -2.4051 H   0  0  0  0  0  0  0  0  0  0  0  0
   -2.1480   -3.2334    1.5968 H   0  0  0  0  0  0  0  0  0  0  0  0
   -0.9156    2.3553   -5.6439 H   0  0  0  0  0  0  0  0  0  0  0  0
    0.0144    2.0038   -4.1127 H   0  0  0  0  0  0  0  0  0  0  0  0
   -1.3257    3.7280   -2.8587 H   0  0  0  0  0  0  0  0  0  0  0  0
   -2.2824    4.1181   -4.3634 H   0  0  0  0  0  0  0  0  0  0  0  0
    1.4646   -1.0610   -0.2615 H   0  0  0  0  0  0  0  0  0  0  0  0
    1.7312    0.5859    0.4847 H   0  0  0  0  0  0  0  0  0  0  0  0
    0.9774    1.6664   -1.6699 H   0  0  0  0  0  0  0  0  0  0  0  0
    0.7529   -0.0005   -2.3945 H   0  0  0  0  0  0  0  0  0  0  0  0
   -3.0800    1.7084   -4.4855 H   0  0  0  0  0  0  0  0  0  0  0  0
   -0.1170    2.2525    0.5455 H   0  0  0  0  0  0  0  0  0  0  0  0
   -1.0460    1.0664    1.4785 H   0  0  0  0  0  0  0  0  0  0  0  0
   -1.7812    1.8533    0.0841 H   0  0  0  0  0  0  0  0  0  0  0  0
   -1.0864   -0.4961   -3.4747 H   0  0  0  0  0  0  0  0  0  0  0  0
   -2.8427   -0.6551   -3.5651 H   0  0  0  0  0  0  0  0  0  0  0  0
   -1.3263    1.3792   -2.0895 H   0  0  0  0  0  0  0  0  0  0  0  0
   -2.9704    1.2856   -2.0764 H   0  0  0  0  0  0  0  0  0  0  0  0
  1  3  1  0  0  0  0
  1  4  2  0  0  0  0
  1 17  1  0  0  0  0
  2  4  1  0  0  0  0
  2 14  2  0  0  0  0
  2 18  1  0  0  0  0
  3  5  2  0  0  0  0
  3 13  1  0  0  0  0
  4 16  1  0  0  0  0
  5 11  1  0  0  0  0
  5 14  1  0  0  0  0
  6  7  1  0  0  0  0
  6 10  1  0  0  0  0
  6 19  1  0  0  0  0
  6 20  1  0  0  0  0
  7 10  1  0  0  0  0
  7 21  1  0  0  0  0
  7 22  1  0  0  0  0
  8  9  1  0  0  0  0
  8 11  1  0  0  0  0
  8 23  1  0  0  0  0
  8 24  1  0  0  0  0
  9 11  1  0  0  0  0
  9 25  1  0  0  0  0
  9 26  1  0  0  0  0
 10 15  1  0  0  0  0
 10 27  1  0  0  0  0
 11 12  1  0  0  0  0
 12 28  1  0  0  0  0
 12 29  1  0  0  0  0
 12 30  1  0  0  0  0
 13 15  1  0  0  0  0
 13 31  1  0  0  0  0
 13 32  1  0  0  0  0
 15 33  1  0  0  0  0
 15 34  1  0  0  0  0
M  CHG  1  15   1
M  END
$$$$
