45
0 1 C20H23NO
C                     4.391257017728    -7.356153435531    -6.152085354264
C                     3.586024227907    -7.916633663714    -5.154833649580
C                     4.075166277407    -6.091983967894    -6.660903519525
C                     2.476258076215    -7.219310108598    -4.672904301337
C                     2.965277689984    -5.395757275425    -6.177597707272
C                     0.159910119212    -4.440738156153    -5.519010733618
C                     0.613881109210    -5.245946053478    -3.306883868416
C                    -0.945322449605    -3.742700889149    -5.034331150867
C                    -0.494226516434    -4.544387884736    -2.827530401373
C                     2.147061992392    -5.947938258660    -5.175934061678
C                     0.968429665731    -5.208492933131    -4.664132591099
C                    -1.300959121473    -3.767630401085    -3.674645117328
C                    -4.454504849458    -5.733701542267    -1.947280926282
C                    -1.701255915706    -0.462691634635    -1.941285713617
C                    -1.725458311696    -0.665288447391    -3.462361742189
C                    -1.526768297867    -1.799075926506    -1.207081295681
C                    -2.788298689961    -1.695949379555    -3.864006943456
C                    -2.579759963269    -2.823903135015    -1.653085072972
C                    -2.575769464382    -3.068726849821    -3.179913686458
C                    -3.781194144347    -3.970686232738    -3.562644448475
N                    -3.711676642191    -5.315910017155    -3.010603363819
O                    -5.303342227738    -5.067888632634    -1.365313489210
H                     5.255134189138    -7.898043842932    -6.527947295543
H                     3.817059875940    -8.902139597570    -4.758355974902
H                     4.699893699066    -5.642745864783    -7.428800438793
H                     1.843153324218    -7.676781314798    -3.917262131414
H                     2.746771619481    -4.402510918340    -6.560581505956
H                     0.381584066752    -4.410482390924    -6.582569067772
H                     1.227990378467    -5.806635147906    -2.607001365770
H                    -1.542972423739    -3.177056843909    -5.742459324560
H                    -0.715239484596    -4.600944720439    -1.767620193741
H                    -4.213656525530    -6.774902615530    -1.657608871360
H                    -2.645750329979     0.001985499353    -1.626157753021
H                    -0.900060647459     0.231664194140    -1.662632276536
H                    -1.926786527925     0.286183321866    -3.968389085050
H                    -0.739709914134    -1.003214965629    -3.805183705262
H                    -0.519414086929    -2.186120101927    -1.400289800914
H                    -1.602418244213    -1.647979428366    -0.123928333765
H                    -3.776612210550    -1.323546024107    -3.563330606105
H                    -2.826877470779    -1.799355691913    -4.953061030329
H                    -2.464730135893    -3.762131334390    -1.103720905321
H                    -3.575750786831    -2.454108321584    -1.382496386542
H                    -3.848863024126    -4.042162399670    -4.654010468247
H                    -4.707000570173    -3.525979140700    -3.192298750984
H                    -2.983697602548    -5.932925908660    -3.349359584298
