
  -OEChem-05262117483D

 32 34  0     1  0  0  0  0  0999 V2000
   -1.6996    1.4748   -0.3997 C   0  0  0  0  0  0  0  0  0  0  0  0
   -1.1996    0.2070   -0.0820 C   0  0  0  0  0  0  0  0  0  0  0  0
   -3.0552    1.6230   -0.6919 C   0  0  0  0  0  0  0  0  0  0  0  0
   -2.0641   -0.8865   -0.0623 C   0  0  0  0  0  0  0  0  0  0  0  0
   -4.2667   -1.1308    3.7470 C   0  0  0  0  0  0  0  0  0  0  0  0
   -3.2959   -3.2704    4.1421 C   0  0  0  0  0  0  0  0  0  0  0  0
   -3.9341    0.5294   -0.6691 C   0  0  0  0  0  0  0  0  0  0  0  0
   -3.4294   -0.7418   -0.3463 C   0  0  0  0  0  0  0  0  0  0  0  0
   -3.7260   -2.0422    4.6539 C   0  0  0  0  0  0  0  0  0  0  0  0
   -3.9178   -2.6102    2.0457 C   0  0  0  0  0  0  0  0  0  0  0  0
   -5.4056    0.7471   -0.9605 C   0  0  0  0  0  0  0  0  0  0  0  0
   -6.1177   -0.5405   -1.3835 C   0  0  0  0  0  0  0  0  0  0  0  0
   -5.8257   -1.6505   -0.3729 C   0  0  0  0  0  0  0  0  0  0  0  0
   -4.3262   -1.9824   -0.3513 C   0  0  2  0  0  0  0  0  0  0  0  0
   -4.3720   -1.4043    2.4466 N   0  0  0  0  0  0  0  0  0  0  0  0
   -3.3822   -3.5627    2.8472 N   0  0  0  0  0  0  0  0  0  0  0  0
   -3.9949   -2.9253    0.7209 N   0  0  0  0  0  0  0  0  0  0  0  0
   -3.5925   -1.6684    6.3585 Cl  0  0  0  0  0  0  0  0  0  0  0  0
   -1.0382    2.3373   -0.4215 H   0  0  0  0  0  0  0  0  0  0  0  0
   -0.1457    0.0729    0.1480 H   0  0  0  0  0  0  0  0  0  0  0  0
   -3.4471    2.6074   -0.9418 H   0  0  0  0  0  0  0  0  0  0  0  0
   -1.6764   -1.8691    0.1951 H   0  0  0  0  0  0  0  0  0  0  0  0
   -4.6247   -0.1577    4.0797 H   0  0  0  0  0  0  0  0  0  0  0  0
   -2.8693   -4.0289    4.7968 H   0  0  0  0  0  0  0  0  0  0  0  0
   -5.8880    1.1367   -0.0534 H   0  0  0  0  0  0  0  0  0  0  0  0
   -5.5182    1.5215   -1.7274 H   0  0  0  0  0  0  0  0  0  0  0  0
   -7.1971   -0.3680   -1.4553 H   0  0  0  0  0  0  0  0  0  0  0  0
   -5.7762   -0.8431   -2.3826 H   0  0  0  0  0  0  0  0  0  0  0  0
   -6.1297   -1.3264    0.6261 H   0  0  0  0  0  0  0  0  0  0  0  0
   -6.3829   -2.5632   -0.6099 H   0  0  0  0  0  0  0  0  0  0  0  0
   -4.1020   -2.5307   -1.2748 H   0  0  0  0  0  0  0  0  0  0  0  0
   -3.5738   -3.8123    0.4826 H   0  0  0  0  0  0  0  0  0  0  0  0
  1  2  1  0  0  0  0
  1  3  2  0  0  0  0
  1 19  1  0  0  0  0
  2  4  2  0  0  0  0
  2 20  1  0  0  0  0
  3  7  1  0  0  0  0
  3 21  1  0  0  0  0
  4  8  1  0  0  0  0
  4 22  1  0  0  0  0
  5  9  1  0  0  0  0
  5 15  2  0  0  0  0
  5 23  1  0  0  0  0
  6  9  2  0  0  0  0
  6 16  1  0  0  0  0
  6 24  1  0  0  0  0
  7  8  2  0  0  0  0
  7 11  1  0  0  0  0
  8 14  1  0  0  0  0
  9 18  1  0  0  0  0
 10 15  1  0  0  0  0
 10 16  2  0  0  0  0
 10 17  1  0  0  0  0
 11 12  1  0  0  0  0
 11 25  1  0  0  0  0
 11 26  1  0  0  0  0
 12 13  1  0  0  0  0
 12 27  1  0  0  0  0
 12 28  1  0  0  0  0
 13 14  1  0  0  0  0
 13 29  1  0  0  0  0
 13 30  1  0  0  0  0
 14 17  1  0  0  0  0
 14 31  1  0  0  0  0
 17 32  1  0  0  0  0
M  END
$$$$
