51
0 1 C22ClH26NO
C                     5.222083907852    -2.972022556252     2.846081375256
C                     4.198686615542    -3.862550044511     2.496078927235
C                     5.642161515557    -2.007891190625     1.926098777471
C                     3.603378023019    -3.788104505496     1.235635306378
C                     5.039759598864    -1.934873546353     0.664123082754
C                    -0.713949260596    -2.997067846870     0.157557423792
C                    -2.940757396077    -2.033396166902     0.172195163953
C                    -0.161769462718    -1.736894884281    -0.111657121716
C                     4.019897654831    -2.823634392369     0.304935525967
C                    -2.414457978081    -0.768057847350    -0.089191998634
C                    -1.018190008636    -0.631705379906    -0.227128700936
C                    -2.088812165331    -3.134234019528     0.297019939788
C                     0.585377343890     3.578632029740     1.046105630529
C                     0.297108592846     3.412959541128    -0.451672074859
C                     0.308496311792     2.274442228478     1.804404386468
C                     1.085134016181     2.236376839515    -1.042051053574
C                     1.091467240789     1.095550388022     1.211599474207
C                     1.660803905772    -0.217020135603    -0.904821220898
C                     1.340399524501    -1.575163686367    -0.259387655913
C                     0.836521508966     0.919110714829    -0.297753718076
C                    -3.300244255494     0.444801566045    -0.225913344928
C                     3.366534575723    -2.748804866494    -1.060967434905
N                     1.902647400363    -2.739465539614    -0.956624457717
O                    -0.575747853270     0.635505507291    -0.505139722175
Cl                   -2.776426853245    -4.722856751445     0.635094093177
H                     5.684423692559    -3.029068288196     3.828232225052
H                     3.865094873592    -4.613274612948     3.208270192344
H                     6.433004765204    -1.310170630890     2.190234602910
H                     2.798337440945    -4.466195829279     0.965251168107
H                     5.366079265874    -1.177605521785    -0.046270064652
H                    -0.054402348899    -3.853741265410     0.237748673709
H                    -4.013448540414    -2.162037135942     0.282941402353
H                    -0.018248707861     4.394101149439     1.461181651035
H                     1.638051037290     3.863574081790     1.185241982860
H                    -0.774042963313     3.237242581127    -0.601302376409
H                     0.549190507566     4.331186731102    -0.994673622107
H                     0.564729198387     2.384817836451     2.864235111682
H                    -0.763276540748     2.047984841752     1.759926226979
H                     0.831674573806     2.094391799257    -2.098453128513
H                     2.160286480143     2.451577679743    -0.992685603871
H                     2.168809281296     1.250827936470     1.355347701180
H                     0.832468297288     0.176015606452     1.744752440887
H                     2.724281910826     0.014074071180    -0.793117071204
H                     1.443537554596    -0.265382715116    -1.979866806939
H                     1.784730662589    -1.588632310025     0.742309031506
H                    -3.024199984860     1.215832256880     0.501344881270
H                    -3.197296776821     0.899001044180    -1.217214473046
H                    -4.349883837272     0.181735239500    -0.072214665481
H                     3.777544626087    -1.882781145939    -1.604505911811
H                     3.635250620423    -3.638747275261    -1.642850584631
H                     1.489759585833    -2.809506530325    -1.885389111153
