
  -OEChem-05262117483D

 32 34  0     1  0  0  0  0  0999 V2000
    0.5638    0.1650   -2.4985 C   0  0  0  0  0  0  0  0  0  0  0  0
    0.2331   -0.3055   -1.2212 C   0  0  0  0  0  0  0  0  0  0  0  0
    0.0961   -0.5107   -3.6247 C   0  0  0  0  0  0  0  0  0  0  0  0
   -0.5661   -1.4398   -1.0935 C   0  0  0  0  0  0  0  0  0  0  0  0
   -3.4187   -3.3028    1.9093 C   0  0  0  0  0  0  0  0  0  0  0  0
   -5.2904   -2.0332    1.1639 C   0  0  0  0  0  0  0  0  0  0  0  0
   -0.7064   -1.6575   -3.5086 C   0  0  0  0  0  0  0  0  0  0  0  0
   -1.0433   -2.1217   -2.2250 C   0  0  0  0  0  0  0  0  0  0  0  0
   -4.6011   -2.6338    2.2230 C   0  0  0  0  0  0  0  0  0  0  0  0
   -3.7007   -2.7837   -0.2975 C   0  0  0  0  0  0  0  0  0  0  0  0
   -1.1503   -2.3878   -4.7633 C   0  0  0  0  0  0  0  0  0  0  0  0
   -2.3292   -3.3363   -4.5265 C   0  0  0  0  0  0  0  0  0  0  0  0
   -2.0727   -4.1907   -3.2818 C   0  0  0  0  0  0  0  0  0  0  0  0
   -1.9614   -3.3231   -2.0221 C   0  0  2  0  0  0  0  0  0  0  0  0
   -2.9582   -3.3807    0.6601 N   0  0  0  0  0  0  0  0  0  0  0  0
   -4.8535   -2.0991   -0.0897 N   0  0  0  0  0  0  0  0  0  0  0  0
   -3.2976   -2.8791   -1.5971 N   0  0  0  0  0  0  0  0  0  0  0  0
   -5.1892   -2.5348    3.8681 Cl  0  0  0  0  0  0  0  0  0  0  0  0
    1.1824    1.0516   -2.6132 H   0  0  0  0  0  0  0  0  0  0  0  0
    0.5965    0.2094   -0.3355 H   0  0  0  0  0  0  0  0  0  0  0  0
    0.3557   -0.1462   -4.6171 H   0  0  0  0  0  0  0  0  0  0  0  0
   -0.8305   -1.8117   -0.1066 H   0  0  0  0  0  0  0  0  0  0  0  0
   -2.8263   -3.7832    2.6867 H   0  0  0  0  0  0  0  0  0  0  0  0
   -6.2145   -1.4846    1.3406 H   0  0  0  0  0  0  0  0  0  0  0  0
   -1.3914   -1.6609   -5.5468 H   0  0  0  0  0  0  0  0  0  0  0  0
   -0.2994   -2.9716   -5.1419 H   0  0  0  0  0  0  0  0  0  0  0  0
   -3.2560   -2.7603   -4.4039 H   0  0  0  0  0  0  0  0  0  0  0  0
   -2.4787   -3.9741   -5.4041 H   0  0  0  0  0  0  0  0  0  0  0  0
   -2.8656   -4.9300   -3.1335 H   0  0  0  0  0  0  0  0  0  0  0  0
   -1.1310   -4.7389   -3.4119 H   0  0  0  0  0  0  0  0  0  0  0  0
   -1.5813   -3.9284   -1.1990 H   0  0  0  0  0  0  0  0  0  0  0  0
   -3.8023   -2.2576   -2.2178 H   0  0  0  0  0  0  0  0  0  0  0  0
  1  2  1  0  0  0  0
  1  3  2  0  0  0  0
  1 19  1  0  0  0  0
  2  4  2  0  0  0  0
  2 20  1  0  0  0  0
  3  7  1  0  0  0  0
  3 21  1  0  0  0  0
  4  8  1  0  0  0  0
  4 22  1  0  0  0  0
  5  9  1  0  0  0  0
  5 15  2  0  0  0  0
  5 23  1  0  0  0  0
  6  9  2  0  0  0  0
  6 16  1  0  0  0  0
  6 24  1  0  0  0  0
  7  8  2  0  0  0  0
  7 11  1  0  0  0  0
  8 14  1  0  0  0  0
  9 18  1  0  0  0  0
 10 15  1  0  0  0  0
 10 16  2  0  0  0  0
 10 17  1  0  0  0  0
 11 12  1  0  0  0  0
 11 25  1  0  0  0  0
 11 26  1  0  0  0  0
 12 13  1  0  0  0  0
 12 27  1  0  0  0  0
 12 28  1  0  0  0  0
 13 14  1  0  0  0  0
 13 29  1  0  0  0  0
 13 30  1  0  0  0  0
 14 17  1  0  0  0  0
 14 31  1  0  0  0  0
 17 32  1  0  0  0  0
M  END
$$$$
