34
1 1 BrC13H18N2
C                    -3.361191261756    -2.449332904724    -0.765545451540
C                    -2.012392239684    -3.425395644796     0.958274040669
C                    -2.311678290917    -1.564258534704    -1.030985434214
C                    -3.217756318274    -3.390503625729     0.250406185121
C                    -1.131086415754    -1.649643653651    -0.253841540072
C                    -1.211154250961    -3.321780714906    -3.647790522201
C                    -0.405329528804    -2.622586968151    -4.720960407868
C                     1.386246771270    -1.251251050692     0.059030882040
C                     1.172369376786    -1.214616133565    -1.435315109137
C                    -1.604889168405    -1.946466511971    -4.111617167867
C                     0.067885921813    -0.743578247170    -0.453145986852
C                    -0.156788926188     0.761124181236    -0.323307547993
C                    -2.480757124985    -0.584508651873    -2.162160042641
N                    -1.011029775300    -2.580762103195     0.703147817083
N                    -1.394369466825    -0.777398142625    -3.214398344907
Br                   -4.610994203136    -4.617020631964     0.651772361829
H                    -4.277712691325    -2.411283121196    -1.347714436336
H                    -1.853089488908    -4.153475079940     1.750397877999
H                    -1.870323854015    -4.135785066795    -3.929748014782
H                    -0.766007454995    -3.428354899010    -2.665045004222
H                     0.581877588073    -2.258510612995    -4.450212222135
H                    -0.495749610157    -2.948355253675    -5.751633796864
H                     1.391307324686    -2.222732126848     0.536839358007
H                     2.064435632997    -0.521665550748     0.488496188714
H                     1.707748015188    -0.460839064597    -2.009996352821
H                     1.076912158108    -2.184284285640    -1.918951207346
H                    -2.506145079014    -1.817409186301    -4.701754254388
H                     0.804129534713     1.279344142747    -0.272902201569
H                    -0.703004754024     0.984794661475     0.597642099977
H                    -0.706866689307     1.212430218927    -1.155850633896
H                    -3.435322898141    -0.723835047615    -2.670993194200
H                    -2.417049348298     0.453578409301    -1.836021126691
H                    -0.492532376761    -0.864946305171    -2.709634169216
H                    -1.320474377945     0.068569629352    -3.791442221959
