51
0 1 C22ClH26NO
C                     6.755577852271     0.133227829477     3.006964783653
C                     5.824423826142     1.115645188791     3.368205876107
C                     6.325604122716    -1.178443786112     2.790028988313
C                     4.475710673657     0.785539110669     3.511592902592
C                     4.971145317539    -1.504211129701     2.932517366059
C                     1.640849236420     2.470583111015     0.984343278606
C                     0.125233776901     3.485237871919    -0.615238538716
C                     1.176482131484     1.197358278281     0.625407895927
C                     4.035311735002    -0.529619597526     3.297145743006
C                    -0.362683444319     2.230378864545    -0.978409185909
C                     0.171272887452     1.089861293790    -0.343307901214
C                     1.116327155338     3.596330774309     0.366138648706
C                    -3.020665631437    -2.260849359303     0.104883124242
C                    -2.655625083653    -1.002332636715     0.900856080183
C                    -2.072762844960    -2.445404547117    -1.086647267208
C                    -1.188371790889    -1.018861883774     1.351622388869
C                    -0.607786866323    -2.467537002945    -0.632881010580
C                     1.255717967822    -1.320540334592     0.613949420697
C                     1.803449586735    -0.030082232147     1.261527746208
C                    -0.209676108438    -1.228062542363     0.178635023061
C                    -1.439881146450     2.070781658401    -2.021810937854
C                     2.567387942962    -0.875414054827     3.459613730226
N                     1.712674078216     0.063113383677     2.728269271692
O                    -0.344524352619    -0.115424879331    -0.748379937679
Cl                    1.704115441183     5.195733242891     0.820140505611
H                     7.805424247086     0.390714553846     2.892276783587
H                     6.151769461929     2.138815601663     3.535751583252
H                     7.040218389729    -1.946034385861     2.503483100681
H                     3.747239139367     1.545849824822     3.780251028846
H                     4.639773849703    -2.525117336166     2.752263124234
H                     2.407477358074     2.557588104905     1.746878680211
H                    -0.271775683831     4.379052646052    -1.087428502107
H                    -4.059438305189    -2.202611195308    -0.240147370503
H                    -2.955915306853    -3.139432116684     0.762591785437
H                    -2.825446993652    -0.116020632327     0.278692786698
H                    -3.303942828481    -0.900838649086     1.778707244779
H                    -2.304031706682    -3.374338399674    -1.620525862846
H                    -2.214555735682    -1.624241761095    -1.798096916915
H                    -0.961815739072    -0.078960822941     1.863951994179
H                    -1.029335380294    -1.828768927647     2.075676902149
H                    -0.429374372862    -3.350575194311    -0.005633588834
H                     0.060293493573    -2.546109018223    -1.497331878880
H                     1.847569900720    -1.544231966044    -0.281274711102
H                     1.382639782983    -2.168431131261     1.294155765247
H                     2.876127977901     0.007351589107     1.042534329954
H                    -1.086125472019     1.468499663848    -2.865354369109
H                    -2.311639475769     1.550955469428    -1.610318277874
H                    -1.763122600209     3.043242051071    -2.401793084646
H                     2.417993241689    -1.930916618468     3.175470047834
H                     2.290472710140    -0.797718949689     4.517737573180
H                     0.748170034246    -0.025973398652     3.034270079010
