
  -OEChem-05262117483D

 38 39  0     0  0  0  0  0  0999 V2000
    5.5497   -0.2331    5.5186 C   0  0  0  0  0  0  0  0  0  0  0  0
    5.1593    0.5442    4.4335 C   0  0  0  0  0  0  0  0  0  0  0  0
    3.5058   -1.5123    5.3291 C   0  0  0  0  0  0  0  0  0  0  0  0
    4.7287   -1.2775    5.9771 C   0  0  0  0  0  0  0  0  0  0  0  0
    3.9367    0.3098    3.7900 C   0  0  0  0  0  0  0  0  0  0  0  0
    3.0974   -0.7229    4.2530 C   0  0  0  0  0  0  0  0  0  0  0  0
    5.1959   -2.1014    7.1363 C   0  0  0  0  0  0  0  0  0  0  0  0
    0.0956    1.4595    3.1932 C   0  0  0  0  0  0  0  0  0  0  0  0
   -0.5333    0.2410    2.4539 C   0  0  0  0  0  0  0  0  0  0  0  0
    0.5964    0.9189    4.5553 C   0  0  0  0  0  0  0  0  0  0  0  0
   -0.4802   -0.9303    3.4610 C   0  0  0  0  0  0  0  0  0  0  0  0
    0.7037   -0.5971    4.3647 C   0  0  0  0  0  0  0  0  0  0  0  0
    4.8991   -3.9874    8.8240 C   0  0  0  0  0  0  0  0  0  0  0  0
    3.3857    0.5187    1.4820 C   0  0  0  0  0  0  0  0  0  0  0  0
    4.3054   -3.2349    7.6342 C   0  0  0  0  0  0  0  0  0  0  0  0
    6.2735   -1.8678    7.6744 O   0  0  0  0  0  0  0  0  0  0  0  0
    1.8989   -0.9616    3.6177 O   0  0  0  0  0  0  0  0  0  0  0  0
    3.5705    1.1444    2.7643 O   0  0  0  0  0  0  0  0  0  0  0  0
    6.4939   -0.0561    6.0235 H   0  0  0  0  0  0  0  0  0  0  0  0
    5.7837    1.3527    4.0639 H   0  0  0  0  0  0  0  0  0  0  0  0
    2.8451   -2.3117    5.6485 H   0  0  0  0  0  0  0  0  0  0  0  0
    0.9308    1.8702    2.6225 H   0  0  0  0  0  0  0  0  0  0  0  0
   -0.6277    2.2680    3.3333 H   0  0  0  0  0  0  0  0  0  0  0  0
   -1.5556    0.4386    2.1188 H   0  0  0  0  0  0  0  0  0  0  0  0
    0.0522   -0.0071    1.5643 H   0  0  0  0  0  0  0  0  0  0  0  0
    1.5394    1.3678    4.8766 H   0  0  0  0  0  0  0  0  0  0  0  0
   -0.1392    1.1080    5.3460 H   0  0  0  0  0  0  0  0  0  0  0  0
   -1.3870   -0.9541    4.0763 H   0  0  0  0  0  0  0  0  0  0  0  0
   -0.3681   -1.9099    2.9889 H   0  0  0  0  0  0  0  0  0  0  0  0
    0.6999   -1.1510    5.3108 H   0  0  0  0  0  0  0  0  0  0  0  0
    5.8652   -4.4286    8.5658 H   0  0  0  0  0  0  0  0  0  0  0  0
    5.0651   -3.3149    9.6696 H   0  0  0  0  0  0  0  0  0  0  0  0
    4.2245   -4.7883    9.1429 H   0  0  0  0  0  0  0  0  0  0  0  0
    3.1312    1.3245    0.7910 H   0  0  0  0  0  0  0  0  0  0  0  0
    2.5806   -0.2183    1.5138 H   0  0  0  0  0  0  0  0  0  0  0  0
    4.3185    0.0411    1.1586 H   0  0  0  0  0  0  0  0  0  0  0  0
    3.3250   -2.8139    7.8930 H   0  0  0  0  0  0  0  0  0  0  0  0
    4.1197   -3.9198    6.7967 H   0  0  0  0  0  0  0  0  0  0  0  0
  1  2  1  0  0  0  0
  1  4  2  0  0  0  0
  1 19  1  0  0  0  0
  2  5  2  0  0  0  0
  2 20  1  0  0  0  0
  3  4  1  0  0  0  0
  3  6  2  0  0  0  0
  3 21  1  0  0  0  0
  4  7  1  0  0  0  0
  5  6  1  0  0  0  0
  5 18  1  0  0  0  0
  6 17  1  0  0  0  0
  7 15  1  0  0  0  0
  7 16  2  0  0  0  0
  8  9  1  0  0  0  0
  8 10  1  0  0  0  0
  8 22  1  0  0  0  0
  8 23  1  0  0  0  0
  9 11  1  0  0  0  0
  9 24  1  0  0  0  0
  9 25  1  0  0  0  0
 10 12  1  0  0  0  0
 10 26  1  0  0  0  0
 10 27  1  0  0  0  0
 11 12  1  0  0  0  0
 11 28  1  0  0  0  0
 11 29  1  0  0  0  0
 12 17  1  0  0  0  0
 12 30  1  0  0  0  0
 13 15  1  0  0  0  0
 13 31  1  0  0  0  0
 13 32  1  0  0  0  0
 13 33  1  0  0  0  0
 14 18  1  0  0  0  0
 14 34  1  0  0  0  0
 14 35  1  0  0  0  0
 14 36  1  0  0  0  0
 15 37  1  0  0  0  0
 15 38  1  0  0  0  0
M  END
$$$$
