51
0 1 C20H26N4O
C                     1.682654119644     2.352228754272    -3.389059739251
C                     0.380487230564     4.376346592550    -3.712143021942
C                     0.430503324815     3.034626665073    -3.297954976672
C                    -0.820153840877     5.072211677064    -3.773010101277
C                    -1.984463568281     4.345414226631    -3.430339980313
C                    -0.791490189954     2.412750302055    -2.897240217110
C                    -0.581868057591    -0.005477206385     0.554614203551
C                    -0.147057928795    -2.866282498311     0.247591269283
C                     0.681298661566     1.269831272200     4.573140093465
C                     1.407850563190     1.249021992236     3.244832400523
C                     0.393119129800    -1.923757115396    -0.823316092761
C                    -1.826765028802    -0.783580096635    -1.460284383448
C                    -0.012325140499    -2.209332185101     1.614773150930
C                    -2.178537421132     0.603725891615    -1.994915008696
C                     0.237997720379     0.422766304195    -1.785736183958
C                     0.591059119601     0.051091726309     3.679270173775
C                    -0.408399105883    -0.617712891976    -0.846259830171
C                    -0.882050243972     6.515535586945    -4.209906897526
C                    -3.345152646640     4.990087871974    -3.520249395075
C                    -0.716261320498    -0.251740441957     2.974053369050
N                     2.717220226162     1.823637829617    -3.508735229235
N                    -1.959932759623     3.079335021941    -3.009933504847
N                    -0.877074914545     1.139578757466    -2.416219556098
N                    -0.543596061970    -0.843089630046     1.639753014077
O                    -0.829465465330     1.200512708925     0.670504409570
H                     1.308681774932     4.859879183697    -4.006023215754
H                    -1.197621432816    -3.104178082196     0.047072334346
H                     0.404518638813    -3.812174697143     0.253783928549
H                     1.266498752257     1.193760227797     5.484955560684
H                    -0.199398343984     1.901090349338     4.655608191832
H                     1.004684728873     1.852823154017     2.438518131236
H                     2.490402570298     1.159583307062     3.257089356538
H                     1.448606490180    -1.703369645281    -0.615140222882
H                     0.357200538695    -2.387895541692    -1.815108456083
H                    -2.567115945875    -1.144368022893    -0.742249747783
H                    -1.769319328847    -1.507142840241    -2.281627571273
H                    -0.548420671143    -2.788926669849     2.374933488795
H                     1.046689133073    -2.194812213328     1.910755305415
H                    -2.871638517822     0.572083465131    -2.838842400351
H                    -2.614511533412     1.238557486436    -1.218226460960
H                     0.878891712204     1.111776337162    -1.231898674966
H                     0.850720767598    -0.086316687801    -2.536269671796
H                     1.153563381822    -0.818850154609     4.012220944537
H                    -1.502233679133     6.644102328298    -5.104739845655
H                    -1.308790912440     7.156685372450    -3.429739459431
H                     0.116711446716     6.895968635054    -4.441154518074
H                    -3.549541401601     5.343651926045    -4.537563890600
H                    -4.113663570226     4.272195092844    -3.231240489159
H                    -3.410482531398     5.863876881797    -2.861367177580
H                    -1.291065719594     0.665261263558     2.845392111355
H                    -1.315111616715    -0.949304269985     3.572700455927
