51
0 1 C20H26N4O
C                    -0.895886095447    -1.523094754962    -4.523463831527
C                    -3.157917149796    -0.699578289251    -4.221751518658
C                    -1.806119804357    -0.656627626238    -3.842475770525
C                    -4.081277813806     0.209082996037    -3.720218372012
C                    -3.572401862394     1.200185439279    -2.850648349212
C                    -1.410972983905     0.318123167109    -2.876880716608
C                    -0.266302097018    -0.094603809299     0.616010825229
C                     1.009285189164     2.358994459538     1.522417498093
C                    -4.372415335052     0.017746074179     2.206575462881
C                    -3.754878002907     0.628773219565     0.965941834327
C                     1.808303935668     1.388587819499     0.655586020276
C                     1.604237756551    -0.539295549906    -1.019174542837
C                     0.096474884664     1.581719260655     2.463280190336
C                     0.736556324882    -0.798875588194    -2.263068061762
C                     0.195185267871     1.364724927733    -1.331113670977
C                    -3.045401734395     0.742013517784     2.296663231530
C                     0.866885109927     0.540341119406    -0.202172285631
C                    -5.537366795659     0.165513925953    -4.114185889300
C                    -4.472101595120     2.288172149259    -2.319995750145
C                    -1.776392343196    -0.054278875980     2.525766398474
N                    -0.186525277526    -2.219576082213    -5.135774136397
N                    -2.299328617763     1.239661106676    -2.452878053362
N                    -0.141028647702     0.386429567842    -2.364795305414
N                    -0.626445808232     0.496054379188     1.796640584189
O                    -0.872059002519    -1.078454561508     0.172341444410
H                    -3.467137042630    -1.452731071988    -4.941983298102
H                     1.672034750133     2.994159441294     2.119396729529
H                     0.412560132126     3.022492769219     0.887027467853
H                    -5.247231112708     0.493526033977     2.640425352002
H                    -4.360639808588    -1.065429467729     2.293279614235
H                    -3.320028910793    -0.035768093106     0.227074259185
H                    -4.208453962118     1.527019291910     0.559646160231
H                     2.506701180761     1.928225154382     0.005671768970
H                     2.412756657474     0.733122520420     1.296347537877
H                     1.764058926366    -1.456465565524    -0.448882585986
H                     2.583507469273    -0.144408915305    -1.310935096164
H                     0.688381052934     1.158707825701     3.289466243948
H                    -0.640001195785     2.256061834869     2.913452222430
H                     1.344245473341    -0.925870091136    -3.162000826206
H                     0.122404377483    -1.689510086667    -2.124178247802
H                    -0.699365496511     1.900379050499    -1.022477714612
H                     0.919853430919     2.094232691545    -1.721184411954
H                    -3.071269138851     1.721927683680     2.770132586663
H                    -6.186742863158     0.016498343109    -3.243468859021
H                    -5.857371092501     1.095933993873    -4.597552953815
H                    -5.727854943730    -0.653825267776    -4.812740130688
H                    -5.312299790303     1.865688219316    -1.757375449945
H                    -3.904573287419     2.951548663513    -1.666152410968
H                    -4.901802189857     2.877938420141    -3.138376969077
H                    -1.914136530829    -1.081945554150     2.188915083659
H                    -1.524637978586    -0.076974767952     3.593189715973
