
  -OEChem-05262117483D

 51 54  0     1  0  0  0  0  0999 V2000
    1.6827    2.3522   -3.3891 C   0  0  0  0  0  0  0  0  0  0  0  0
    0.3805    4.3763   -3.7121 C   0  0  0  0  0  0  0  0  0  0  0  0
    0.4305    3.0346   -3.2980 C   0  0  0  0  0  0  0  0  0  0  0  0
   -0.8202    5.0722   -3.7730 C   0  0  0  0  0  0  0  0  0  0  0  0
   -1.9845    4.3454   -3.4303 C   0  0  0  0  0  0  0  0  0  0  0  0
   -0.7915    2.4128   -2.8972 C   0  0  0  0  0  0  0  0  0  0  0  0
   -0.5819   -0.0055    0.5546 C   0  0  0  0  0  0  0  0  0  0  0  0
   -0.1471   -2.8663    0.2476 C   0  0  0  0  0  0  0  0  0  0  0  0
    0.6813    1.2698    4.5731 C   0  0  0  0  0  0  0  0  0  0  0  0
    1.4079    1.2490    3.2448 C   0  0  0  0  0  0  0  0  0  0  0  0
    0.3931   -1.9238   -0.8233 C   0  0  0  0  0  0  0  0  0  0  0  0
   -1.8268   -0.7836   -1.4603 C   0  0  0  0  0  0  0  0  0  0  0  0
   -0.0123   -2.2093    1.6148 C   0  0  0  0  0  0  0  0  0  0  0  0
   -2.1785    0.6037   -1.9949 C   0  0  0  0  0  0  0  0  0  0  0  0
    0.2380    0.4228   -1.7857 C   0  0  0  0  0  0  0  0  0  0  0  0
    0.5911    0.0511    3.6793 C   0  0  0  0  0  0  0  0  0  0  0  0
   -0.4084   -0.6177   -0.8463 C   0  0  1  0  0  0  0  0  0  0  0  0
   -0.8821    6.5155   -4.2099 C   0  0  0  0  0  0  0  0  0  0  0  0
   -3.3452    4.9901   -3.5202 C   0  0  0  0  0  0  0  0  0  0  0  0
   -0.7163   -0.2517    2.9741 C   0  0  0  0  0  0  0  0  0  0  0  0
    2.7172    1.8236   -3.5087 N   0  0  0  0  0  0  0  0  0  0  0  0
   -1.9599    3.0793   -3.0099 N   0  0  0  0  0  0  0  0  0  0  0  0
   -0.8771    1.1396   -2.4162 N   0  0  2  0  0  0  0  0  0  0  0  0
   -0.5436   -0.8431    1.6398 N   0  0  0  0  0  0  0  0  0  0  0  0
   -0.8295    1.2005    0.6705 O   0  0  0  0  0  0  0  0  0  0  0  0
    1.3087    4.8599   -4.0060 H   0  0  0  0  0  0  0  0  0  0  0  0
   -1.1976   -3.1042    0.0471 H   0  0  0  0  0  0  0  0  0  0  0  0
    0.4045   -3.8122    0.2538 H   0  0  0  0  0  0  0  0  0  0  0  0
    1.2665    1.1938    5.4850 H   0  0  0  0  0  0  0  0  0  0  0  0
   -0.1994    1.9011    4.6556 H   0  0  0  0  0  0  0  0  0  0  0  0
    1.0047    1.8528    2.4385 H   0  0  0  0  0  0  0  0  0  0  0  0
    2.4904    1.1596    3.2571 H   0  0  0  0  0  0  0  0  0  0  0  0
    1.4486   -1.7034   -0.6151 H   0  0  0  0  0  0  0  0  0  0  0  0
    0.3572   -2.3879   -1.8151 H   0  0  0  0  0  0  0  0  0  0  0  0
   -2.5671   -1.1444   -0.7422 H   0  0  0  0  0  0  0  0  0  0  0  0
   -1.7693   -1.5071   -2.2816 H   0  0  0  0  0  0  0  0  0  0  0  0
   -0.5484   -2.7889    2.3749 H   0  0  0  0  0  0  0  0  0  0  0  0
    1.0467   -2.1948    1.9108 H   0  0  0  0  0  0  0  0  0  0  0  0
   -2.8716    0.5721   -2.8388 H   0  0  0  0  0  0  0  0  0  0  0  0
   -2.6145    1.2386   -1.2182 H   0  0  0  0  0  0  0  0  0  0  0  0
    0.8789    1.1118   -1.2319 H   0  0  0  0  0  0  0  0  0  0  0  0
    0.8507   -0.0863   -2.5363 H   0  0  0  0  0  0  0  0  0  0  0  0
    1.1536   -0.8189    4.0122 H   0  0  0  0  0  0  0  0  0  0  0  0
   -1.5022    6.6441   -5.1047 H   0  0  0  0  0  0  0  0  0  0  0  0
   -1.3088    7.1567   -3.4297 H   0  0  0  0  0  0  0  0  0  0  0  0
    0.1167    6.8960   -4.4412 H   0  0  0  0  0  0  0  0  0  0  0  0
   -3.5495    5.3437   -4.5376 H   0  0  0  0  0  0  0  0  0  0  0  0
   -4.1137    4.2722   -3.2312 H   0  0  0  0  0  0  0  0  0  0  0  0
   -3.4105    5.8639   -2.8614 H   0  0  0  0  0  0  0  0  0  0  0  0
   -1.2911    0.6653    2.8454 H   0  0  0  0  0  0  0  0  0  0  0  0
   -1.3151   -0.9493    3.5727 H   0  0  0  0  0  0  0  0  0  0  0  0
  1  3  1  0  0  0  0
  1 21  3  0  0  0  0
  2  3  1  0  0  0  0
  2  4  2  0  0  0  0
  2 26  1  0  0  0  0
  3  6  2  0  0  0  0
  4  5  1  0  0  0  0
  4 18  1  0  0  0  0
  5 19  1  0  0  0  0
  5 22  2  0  0  0  0
  6 22  1  0  0  0  0
  6 23  1  0  0  0  0
  7 17  1  0  0  0  0
  7 24  1  0  0  0  0
  7 25  2  0  0  0  0
  8 11  1  0  0  0  0
  8 13  1  0  0  0  0
  8 27  1  0  0  0  0
  8 28  1  0  0  0  0
  9 10  1  0  0  0  0
  9 16  1  0  0  0  0
  9 29  1  0  0  0  0
  9 30  1  0  0  0  0
 10 16  1  0  0  0  0
 10 31  1  0  0  0  0
 10 32  1  0  0  0  0
 11 17  1  0  0  0  0
 11 33  1  0  0  0  0
 11 34  1  0  0  0  0
 12 14  1  0  0  0  0
 12 17  1  0  0  0  0
 12 35  1  0  0  0  0
 12 36  1  0  0  0  0
 13 24  1  0  0  0  0
 13 37  1  0  0  0  0
 13 38  1  0  0  0  0
 14 23  1  0  0  0  0
 14 39  1  0  0  0  0
 14 40  1  0  0  0  0
 15 17  1  0  0  0  0
 15 23  1  0  0  0  0
 15 41  1  0  0  0  0
 15 42  1  0  0  0  0
 16 20  1  0  0  0  0
 16 43  1  0  0  0  0
 18 44  1  0  0  0  0
 18 45  1  0  0  0  0
 18 46  1  0  0  0  0
 19 47  1  0  0  0  0
 19 48  1  0  0  0  0
 19 49  1  0  0  0  0
 20 24  1  0  0  0  0
 20 50  1  0  0  0  0
 20 51  1  0  0  0  0
M  END
$$$$
