23
0 1 C9FH11OS
C                     1.868658602127    -1.048265038681     0.027789032121
C                     0.764772641141    -0.650978352592     0.793956505013
C                     2.055752237144    -1.019701047702     2.819617730960
C                     3.165227177325    -1.418422592507     2.064545363183
C                     3.041397286396    -1.420453357679     0.662541165692
C                     0.861707343759    -0.631975482538     2.187338484829
C                     5.929917070541    -2.321548250246     4.288892020285
C                    -0.187226537874     1.655755126549     3.344431034137
C                     4.520853014047    -1.839910579189     3.992910940029
O                     4.365761942356    -1.813574789400     2.567031695572
F                     4.106955211893    -1.806770697618    -0.076727335272
S                    -0.544187348710    -0.136622310779     3.186071912162
H                     1.827383721630    -1.075144161172    -1.057036187990
H                    -0.162772571039    -0.362660536237     0.310039556583
H                     2.099417405810    -1.010390396935     3.901970529308
H                     6.088317447171    -3.323935826139     3.881418556471
H                     6.669114264876    -1.647221620141     3.847455587374
H                     6.090877670018    -2.355475161207     5.371191371734
H                    -0.989010261763     2.086290794675     3.950201216693
H                    -0.178079069483     2.136871192920     2.363683228922
H                     0.769785272269     1.819076655442     3.845673170359
H                     4.355604084166    -0.832996775984     4.398684988274
H                     3.773683204106    -2.514607204707     4.430860365002
