44
0 1 C18FH21N2O2
C                    -2.257266543831     2.382539569806     0.406824052249
C                    -2.862724824048     1.677632704174     2.632983972106
C                    -3.535755499163     2.068674792255    -0.053602010702
C                    -4.152966466555     1.363529463496     2.192651408148
C                    -1.899582845176     2.184307712315     1.751883707063
C                    -4.463220789709     1.560312925920     0.852624170399
C                     1.359038209507    -2.546157443230     0.391782317038
C                     0.575575209205     1.868299481304     1.284292081961
C                    -1.063658502109    -1.527448327625    -0.687649692987
C                     0.227149598144    -0.814271967387    -1.116513044708
C                    -1.523562695786    -1.283760698081     0.756203129516
C                    -0.183254152723     3.912749451039     2.624831483874
C                    -0.133026096540     2.778456491270     3.619681840586
C                     1.926232569346    -0.068697944242     0.674143746460
C                     0.204580359446    -0.331259795569     2.434674563694
C                     1.493464424278    -1.188334997198    -0.294443619371
C                    -0.473254085844    -1.591207397459     1.856539814281
C                    -0.492627575742     2.501917244148     2.172695876237
N                     0.502370336744    -2.614016673344     1.463159487902
N                     0.835024450761     0.527960103085     1.444304454085
O                     1.997038332253    -3.531906502263     0.023227545732
O                     1.166275398487     2.550343996981     0.442811663937
F                    -5.709561959613     1.247872772796     0.412567090806
H                    -1.517923709344     2.777704197072    -0.284407657152
H                    -2.610494438079     1.507294756435     3.675564636816
H                    -3.818459475577     2.212547857424    -1.092020559064
H                    -4.904788612029     0.966896671102     2.868138211661
H                    -1.873726177724    -1.209039875790    -1.353663240159
H                    -0.944570451746    -2.604658904638    -0.851654532537
H                     0.412003617620    -1.065158904713    -2.165413810432
H                     0.084991908529     0.270289103336    -1.075127608509
H                    -1.852850030928    -0.249753312738     0.865418860420
H                    -2.406581111799    -1.906818756145     0.934785187230
H                    -1.022816091687     4.598048057305     2.684676049960
H                     0.747893126396     4.345384502747     2.275238767183
H                     0.843333215608     2.444870316264     3.960115986748
H                    -0.911482625337     2.719509716655     4.374557634904
H                     2.681450619609    -0.452087669473     1.373092722297
H                     2.375412283043     0.738161515157     0.097276175380
H                    -0.549170292996     0.239458244189     2.969932618485
H                     0.959244403504    -0.657499657364     3.163920834587
H                     2.331274135787    -1.330468778586    -0.980057805758
H                    -0.997386158030    -2.024867576551     2.713530511601
H                     0.381333755348    -3.554374070143     1.821801224855
