
  -OEChem-05262117483D

 59 62  0     1  0  0  0  0  0999 V2000
    1.3723    1.8862    0.4472 C   0  0  0  0  0  0  0  0  0  0  0  0
    0.7543    3.5640   -1.1809 C   0  0  0  0  0  0  0  0  0  0  0  0
   -1.1356    0.4403   -0.3961 C   0  0  0  0  0  0  0  0  0  0  0  0
    2.6402    2.4574    0.5476 C   0  0  0  0  0  0  0  0  0  0  0  0
    2.0261    4.1256   -1.0788 C   0  0  0  0  0  0  0  0  0  0  0  0
   -2.4030   -0.1239   -0.5057 C   0  0  0  0  0  0  0  0  0  0  0  0
  -11.9348   -4.7430   -1.6301 C   0  0  0  0  0  0  0  0  0  0  0  0
  -10.5690   -6.5169   -0.6875 C   0  0  0  0  0  0  0  0  0  0  0  0
  -13.0825   -5.5040   -1.4210 C   0  0  0  0  0  0  0  0  0  0  0  0
  -11.7223   -7.2852   -0.4778 C   0  0  0  0  0  0  0  0  0  0  0  0
   -2.0768    2.6225   -0.7670 C   0  0  0  0  0  0  0  0  0  0  0  0
    0.4040    2.4310   -0.4196 C   0  0  0  0  0  0  0  0  0  0  0  0
   -0.9386    1.8323   -0.5276 C   0  0  0  0  0  0  0  0  0  0  0  0
    2.9876    3.5829   -0.2137 C   0  0  0  0  0  0  0  0  0  0  0  0
   -3.3625    2.0829   -0.8863 C   0  0  0  0  0  0  0  0  0  0  0  0
   -3.4995    0.6990   -0.7547 C   0  0  0  0  0  0  0  0  0  0  0  0
  -10.6807   -5.2474   -1.2628 C   0  0  0  0  0  0  0  0  0  0  0  0
  -12.9565   -6.7679   -0.8456 C   0  0  0  0  0  0  0  0  0  0  0  0
    4.4015    4.2118   -0.1040 C   0  0  0  0  0  0  0  0  0  0  0  0
   -4.5627    2.9702   -1.1519 C   0  0  0  0  0  0  0  0  0  0  0  0
   -5.8796    2.2355   -0.8697 C   0  0  0  0  0  0  0  0  0  0  0  0
   -5.7928    0.8331   -1.4612 C   0  0  2  0  0  0  0  0  0  0  0  0
   -7.0474   -0.0023   -1.2248 C   0  0  0  0  0  0  0  0  0  0  0  0
   -7.6351   -2.4756   -1.0022 C   0  0  0  0  0  0  0  0  0  0  0  0
   -8.3090   -4.8928   -1.2272 C   0  0  0  0  0  0  0  0  0  0  0  0
   -7.2997   -3.8239   -1.6374 C   0  0  1  0  0  0  0  0  0  0  0  0
   -6.7122   -1.4344   -1.5599 N   0  3  0  0  0  0  0  0  0  0  0  0
    4.5825    5.2299   -0.8236 O   0  5  0  0  0  0  0  0  0  0  0  0
    5.1815    3.6213    0.6896 O   0  0  0  0  0  0  0  0  0  0  0  0
   -4.7611    0.0689   -0.8343 O   0  0  0  0  0  0  0  0  0  0  0  0
   -7.2794   -3.5529   -3.0410 O   0  0  0  0  0  0  0  0  0  0  0  0
   -9.6066   -4.4070   -1.5047 O   0  0  0  0  0  0  0  0  0  0  0  0
  -14.0717   -7.5099   -0.6418 F   0  0  0  0  0  0  0  0  0  0  0  0
    1.1146    1.0341    1.0743 H   0  0  0  0  0  0  0  0  0  0  0  0
    0.0374    3.9798   -1.8875 H   0  0  0  0  0  0  0  0  0  0  0  0
   -0.2782   -0.2051   -0.2350 H   0  0  0  0  0  0  0  0  0  0  0  0
    3.3971    2.0605    1.2184 H   0  0  0  0  0  0  0  0  0  0  0  0
    2.3212    4.9905   -1.6666 H   0  0  0  0  0  0  0  0  0  0  0  0
   -2.5459   -1.1979   -0.4116 H   0  0  0  0  0  0  0  0  0  0  0  0
  -11.9964   -3.7572   -2.0811 H   0  0  0  0  0  0  0  0  0  0  0  0
   -9.6100   -6.9277   -0.3933 H   0  0  0  0  0  0  0  0  0  0  0  0
  -14.0639   -5.1328   -1.6988 H   0  0  0  0  0  0  0  0  0  0  0  0
  -11.6622   -8.2733   -0.0328 H   0  0  0  0  0  0  0  0  0  0  0  0
   -1.9606    3.7011   -0.8345 H   0  0  0  0  0  0  0  0  0  0  0  0
   -4.5035    3.8728   -0.5369 H   0  0  0  0  0  0  0  0  0  0  0  0
   -4.5494    3.3062   -2.1963 H   0  0  0  0  0  0  0  0  0  0  0  0
   -6.0438    2.1445    0.2102 H   0  0  0  0  0  0  0  0  0  0  0  0
   -6.7309    2.7762   -1.2980 H   0  0  0  0  0  0  0  0  0  0  0  0
   -5.5824    0.9012   -2.5413 H   0  0  0  0  0  0  0  0  0  0  0  0
   -7.8927    0.3133   -1.8379 H   0  0  0  0  0  0  0  0  0  0  0  0
   -7.3264    0.0189   -0.1694 H   0  0  0  0  0  0  0  0  0  0  0  0
   -8.6548   -2.1889   -1.2597 H   0  0  0  0  0  0  0  0  0  0  0  0
   -7.5188   -2.4924    0.0825 H   0  0  0  0  0  0  0  0  0  0  0  0
   -8.1837   -5.1118   -0.1564 H   0  0  0  0  0  0  0  0  0  0  0  0
   -8.1037   -5.8182   -1.7845 H   0  0  0  0  0  0  0  0  0  0  0  0
   -6.3073   -4.1611   -1.3009 H   0  0  0  0  0  0  0  0  0  0  0  0
   -6.6792   -1.5770   -2.5790 H   0  0  0  0  0  0  0  0  0  0  0  0
   -5.7427   -1.5587   -1.2173 H   0  0  0  0  0  0  0  0  0  0  0  0
   -7.0934   -4.3637   -3.5414 H   0  0  0  0  0  0  0  0  0  0  0  0
  1  4  1  0  0  0  0
  1 12  2  0  0  0  0
  1 34  1  0  0  0  0
  2  5  2  0  0  0  0
  2 12  1  0  0  0  0
  2 35  1  0  0  0  0
  3  6  2  0  0  0  0
  3 13  1  0  0  0  0
  3 36  1  0  0  0  0
  4 14  2  0  0  0  0
  4 37  1  0  0  0  0
  5 14  1  0  0  0  0
  5 38  1  0  0  0  0
  6 16  1  0  0  0  0
  6 39  1  0  0  0  0
  7  9  2  0  0  0  0
  7 17  1  0  0  0  0
  7 40  1  0  0  0  0
  8 10  1  0  0  0  0
  8 17  2  0  0  0  0
  8 41  1  0  0  0  0
  9 18  1  0  0  0  0
  9 42  1  0  0  0  0
 10 18  2  0  0  0  0
 10 43  1  0  0  0  0
 11 13  2  0  0  0  0
 11 15  1  0  0  0  0
 11 44  1  0  0  0  0
 12 13  1  0  0  0  0
 14 19  1  0  0  0  0
 15 16  2  0  0  0  0
 15 20  1  0  0  0  0
 16 30  1  0  0  0  0
 17 32  1  0  0  0  0
 18 33  1  0  0  0  0
 19 28  1  0  0  0  0
 19 29  2  0  0  0  0
 20 21  1  0  0  0  0
 20 45  1  0  0  0  0
 20 46  1  0  0  0  0
 21 22  1  0  0  0  0
 21 47  1  0  0  0  0
 21 48  1  0  0  0  0
 22 23  1  0  0  0  0
 22 30  1  0  0  0  0
 22 49  1  0  0  0  0
 23 27  1  0  0  0  0
 23 50  1  0  0  0  0
 23 51  1  0  0  0  0
 24 26  1  0  0  0  0
 24 27  1  0  0  0  0
 24 52  1  0  0  0  0
 24 53  1  0  0  0  0
 25 26  1  0  0  0  0
 25 32  1  0  0  0  0
 25 54  1  0  0  0  0
 25 55  1  0  0  0  0
 26 31  1  0  0  0  0
 26 56  1  0  0  0  0
 27 57  1  0  0  0  0
 27 58  1  0  0  0  0
 31 59  1  0  0  0  0
M  CHG  2  27   1  28  -1
M  END
$$$$
