35
1 1 C12H20NO2
C                     3.377310539353     1.048356935596    -3.902785557464
C                     4.567722975153     1.585295255033    -4.426190032153
C                     3.598783277843     2.453273311696    -1.949864041334
C                     2.880355082502     1.475161507504    -2.668141315334
C                     5.276525532283     2.557568038506    -3.721821678417
C                     4.783515647173     2.990699696566    -2.451827996439
C                     8.310358981884     3.487133940323    -5.542925040242
C                     0.321076076489     3.213270091468    -1.988742489915
C                     5.151832394571     4.350599253110    -0.521868236203
C                     1.564874687481     0.943019062918    -2.143953377910
C                     7.025383816813     2.701663072348    -5.360536076383
C                     0.354791681698     1.804970256827    -2.570631106041
N                     0.404776094110     1.923990673050    -4.098716965202
O                     5.543106341646     3.915111465270    -1.825507629665
O                     6.426851164508     3.133749340829    -4.122195721940
H                     2.895650388849     0.230909185263    -4.438268893577
H                     4.942010360225     1.216777028705    -5.373702899694
H                     3.236054689416     2.769734216767    -0.978215602302
H                     8.105467497989     4.559950033983    -5.589768881160
H                     8.998381549009     3.299130633805    -4.714624600875
H                     8.797114484498     3.184673534924    -6.474984922503
H                     1.212045179004     3.784080451482    -2.262998051617
H                    -0.570696687457     3.761076864129    -2.310978612809
H                     0.286301148463     3.145849385217    -0.898742165396
H                     5.913502824274     5.064346510890    -0.210254488546
H                     5.125791721620     3.511484834022     0.182662479684
H                     4.175097472439     4.848842970714    -0.547604060747
H                     1.554838603551     0.906367196244    -1.050719150913
H                     1.406464002479    -0.085230223486    -2.489299055894
H                     7.222730344956     1.623705339448    -5.307092093872
H                     6.324938401910     2.889675803512    -6.184500818693
H                    -0.578019637494     1.280146333064    -2.349502433282
H                     0.162157275529     1.039371929900    -4.558964515513
H                     1.384043536661     2.146359821859    -4.369445894177
H                    -0.223318672645     2.652947865017    -4.455184683421
