35
0 1 C17FH15O2
C                    -3.255163024488    -2.935332461817    -1.203719612782
C                     0.258575268351     2.064767823991    -0.560581660871
C                    -4.254063449566    -3.570776436382    -1.942642767407
C                     1.283493130208     2.713759682376     0.121799607308
C                    -3.632889542836    -0.879699146667    -2.401902915376
C                     2.005820922374     0.570792092816     0.993706905304
C                    -2.912390036766    -1.586883961438    -1.419004830317
C                     0.062823473942     0.675563491874    -0.461874283390
C                     0.975516697984    -0.084146420933     0.309629677083
C                     2.156219896157     1.960084024929     0.914884144696
C                    -4.958037539821    -2.866785211369    -2.921730146829
C                    -4.621178070385    -1.524152082780    -3.121875530281
C                    -1.056136554982     0.034055887323    -1.171398283687
C                    -1.826307819692    -0.946510865201    -0.643369620402
C                     0.893911285473    -1.595561356421     0.310211338089
C                    -1.607671862643    -1.370523842111     0.799557448905
C                    -0.321783295372    -2.178223068701     1.056818743783
O                     3.154361327653     2.633747320816     1.578656250666
O                    -5.944544629333    -3.482345426328    -3.641644351153
F                    -5.338187044197    -0.841641483691    -4.069950140599
H                    -2.716366499276    -3.512484465648    -0.458623203820
H                    -0.422631072959     2.650621231575    -1.173819989107
H                    -4.500688308968    -4.614999979369    -1.774563014621
H                     1.421931249085     3.788544061254     0.052833724768
H                    -3.452079717858     0.173524277186    -2.590317662468
H                     2.713951752536    -0.015789092185     1.579286601267
H                    -1.255425438660     0.385743468421    -2.182686837227
H                     0.839640484737    -1.924669305780    -0.733846307842
H                     1.814168849028    -2.017891205836     0.726707781355
H                    -1.547006881376    -0.453589627858     1.396922371151
H                    -2.473800720127    -1.923661212611     1.172255196220
H                    -0.449582724478    -3.223001221155     0.747383523450
H                    -0.134606378445    -2.188351737476     2.137509497055
H                     3.686332752749     1.995759591399     2.080078074302
H                    -6.318309690039    -2.835459068812    -4.264093236287
