
  -OEChem-05262117483D

 34 34  0     1  0  0  0  0  0999 V2000
   -1.6507   -2.6749    2.3454 C   0  0  0  0  0  0  0  0  0  0  0  0
   -1.7086   -4.0291    2.7029 C   0  0  0  0  0  0  0  0  0  0  0  0
    0.2842   -2.3763    3.7320 C   0  0  0  0  0  0  0  0  0  0  0  0
   -0.6597   -1.8280    2.8470 C   0  0  0  0  0  0  0  0  0  0  0  0
   -0.7602   -4.5660    3.5785 C   0  0  0  0  0  0  0  0  0  0  0  0
    0.2447   -3.7177    4.0971 C   0  0  0  0  0  0  0  0  0  0  0  0
   -1.3938   -8.1556    4.0081 C   0  0  0  0  0  0  0  0  0  0  0  0
   -2.3681    0.2198    4.2507 C   0  0  0  0  0  0  0  0  0  0  0  0
    0.7848   -4.5403    6.2504 C   0  0  0  0  0  0  0  0  0  0  0  0
   -0.6296   -0.3637    2.4705 C   0  0  0  0  0  0  0  0  0  0  0  0
   -1.6790   -6.7794    3.4312 C   0  0  0  0  0  0  0  0  0  0  0  0
   -1.0469    0.6172    3.5915 C   0  0  2  0  0  0  0  0  0  0  0  0
    0.0091    0.6748    4.6203 N   0  0  0  0  0  0  0  0  0  0  0  0
    1.2291   -4.2136    4.9276 O   0  0  0  0  0  0  0  0  0  0  0  0
   -0.7159   -5.8756    3.9788 O   0  0  0  0  0  0  0  0  0  0  0  0
   -2.3986   -2.2820    1.6601 H   0  0  0  0  0  0  0  0  0  0  0  0
   -2.4895   -4.6535    2.2835 H   0  0  0  0  0  0  0  0  0  0  0  0
    1.0586   -1.7532    4.1660 H   0  0  0  0  0  0  0  0  0  0  0  0
   -0.3797   -8.4765    3.7534 H   0  0  0  0  0  0  0  0  0  0  0  0
   -1.4897   -8.1458    5.0980 H   0  0  0  0  0  0  0  0  0  0  0  0
   -2.1030   -8.8854    3.6040 H   0  0  0  0  0  0  0  0  0  0  0  0
   -2.2652   -0.7364    4.7707 H   0  0  0  0  0  0  0  0  0  0  0  0
   -3.1623    0.1225    3.5032 H   0  0  0  0  0  0  0  0  0  0  0  0
   -2.6828    0.9778    4.9779 H   0  0  0  0  0  0  0  0  0  0  0  0
    1.6684   -4.8840    6.7928 H   0  0  0  0  0  0  0  0  0  0  0  0
    0.0333   -5.3359    6.2319 H   0  0  0  0  0  0  0  0  0  0  0  0
    0.3735   -3.6522    6.7473 H   0  0  0  0  0  0  0  0  0  0  0  0
    0.3758   -0.0829    2.1294 H   0  0  0  0  0  0  0  0  0  0  0  0
   -1.2991   -0.2005    1.6186 H   0  0  0  0  0  0  0  0  0  0  0  0
   -2.6931   -6.4481    3.6936 H   0  0  0  0  0  0  0  0  0  0  0  0
   -1.5956   -6.7889    2.3361 H   0  0  0  0  0  0  0  0  0  0  0  0
   -1.1929    1.5975    3.1048 H   0  0  0  0  0  0  0  0  0  0  0  0
   -0.2885    1.2841    5.3814 H   0  0  0  0  0  0  0  0  0  0  0  0
    0.8479    1.0985    4.2247 H   0  0  0  0  0  0  0  0  0  0  0  0
  1  2  1  0  0  0  0
  1  4  2  0  0  0  0
  1 16  1  0  0  0  0
  2  5  2  0  0  0  0
  2 17  1  0  0  0  0
  3  4  1  0  0  0  0
  3  6  2  0  0  0  0
  3 18  1  0  0  0  0
  4 10  1  0  0  0  0
  5  6  1  0  0  0  0
  5 15  1  0  0  0  0
  6 14  1  0  0  0  0
  7 11  1  0  0  0  0
  7 19  1  0  0  0  0
  7 20  1  0  0  0  0
  7 21  1  0  0  0  0
  8 12  1  0  0  0  0
  8 22  1  0  0  0  0
  8 23  1  0  0  0  0
  8 24  1  0  0  0  0
  9 14  1  0  0  0  0
  9 25  1  0  0  0  0
  9 26  1  0  0  0  0
  9 27  1  0  0  0  0
 10 12  1  0  0  0  0
 10 28  1  0  0  0  0
 10 29  1  0  0  0  0
 11 15  1  0  0  0  0
 11 30  1  0  0  0  0
 11 31  1  0  0  0  0
 12 13  1  0  0  0  0
 12 32  1  0  0  0  0
 13 33  1  0  0  0  0
 13 34  1  0  0  0  0
M  END
$$$$
