
  -OEChem-05262117483D

 73 77  0     1  0  0  0  0  0999 V2000
    4.0644    1.2528    0.9795 C   0  0  0  0  0  0  0  0  0  0  0  0
    3.1943    1.9732   -1.1533 C   0  0  0  0  0  0  0  0  0  0  0  0
    4.5144   -2.4075    1.7511 C   0  0  0  0  0  0  0  0  0  0  0  0
    6.1577   -3.1145    0.1504 C   0  0  0  0  0  0  0  0  0  0  0  0
    5.1942   -3.1032    2.7569 C   0  0  0  0  0  0  0  0  0  0  0  0
    6.8251   -3.8122    1.1555 C   0  0  0  0  0  0  0  0  0  0  0  0
    4.9207    2.3562    1.0141 C   0  0  0  0  0  0  0  0  0  0  0  0
    4.0438    3.0830   -1.1381 C   0  0  0  0  0  0  0  0  0  0  0  0
    0.5452   -2.3066   -0.3194 C   0  0  0  0  0  0  0  0  0  0  0  0
    3.1908    1.0431   -0.1017 C   0  0  0  0  0  0  0  0  0  0  0  0
    2.2706   -0.1392   -0.1493 C   0  0  0  0  0  0  0  0  0  0  0  0
    0.8904    0.0735    0.0580 C   0  0  0  0  0  0  0  0  0  0  0  0
    4.9837   -2.4033    0.4348 C   0  0  0  0  0  0  0  0  0  0  0  0
    6.3633   -3.8249    2.4844 C   0  0  0  0  0  0  0  0  0  0  0  0
    1.9109   -2.5323   -0.4692 C   0  0  0  0  0  0  0  0  0  0  0  0
    2.7892   -1.4231   -0.4143 C   0  0  0  0  0  0  0  0  0  0  0  0
    0.0343   -1.0293   -0.0785 C   0  0  0  0  0  0  0  0  0  0  0  0
    4.8937    3.2529   -0.0498 C   0  0  0  0  0  0  0  0  0  0  0  0
   -3.5059    1.2641   -1.2704 C   0  0  0  0  0  0  0  0  0  0  0  0
   -2.0433    0.8617   -1.6120 C   0  0  0  0  0  0  0  0  0  0  0  0
   -3.4192    0.3697   -0.0004 C   0  0  0  0  0  0  0  0  0  0  0  0
   -1.1628    1.3360    0.7852 C   0  0  0  0  0  0  0  0  0  0  0  0
    0.3237    1.4379    0.4462 C   0  0  1  0  0  0  0  0  0  0  0  0
   -1.8843    0.3759   -0.1399 C   0  0  0  0  0  0  0  0  0  0  0  0
    1.8446   -4.5317   -2.0183 C   0  0  0  0  0  0  0  0  0  0  0  0
    2.0276   -4.8658    0.4966 C   0  0  0  0  0  0  0  0  0  0  0  0
    8.5733   -4.0747    3.6569 C   0  0  0  0  0  0  0  0  0  0  0  0
    7.1649   -6.1082    3.1600 C   0  0  0  0  0  0  0  0  0  0  0  0
    6.4747   -4.5006    4.9435 C   0  0  0  0  0  0  0  0  0  0  0  0
    4.2824   -1.6012   -0.6487 C   0  0  2  0  0  0  0  0  0  0  0  0
    2.3890   -3.9628   -0.6962 C   0  0  0  0  0  0  0  0  0  0  0  0
    7.1286   -4.6143    3.5552 C   0  0  0  0  0  0  0  0  0  0  0  0
   -1.3301   -0.9396    0.0181 O   0  0  0  0  0  0  0  0  0  0  0  0
    0.9372    1.9978    1.6155 O   0  0  0  0  0  0  0  0  0  0  0  0
    4.5630   -2.2192   -1.9232 O   0  0  0  0  0  0  0  0  0  0  0  0
    5.7223    4.3271   -0.0254 F   0  0  0  0  0  0  0  0  0  0  0  0
    4.0769    0.5425    1.8004 H   0  0  0  0  0  0  0  0  0  0  0  0
    2.5285    1.8207   -1.9986 H   0  0  0  0  0  0  0  0  0  0  0  0
    3.5930   -1.8872    1.9978 H   0  0  0  0  0  0  0  0  0  0  0  0
    6.5322   -3.1329   -0.8678 H   0  0  0  0  0  0  0  0  0  0  0  0
    4.7842   -3.0818    3.7609 H   0  0  0  0  0  0  0  0  0  0  0  0
    7.7261   -4.3599    0.8918 H   0  0  0  0  0  0  0  0  0  0  0  0
    5.5995    2.5222    1.8449 H   0  0  0  0  0  0  0  0  0  0  0  0
    4.0549    3.8039   -1.9499 H   0  0  0  0  0  0  0  0  0  0  0  0
   -0.1659   -3.1247   -0.3873 H   0  0  0  0  0  0  0  0  0  0  0  0
   -4.2732    1.0064   -2.0039 H   0  0  0  0  0  0  0  0  0  0  0  0
   -3.5979    2.3258   -1.0259 H   0  0  0  0  0  0  0  0  0  0  0  0
   -2.0005    0.0125   -2.2990 H   0  0  0  0  0  0  0  0  0  0  0  0
   -1.3664    1.6455   -1.9636 H   0  0  0  0  0  0  0  0  0  0  0  0
   -3.8306    0.7567    0.9362 H   0  0  0  0  0  0  0  0  0  0  0  0
   -3.8091   -0.6355   -0.1803 H   0  0  0  0  0  0  0  0  0  0  0  0
   -1.2543    0.9657    1.8119 H   0  0  0  0  0  0  0  0  0  0  0  0
   -1.6169    2.3306    0.7510 H   0  0  0  0  0  0  0  0  0  0  0  0
    0.4572    2.1333   -0.3939 H   0  0  0  0  0  0  0  0  0  0  0  0
    0.7512   -4.5988   -2.0133 H   0  0  0  0  0  0  0  0  0  0  0  0
    2.2411   -5.5386   -2.1895 H   0  0  0  0  0  0  0  0  0  0  0  0
    2.1423   -3.9023   -2.8628 H   0  0  0  0  0  0  0  0  0  0  0  0
    0.9440   -4.9486    0.6330 H   0  0  0  0  0  0  0  0  0  0  0  0
    2.4588   -4.4761    1.4235 H   0  0  0  0  0  0  0  0  0  0  0  0
    2.4232   -5.8751    0.3374 H   0  0  0  0  0  0  0  0  0  0  0  0
    9.1348   -4.6277    4.4187 H   0  0  0  0  0  0  0  0  0  0  0  0
    9.1113   -4.1725    2.7095 H   0  0  0  0  0  0  0  0  0  0  0  0
    8.5739   -3.0150    3.9334 H   0  0  0  0  0  0  0  0  0  0  0  0
    7.7061   -6.6903    3.9149 H   0  0  0  0  0  0  0  0  0  0  0  0
    6.1507   -6.5130    3.0778 H   0  0  0  0  0  0  0  0  0  0  0  0
    7.6640   -6.2615    2.1987 H   0  0  0  0  0  0  0  0  0  0  0  0
    7.0558   -5.0746    5.6729 H   0  0  0  0  0  0  0  0  0  0  0  0
    6.4393   -3.4634    5.2933 H   0  0  0  0  0  0  0  0  0  0  0  0
    5.4551   -4.8998    4.9477 H   0  0  0  0  0  0  0  0  0  0  0  0
    4.7480   -0.6110   -0.6572 H   0  0  0  0  0  0  0  0  0  0  0  0
    3.4730   -3.9576   -0.7816 H   0  0  0  0  0  0  0  0  0  0  0  0
    1.8650    2.1942    1.4081 H   0  0  0  0  0  0  0  0  0  0  0  0
    4.1384   -1.6686   -2.5998 H   0  0  0  0  0  0  0  0  0  0  0  0
  1  7  1  0  0  0  0
  1 10  2  0  0  0  0
  1 37  1  0  0  0  0
  2  8  2  0  0  0  0
  2 10  1  0  0  0  0
  2 38  1  0  0  0  0
  3  5  2  0  0  0  0
  3 13  1  0  0  0  0
  3 39  1  0  0  0  0
  4  6  1  0  0  0  0
  4 13  2  0  0  0  0
  4 40  1  0  0  0  0
  5 14  1  0  0  0  0
  5 41  1  0  0  0  0
  6 14  2  0  0  0  0
  6 42  1  0  0  0  0
  7 18  2  0  0  0  0
  7 43  1  0  0  0  0
  8 18  1  0  0  0  0
  8 44  1  0  0  0  0
  9 15  2  0  0  0  0
  9 17  1  0  0  0  0
  9 45  1  0  0  0  0
 10 11  1  0  0  0  0
 11 12  1  0  0  0  0
 11 16  2  0  0  0  0
 12 17  2  0  0  0  0
 12 23  1  0  0  0  0
 13 30  1  0  0  0  0
 14 32  1  0  0  0  0
 15 16  1  0  0  0  0
 15 31  1  0  0  0  0
 16 30  1  0  0  0  0
 17 33  1  0  0  0  0
 18 36  1  0  0  0  0
 19 20  1  0  0  0  0
 19 21  1  0  0  0  0
 19 46  1  0  0  0  0
 19 47  1  0  0  0  0
 20 24  1  0  0  0  0
 20 48  1  0  0  0  0
 20 49  1  0  0  0  0
 21 24  1  0  0  0  0
 21 50  1  0  0  0  0
 21 51  1  0  0  0  0
 22 23  1  0  0  0  0
 22 24  1  0  0  0  0
 22 52  1  0  0  0  0
 22 53  1  0  0  0  0
 23 34  1  0  0  0  0
 23 54  1  0  0  0  0
 24 33  1  0  0  0  0
 25 31  1  0  0  0  0
 25 55  1  0  0  0  0
 25 56  1  0  0  0  0
 25 57  1  0  0  0  0
 26 31  1  0  0  0  0
 26 58  1  0  0  0  0
 26 59  1  0  0  0  0
 26 60  1  0  0  0  0
 27 32  1  0  0  0  0
 27 61  1  0  0  0  0
 27 62  1  0  0  0  0
 27 63  1  0  0  0  0
 28 32  1  0  0  0  0
 28 64  1  0  0  0  0
 28 65  1  0  0  0  0
 28 66  1  0  0  0  0
 29 32  1  0  0  0  0
 29 67  1  0  0  0  0
 29 68  1  0  0  0  0
 29 69  1  0  0  0  0
 30 35  1  0  0  0  0
 30 70  1  0  0  0  0
 31 71  1  0  0  0  0
 34 72  1  0  0  0  0
 35 73  1  0  0  0  0
M  END
$$$$
