34
0 1 C15H14N4O
C                     5.291281114917     1.045780678680     3.203107147886
C                     4.074908504604     0.996604187574     2.498607161319
C                     6.072221273450    -0.094840642560     3.380609842843
C                     4.283954532321    -2.724719762634     1.601857739712
C                     5.392839979672    -3.402646533472     2.055074138883
C                     4.387787530847    -1.365136373598     2.075609543182
C                     3.597524222381    -0.194440429780     1.941760443784
C                     5.607345666258    -1.284180600198     2.808544502032
C                     0.472000719037     0.422967857211     0.273465600670
C                     0.330055912123    -0.942751283374     0.505347429522
C                     2.298308866819    -0.188766634061     1.268995378586
C                    -0.448042522455     1.415354587084    -0.349066968548
C                    -0.721568025986    -1.969885895025     0.212154737451
C                    -2.042843795190    -1.391508089228    -0.300235336939
C                    -1.852253801673    -0.410945601872    -1.465966778296
N                     1.691244946527     0.863286551433     0.757290959108
N                     6.186609759214    -2.542852281748     2.789174578789
N                     1.504410449589    -1.312495782636     1.128068396410
N                    -1.550637587386     0.948249027126    -1.034725558195
O                    -0.257334474794     2.625848705350    -0.243862527904
H                     5.621194688953     1.990751945120     3.625621013384
H                     3.472658075471     1.891945600918     2.383097137374
H                     7.007230958820    -0.057747357424     3.934086685815
H                     3.533473861659    -3.149994552019     0.949528133113
H                     5.686572744713    -4.432468942012     1.900773128767
H                    -0.327478750314    -2.672023539272    -0.536301687502
H                    -0.913799696547    -2.564886622830     1.114720917291
H                    -2.674762153048    -2.224369702769    -0.627833051582
H                    -2.574791708942    -0.875163817508     0.505210277372
H                    -1.079360793356    -0.791811770945    -2.149714286781
H                    -2.780211576282    -0.349682100013    -2.040203640126
H                     7.071904552710    -2.782373741447     3.211569379415
H                     1.687619945048    -2.217718839541     1.542279127508
H                    -2.074873018465     1.704001297659    -1.458769327927
