
  -OEChem-05262117483D

 34 37  0     0  0  0  0  0  0999 V2000
    5.5673   -1.2727    3.1432 C   0  0  0  0  0  0  0  0  0  0  0  0
    4.3390   -1.2585    2.4561 C   0  0  0  0  0  0  0  0  0  0  0  0
    6.1505   -0.0930    3.6018 C   0  0  0  0  0  0  0  0  0  0  0  0
    3.8251    2.5270    2.5829 C   0  0  0  0  0  0  0  0  0  0  0  0
    4.8053    3.2551    3.2144 C   0  0  0  0  0  0  0  0  0  0  0  0
    4.2213    1.1465    2.6526 C   0  0  0  0  0  0  0  0  0  0  0  0
    3.6440   -0.0680    2.2019 C   0  0  0  0  0  0  0  0  0  0  0  0
    5.4664    1.1004    3.3469 C   0  0  0  0  0  0  0  0  0  0  0  0
    0.5438    0.5510    0.4822 C   0  0  0  0  0  0  0  0  0  0  0  0
    0.4907   -0.8388    0.5345 C   0  0  0  0  0  0  0  0  0  0  0  0
    2.3618   -0.0613    1.5006 C   0  0  0  0  0  0  0  0  0  0  0  0
   -0.4113    1.5568   -0.0581 C   0  0  0  0  0  0  0  0  0  0  0  0
   -0.4696   -1.8840    0.0532 C   0  0  0  0  0  0  0  0  0  0  0  0
   -1.8089   -1.3293   -0.4386 C   0  0  0  0  0  0  0  0  0  0  0  0
   -1.6484   -0.1919   -1.4570 C   0  0  0  0  0  0  0  0  0  0  0  0
    1.7023    1.0033    1.0857 N   0  0  0  0  0  0  0  0  0  0  0  0
    5.7971    2.4012    3.6770 N   0  0  0  0  0  0  0  0  0  0  0  0
    1.6524   -1.2067    1.1804 N   0  0  0  0  0  0  0  0  0  0  0  0
   -1.4581    1.1158   -0.8409 N   0  0  0  0  0  0  0  0  0  0  0  0
   -0.2962    2.7550    0.1979 O   0  0  0  0  0  0  0  0  0  0  0  0
    6.0694   -2.2209    3.3139 H   0  0  0  0  0  0  0  0  0  0  0  0
    3.9444   -2.2095    2.1058 H   0  0  0  0  0  0  0  0  0  0  0  0
    7.0993   -0.1055    4.1327 H   0  0  0  0  0  0  0  0  0  0  0  0
    2.9302    2.9059    2.1123 H   0  0  0  0  0  0  0  0  0  0  0  0
    4.8823    4.3229    3.3731 H   0  0  0  0  0  0  0  0  0  0  0  0
    0.0034   -2.4474   -0.7637 H   0  0  0  0  0  0  0  0  0  0  0  0
   -0.6532   -2.6097    0.8563 H   0  0  0  0  0  0  0  0  0  0  0  0
   -2.3678   -2.1504   -0.9007 H   0  0  0  0  0  0  0  0  0  0  0  0
   -2.4047   -0.9617    0.4029 H   0  0  0  0  0  0  0  0  0  0  0  0
   -0.8285   -0.4274   -2.1514 H   0  0  0  0  0  0  0  0  0  0  0  0
   -2.5590   -0.1160   -2.0567 H   0  0  0  0  0  0  0  0  0  0  0  0
    6.6286    2.6839    4.1745 H   0  0  0  0  0  0  0  0  0  0  0  0
    1.9015   -2.1557    1.4267 H   0  0  0  0  0  0  0  0  0  0  0  0
   -2.0072    1.8877   -1.1994 H   0  0  0  0  0  0  0  0  0  0  0  0
  1  2  1  0  0  0  0
  1  3  2  0  0  0  0
  1 21  1  0  0  0  0
  2  7  2  0  0  0  0
  2 22  1  0  0  0  0
  3  8  1  0  0  0  0
  3 23  1  0  0  0  0
  4  5  2  0  0  0  0
  4  6  1  0  0  0  0
  4 24  1  0  0  0  0
  5 17  1  0  0  0  0
  5 25  1  0  0  0  0
  6  7  1  0  0  0  0
  6  8  2  0  0  0  0
  7 11  1  0  0  0  0
  8 17  1  0  0  0  0
  9 10  2  0  0  0  0
  9 12  1  0  0  0  0
  9 16  1  0  0  0  0
 10 13  1  0  0  0  0
 10 18  1  0  0  0  0
 11 16  2  0  0  0  0
 11 18  1  0  0  0  0
 12 19  1  0  0  0  0
 12 20  2  0  0  0  0
 13 14  1  0  0  0  0
 13 26  1  0  0  0  0
 13 27  1  0  0  0  0
 14 15  1  0  0  0  0
 14 28  1  0  0  0  0
 14 29  1  0  0  0  0
 15 19  1  0  0  0  0
 15 30  1  0  0  0  0
 15 31  1  0  0  0  0
 17 32  1  0  0  0  0
 18 33  1  0  0  0  0
 19 34  1  0  0  0  0
M  END
$$$$
