34
0 1 C15H14N4O
C                     5.567258873267    -1.272697841026     3.143245097784
C                     4.338972859368    -1.258490390730     2.456071362656
C                     6.150516592548    -0.093014245626     3.601835804832
C                     3.825115778747     2.527027692356     2.582898767311
C                     4.805317975799     3.255138444207     3.214387263937
C                     4.221273899183     1.146535119990     2.652570106573
C                     3.643953585249    -0.068028349859     2.201938685158
C                     5.466357373610     1.100417310205     3.346881214582
C                     0.543772013392     0.550975274127     0.482244303935
C                     0.490695142279    -0.838830938857     0.534475491656
C                     2.361758606115    -0.061328998122     1.500613788314
C                    -0.411275438028     1.556783250423    -0.058067208005
C                    -0.469574669073    -1.883970656932     0.053246996295
C                    -1.808872494247    -1.329283495719    -0.438610700690
C                    -1.648436230009    -0.191937199319    -1.457022614498
N                     1.702253012574     1.003340486464     1.085659917785
N                     5.797105497150     2.401192717225     3.677031431376
N                     1.652362518533    -1.206709617484     1.180418437333
N                    -1.458143607626     1.115765169140    -0.840872319324
O                    -0.296234577306     2.754970574764     0.197882108398
H                     6.069379099694    -2.220926060904     3.313864461964
H                     3.944373218735    -2.209467273459     2.105833187355
H                     7.099270449441    -0.105491339361     4.132686765977
H                     2.930191981475     2.905892481467     2.112294038922
H                     4.882254002688     4.322860445199     3.373134696148
H                     0.003445636864    -2.447387199497    -0.763655913182
H                    -0.653208834535    -2.609651019565     0.856334776876
H                    -2.367781325411    -2.150446101821    -0.900698427709
H                    -2.404711052454    -0.961719095438     0.402941764810
H                    -0.828477327433    -0.427383968036    -2.151425121995
H                    -2.559034023424    -0.116034285099    -2.056708153441
H                     6.628625085535     2.683898635720     4.174524685734
H                     1.901518792375    -2.155693359541     1.426748328066
H                    -2.007196349196     1.887741145102    -1.199426514491
