
  -OEChem-05262117483D

 25 26  0     0  0  0  0  0  0999 V2000
    5.8250    3.3599    0.8359 C   0  0  0  0  0  0  0  0  0  0  0  0
    7.0927    2.7957    0.7070 C   0  0  0  0  0  0  0  0  0  0  0  0
    4.7323    2.5104    1.0294 C   0  0  0  0  0  0  0  0  0  0  0  0
    0.8789   -1.1721    1.0464 C   0  0  0  0  0  0  0  0  0  0  0  0
    1.0409   -0.5431    3.3532 C   0  0  0  0  0  0  0  0  0  0  0  0
    7.2080    1.3993    0.7735 C   0  0  0  0  0  0  0  0  0  0  0  0
   -0.0469   -2.1394    1.4259 C   0  0  0  0  0  0  0  0  0  0  0  0
    1.4397   -0.3445    2.0302 C   0  0  0  0  0  0  0  0  0  0  0  0
    4.9490    1.1251    1.0716 C   0  0  0  0  0  0  0  0  0  0  0  0
    0.1028   -1.5494    3.6105 C   0  0  0  0  0  0  0  0  0  0  0  0
    3.8088    0.1422    1.2450 C   0  0  0  0  0  0  0  0  0  0  0  0
    2.4493    0.7166    1.6808 C   0  0  0  0  0  0  0  0  0  0  0  0
    6.1709    0.5794    0.9446 N   0  0  0  0  0  0  0  0  0  0  0  0
   -0.4393   -2.3305    2.6988 N   0  0  0  0  0  0  0  0  0  0  0  0
    3.9626   -1.0444    1.0339 O   0  0  0  0  0  0  0  0  0  0  0  0
   -0.4542   -1.8273    5.4387 Br  0  0  0  0  0  0  0  0  0  0  0  0
    5.6857    4.4366    0.7891 H   0  0  0  0  0  0  0  0  0  0  0  0
    7.9749    3.4120    0.5595 H   0  0  0  0  0  0  0  0  0  0  0  0
    3.7362    2.9267    1.1336 H   0  0  0  0  0  0  0  0  0  0  0  0
    1.1676   -1.0747    0.0043 H   0  0  0  0  0  0  0  0  0  0  0  0
    1.4410    0.0578    4.1633 H   0  0  0  0  0  0  0  0  0  0  0  0
    8.1840    0.9243    0.6830 H   0  0  0  0  0  0  0  0  0  0  0  0
   -0.4992   -2.7971    0.6867 H   0  0  0  0  0  0  0  0  0  0  0  0
    2.0717    1.3338    0.8552 H   0  0  0  0  0  0  0  0  0  0  0  0
    2.6015    1.3943    2.5266 H   0  0  0  0  0  0  0  0  0  0  0  0
  1  2  1  0  0  0  0
  1  3  2  0  0  0  0
  1 17  1  0  0  0  0
  2  6  2  0  0  0  0
  2 18  1  0  0  0  0
  3  9  1  0  0  0  0
  3 19  1  0  0  0  0
  4  7  2  0  0  0  0
  4  8  1  0  0  0  0
  4 20  1  0  0  0  0
  5  8  2  0  0  0  0
  5 10  1  0  0  0  0
  5 21  1  0  0  0  0
  6 13  1  0  0  0  0
  6 22  1  0  0  0  0
  7 14  1  0  0  0  0
  7 23  1  0  0  0  0
  8 12  1  0  0  0  0
  9 11  1  0  0  0  0
  9 13  2  0  0  0  0
 10 14  2  0  0  0  0
 10 16  1  0  0  0  0
 11 12  1  0  0  0  0
 11 15  2  0  0  0  0
 12 24  1  0  0  0  0
 12 25  1  0  0  0  0
M  END
$$$$
