
  -OEChem-05262117483D

 25 26  0     0  0  0  0  0  0999 V2000
    6.7695    1.3836   -0.6940 C   0  0  0  0  0  0  0  0  0  0  0  0
    6.4850    2.7475   -0.8012 C   0  0  0  0  0  0  0  0  0  0  0  0
    5.8096    0.5435   -0.1303 C   0  0  0  0  0  0  0  0  0  0  0  0
    0.4992   -0.8989    1.2685 C   0  0  0  0  0  0  0  0  0  0  0  0
    1.1849   -0.1227    3.4282 C   0  0  0  0  0  0  0  0  0  0  0  0
    5.2491    3.2134   -0.3370 C   0  0  0  0  0  0  0  0  0  0  0  0
   -0.3722   -1.7731    1.9117 C   0  0  0  0  0  0  0  0  0  0  0  0
    1.3016   -0.0448    2.0390 C   0  0  0  0  0  0  0  0  0  0  0  0
    4.6033    1.1077    0.3053 C   0  0  0  0  0  0  0  0  0  0  0  0
    0.2738   -1.0425    3.9585 C   0  0  0  0  0  0  0  0  0  0  0  0
    3.5501    0.2189    0.9149 C   0  0  0  0  0  0  0  0  0  0  0  0
    2.2728    0.9067    1.3952 C   0  0  0  0  0  0  0  0  0  0  0  0
    4.3222    2.4184    0.2074 N   0  0  0  0  0  0  0  0  0  0  0  0
   -0.4910   -1.8483    3.2497 N   0  0  0  0  0  0  0  0  0  0  0  0
    3.7279   -0.9858    1.0033 O   0  0  0  0  0  0  0  0  0  0  0  0
    0.1067   -1.1534    5.8801 Br  0  0  0  0  0  0  0  0  0  0  0  0
    7.7186    0.9852   -1.0427 H   0  0  0  0  0  0  0  0  0  0  0  0
    7.2006    3.4410   -1.2334 H   0  0  0  0  0  0  0  0  0  0  0  0
    5.9650   -0.5244   -0.0187 H   0  0  0  0  0  0  0  0  0  0  0  0
    0.5567   -0.8887    0.1836 H   0  0  0  0  0  0  0  0  0  0  0  0
    1.7794    0.5064    4.0825 H   0  0  0  0  0  0  0  0  0  0  0  0
    4.9970    4.2703   -0.4064 H   0  0  0  0  0  0  0  0  0  0  0  0
   -1.0077   -2.4470    1.3407 H   0  0  0  0  0  0  0  0  0  0  0  0
    1.8263    1.4084    0.5293 H   0  0  0  0  0  0  0  0  0  0  0  0
    2.5580    1.7166    2.0732 H   0  0  0  0  0  0  0  0  0  0  0  0
  1  2  1  0  0  0  0
  1  3  2  0  0  0  0
  1 17  1  0  0  0  0
  2  6  2  0  0  0  0
  2 18  1  0  0  0  0
  3  9  1  0  0  0  0
  3 19  1  0  0  0  0
  4  7  2  0  0  0  0
  4  8  1  0  0  0  0
  4 20  1  0  0  0  0
  5  8  2  0  0  0  0
  5 10  1  0  0  0  0
  5 21  1  0  0  0  0
  6 13  1  0  0  0  0
  6 22  1  0  0  0  0
  7 14  1  0  0  0  0
  7 23  1  0  0  0  0
  8 12  1  0  0  0  0
  9 11  1  0  0  0  0
  9 13  2  0  0  0  0
 10 14  2  0  0  0  0
 10 16  1  0  0  0  0
 11 12  1  0  0  0  0
 11 15  2  0  0  0  0
 12 24  1  0  0  0  0
 12 25  1  0  0  0  0
M  END
$$$$
