25
0 1 BrC12H9N2O
C                     5.135400055735    -0.624574171939     4.165489048363
C                     6.320372597435    -1.317615910822     3.923602521082
C                     4.353736342618    -0.238195299274     3.074409382255
C                     0.740918136834    -0.700980878739     2.302697751477
C                     1.953848629312    -2.260143309902     0.944490302566
C                     6.673237195652    -1.587400613024     2.593489667087
C                     0.035177737718    -1.781908454689     2.828523090194
C                     1.727929749190    -0.936283785340     1.335513155055
C                     4.798780859212    -0.544265603435     1.780628967695
C                     1.186773241787    -3.259997603360     1.549675363297
C                     4.014732144406    -0.131760929082     0.554530641177
C                     2.526379159225     0.194132946070     0.723378193054
N                     5.942384173410    -1.209183415108     1.544049251736
N                     0.254243598333    -3.055654087759     2.462645484606
O                     4.539626734494    -0.070813541813    -0.542031740050
Br                    1.505671658802    -5.088673432861     1.031743681655
H                     4.820264078105    -0.394444935675     5.179665311358
H                     6.959064053165    -1.648544801298     4.737525945899
H                     3.421197427978     0.290905635792     3.235733076675
H                     0.521400353589     0.307754791642     2.642797039592
H                     2.703987647290    -2.512806927961     0.202358709470
H                     7.587314583232    -2.134897055002     2.368037150842
H                    -0.738193726174    -1.628958254072     3.578786173770
H                     2.150927033945     0.424611904969    -0.277413103908
H                     2.413415879984     1.100759021097     1.328192205308
