
  -OEChem-05262117483D

 35 38  0     0  0  0  0  0  0999 V2000
    7.5304   -1.9479    2.9988 C   0  0  0  0  0  0  0  0  0  0  0  0
    6.1617   -1.6146    2.8290 C   0  0  0  0  0  0  0  0  0  0  0  0
    7.0838    4.2941   -4.0144 C   0  0  0  0  0  0  0  0  0  0  0  0
    6.0531    4.4003   -4.9730 C   0  0  0  0  0  0  0  0  0  0  0  0
    8.0135   -2.4488   -1.8178 C   0  0  0  0  0  0  0  0  0  0  0  0
    8.3159   -2.2383    1.9037 C   0  0  0  0  0  0  0  0  0  0  0  0
    5.6063   -1.5707    1.5672 C   0  0  0  0  0  0  0  0  0  0  0  0
    7.0675    3.2762   -3.0689 C   0  0  0  0  0  0  0  0  0  0  0  0
    8.5669   -2.5015   -0.5552 C   0  0  0  0  0  0  0  0  0  0  0  0
    6.6575   -2.0912   -1.9984 C   0  0  0  0  0  0  0  0  0  0  0  0
    4.9971    3.4925   -4.9985 C   0  0  0  0  0  0  0  0  0  0  0  0
    7.7752   -2.2058    0.5880 C   0  0  0  0  0  0  0  0  0  0  0  0
    6.3940   -1.8621    0.4206 C   0  0  0  0  0  0  0  0  0  0  0  0
    6.0068    2.3507   -3.0809 C   0  0  0  0  0  0  0  0  0  0  0  0
    5.8482   -1.7949   -0.9068 C   0  0  0  0  0  0  0  0  0  0  0  0
    5.8044    1.2278   -2.2008 C   0  0  0  0  0  0  0  0  0  0  0  0
    4.9771    2.4694   -4.0414 C   0  0  0  0  0  0  0  0  0  0  0  0
    4.6597    0.5028   -2.4863 C   0  0  0  0  0  0  0  0  0  0  0  0
    4.0045   -0.6080   -1.8048 C   0  0  0  0  0  0  0  0  0  0  0  0
    4.4761   -1.5444   -1.0582 N   0  0  0  0  0  0  0  0  0  0  0  0
    6.6894    1.0479   -1.1952 O   0  0  0  0  0  0  0  0  0  0  0  0
    3.7747    1.2145   -3.8576 S   0  0  0  0  0  0  0  0  0  0  0  0
    7.9571   -1.9754    3.9981 H   0  0  0  0  0  0  0  0  0  0  0  0
    5.5497   -1.3963    3.7002 H   0  0  0  0  0  0  0  0  0  0  0  0
    7.8959    5.0158   -4.0201 H   0  0  0  0  0  0  0  0  0  0  0  0
    6.0817    5.2040   -5.7039 H   0  0  0  0  0  0  0  0  0  0  0  0
    8.6195   -2.6761   -2.6908 H   0  0  0  0  0  0  0  0  0  0  0  0
    9.3648   -2.4953    2.0315 H   0  0  0  0  0  0  0  0  0  0  0  0
    4.5588   -1.3234    1.4282 H   0  0  0  0  0  0  0  0  0  0  0  0
    7.8541    3.1783   -2.3269 H   0  0  0  0  0  0  0  0  0  0  0  0
    9.6124   -2.7667   -0.4204 H   0  0  0  0  0  0  0  0  0  0  0  0
    6.2328   -2.0539   -2.9971 H   0  0  0  0  0  0  0  0  0  0  0  0
    4.2070    3.5804   -5.7391 H   0  0  0  0  0  0  0  0  0  0  0  0
    2.9192   -0.6332   -1.9426 H   0  0  0  0  0  0  0  0  0  0  0  0
    6.6094    0.1482   -0.8229 H   0  0  0  0  0  0  0  0  0  0  0  0
  1  2  1  0  0  0  0
  1  6  2  0  0  0  0
  1 23  1  0  0  0  0
  2  7  2  0  0  0  0
  2 24  1  0  0  0  0
  3  4  1  0  0  0  0
  3  8  2  0  0  0  0
  3 25  1  0  0  0  0
  4 11  2  0  0  0  0
  4 26  1  0  0  0  0
  5  9  1  0  0  0  0
  5 10  2  0  0  0  0
  5 27  1  0  0  0  0
  6 12  1  0  0  0  0
  6 28  1  0  0  0  0
  7 13  1  0  0  0  0
  7 29  1  0  0  0  0
  8 14  1  0  0  0  0
  8 30  1  0  0  0  0
  9 12  2  0  0  0  0
  9 31  1  0  0  0  0
 10 15  1  0  0  0  0
 10 32  1  0  0  0  0
 11 17  1  0  0  0  0
 11 33  1  0  0  0  0
 12 13  1  0  0  0  0
 13 15  2  0  0  0  0
 14 16  1  0  0  0  0
 14 17  2  0  0  0  0
 15 20  1  0  0  0  0
 16 18  2  0  0  0  0
 16 21  1  0  0  0  0
 17 22  1  0  0  0  0
 18 19  1  0  0  0  0
 18 22  1  0  0  0  0
 19 20  2  0  0  0  0
 19 34  1  0  0  0  0
 21 35  1  0  0  0  0
M  END
$$$$
