52
0 1 C21H27N3O
C                    -2.400599546615     2.531711143508    -3.412500421688
C                     2.364697153625     1.987463606183     1.156831426813
C                     1.720498884045     1.484461521809     0.001025328472
C                     2.295124987463     1.347283691378     2.398886086682
C                     0.950588546033    -0.355684520071     1.287724346516
C                     0.993549935468     0.294335333839     0.052328667455
C                     0.308343009154    -1.590329714721     1.604000150691
C                     1.560857147638     0.155602008163     2.454501505543
C                     0.515167244018    -1.806142654229     2.946248821453
C                    -0.325970182505    -2.358741115949     0.482756383430
C                    -0.478238808166     0.730023155956    -1.971094429939
C                    -1.791229223325    -1.208149281128    -2.863280036777
C                     0.217991345122    -0.344523045551    -1.090117658981
C                    -1.851273691394     0.268339799704    -2.485149602756
C                    -0.849836448978    -1.368030591932    -0.583332052804
C                    -3.262536119358    -4.414602464142    -2.458377829155
C                     0.719652229854    -4.241209306485     5.675385557472
C                    -2.319936148916     1.093597242563    -3.699739044623
C                     0.047324741292    -2.893540638687     3.851730164463
C                    -1.891601730983    -4.124756331086    -3.077906015926
C                    -0.957243526261    -3.345426776310    -2.139949432630
N                    -2.460434815057     3.666928067855    -3.166620215165
N                     1.242149223836    -0.729083289604     3.474998721526
N                    -1.526530459170    -2.068293176109    -1.703078936489
O                     1.115018611223    -3.261620573990     4.726396984027
H                     2.924836893315     2.915720053701     1.078423932731
H                     1.794949407909     2.049155286490    -0.924838767087
H                     2.785383463291     1.769925268504     3.272116274787
H                     0.435622775655    -3.014125847797     0.045138181057
H                    -1.153379625035    -2.995537334083     0.813084578395
H                    -0.601243103270     1.654913332609    -1.401953142474
H                     0.162616363218     0.974181647382    -2.827062995018
H                    -2.733685643865    -1.515298540579    -3.334437533097
H                    -1.003298448626    -1.326447772633    -3.634053833243
H                     0.923866515089    -0.907802880475    -1.716546776964
H                    -2.599063464189     0.396119633377    -1.695259761106
H                    -1.619126972306    -0.778884929499    -0.067985221916
H                    -3.159093256730    -4.996038416791    -1.534719540006
H                    -3.782993807247    -3.487518234106    -2.201701883648
H                    -3.893472694736    -4.987105762597    -3.146655618448
H                     1.588854495660    -4.450630325049     6.302433939794
H                     0.400474777697    -5.170796216638     5.181256764193
H                    -0.104312369578    -3.878382730315     6.308288285485
H                    -3.308845549503     0.758368908962    -4.031694157879
H                    -1.631099077520     0.952769915039    -4.541063736377
H                    -0.812502234750    -2.557148898404     4.456342306195
H                    -0.283848930686    -3.754935206963     3.254055398377
H                    -2.015008243101    -3.594372516999    -4.028658564561
H                    -1.388466399788    -5.067493612430    -3.326149078072
H                    -0.785428793096    -3.975088188073    -1.266262723346
H                     0.021223874433    -3.210808136830    -2.642772872069
H                     1.697547140183    -0.781918951161     4.376276159063
