44
0 1 C19H19N3O3
C                    -1.860587247344     0.039185900540     2.036002057741
C                     1.843506168999     2.031674107839    -1.473918718949
C                     1.619923151170     0.646307924490    -1.284233025784
C                     0.812123148072     2.974957378354    -1.421931264960
C                    -0.708215487933     1.097764751227    -1.089670678867
C                     0.329098768135     0.161173032376    -1.085360292356
C                    -2.088425998261     0.881453617834    -0.802467431429
C                    -0.482633360312     2.488216946707    -1.198825279219
C                    -2.676452154555     2.120983165764    -0.700098750913
C                     1.011119661341    -2.002671693541     0.010366258759
C                     0.991260164510    -2.161722434255     1.339099378428
C                     3.576621955397    -2.632611738272     3.861388812748
C                    -2.547724834377    -0.524300493417    -0.559928730278
C                    -0.104718767092    -1.604901117227     2.212505682000
C                    -0.069427383277    -1.277591767122    -0.754207776883
C                    -1.391257105769    -1.329120249841     0.063055967949
C                     4.163981321946    -1.620592062915     4.814256165187
C                    -4.022381395695     2.510488708437    -0.174143795530
C                     2.052099580864    -2.937609410811     2.060196193275
N                    -2.553943761999     0.841789526307     2.535377187972
N                    -1.713279372277     3.095656593403    -0.994484774636
N                    -1.088167984925    -0.850873297637     1.431346592271
O                     3.861359395787    -3.812968293622     3.813252964503
O                    -3.924098344253     3.170732758192     1.090010669933
O                     2.669313802696    -2.050817728448     3.033395433749
H                     2.861280297265     2.378409362844    -1.632594691071
H                     2.475193752675    -0.023523022411    -1.264963720296
H                     1.023642317233     4.036305429260    -1.522840517063
H                     1.846027042228    -2.405855736846    -0.559437537407
H                    -3.430197494057    -0.578209315773     0.084392361333
H                    -2.812865673174    -1.022566388837    -1.500953583585
H                    -0.592269967019    -2.427503360514     2.760280894532
H                     0.332710339096    -0.936243149822     2.959265236726
H                    -0.257140875312    -1.824536817029    -1.688906311345
H                    -1.695583400597    -2.381694701347     0.135700955046
H                     4.692127668951    -0.845569513208     4.250981749037
H                     4.853676459481    -2.119883572562     5.494017106571
H                     3.367950145928    -1.128426363626     5.380092979101
H                    -4.523481246749     3.220342216799    -0.840665612122
H                    -4.651739371953     1.613001947180    -0.112548732398
H                     2.816903110079    -3.305654028827     1.372584489920
H                     1.636410947777    -3.797299329955     2.596695205667
H                    -1.848299043415     4.074485300421    -0.779278494466
H                    -3.499751382438     2.547598376899     1.714479064640
