
  -OEChem-05262117483D

 67 69  0     1  0  0  0  0  0999 V2000
   -3.2943   -0.5127   -0.6301 C   0  0  0  0  0  0  0  0  0  0  0  0
    1.0027   -6.5832   -3.6465 C   0  0  0  0  0  0  0  0  0  0  0  0
    0.5595   -6.0977   -2.4176 C   0  0  0  0  0  0  0  0  0  0  0  0
    0.2740   -1.4286   -0.1852 C   0  0  0  0  0  0  0  0  0  0  0  0
   -2.0896   -1.2928   -0.5970 C   0  0  0  0  0  0  0  0  0  0  0  0
   -1.1869   -4.8534   -3.5636 C   0  0  0  0  0  0  0  0  0  0  0  0
   -2.1364   -2.6546   -0.9604 C   0  0  0  0  0  0  0  0  0  0  0  0
    0.3817   -6.2188   -4.8484 C   0  0  0  0  0  0  0  0  0  0  0  0
   -0.8910   -0.6633   -0.1957 C   0  0  0  0  0  0  0  0  0  0  0  0
   -0.5268   -5.2283   -2.3794 C   0  0  0  0  0  0  0  0  0  0  0  0
   -0.9513   -3.4005   -0.9044 C   0  0  0  0  0  0  0  0  0  0  0  0
    0.2574   -2.7808   -0.5381 C   0  0  0  0  0  0  0  0  0  0  0  0
   -0.7173   -5.3516   -4.7948 C   0  0  0  0  0  0  0  0  0  0  0  0
   -2.3287   -3.9038   -3.4582 C   0  0  0  0  0  0  0  0  0  0  0  0
   -3.4316   -3.2629   -1.4657 C   0  0  0  0  0  0  0  0  0  0  0  0
   -0.8762    0.7920    0.1997 C   0  0  0  0  0  0  0  0  0  0  0  0
    5.9488   -4.7049   -1.9022 C   0  0  0  0  0  0  0  0  0  0  0  0
    4.2215   -4.5139   -3.7310 C   0  0  0  0  0  0  0  0  0  0  0  0
    3.0206   -3.6777   -7.4263 C   0  0  0  0  0  0  0  0  0  0  0  0
    0.8111   -4.4247   -8.3804 C   0  0  0  0  0  0  0  0  0  0  0  0
   -2.6291   -5.5585   -6.1949 C   0  0  0  0  0  0  0  0  0  0  0  0
    3.5689   -4.1423   -1.2937 C   0  0  0  0  0  0  0  0  0  0  0  0
    2.0679   -5.8984   -6.7201 C   0  0  0  0  0  0  0  0  0  0  0  0
    2.3474   -3.2753   -1.5484 C   0  0  0  0  0  0  0  0  0  0  0  0
    0.9036   -6.7446   -6.1700 C   0  0  1  0  0  0  0  0  0  0  0  0
    4.6693   -3.9894   -2.3585 C   0  0  0  0  0  0  0  0  0  0  0  0
    1.7283   -4.4602   -7.1490 C   0  0  0  0  0  0  0  0  0  0  0  0
   -4.2633    0.1359   -0.6389 N   0  0  0  0  0  0  0  0  0  0  0  0
   -2.5010   -2.9033   -4.1174 O   0  0  0  0  0  0  0  0  0  0  0  0
   -0.9421   -4.7692   -1.1333 O   0  0  0  0  0  0  0  0  0  0  0  0
   -3.1563   -4.2909   -2.4315 O   0  0  0  0  0  0  0  0  0  0  0  0
    1.3465   -8.0941   -5.9320 O   0  0  0  0  0  0  0  0  0  0  0  0
   -1.3304   -4.9895   -5.9719 O   0  0  0  0  0  0  0  0  0  0  0  0
    1.3984   -3.5334   -0.4858 O   0  0  0  0  0  0  0  0  0  0  0  0
    1.8377   -7.2748   -3.6868 H   0  0  0  0  0  0  0  0  0  0  0  0
    1.0463   -6.3637   -1.4857 H   0  0  0  0  0  0  0  0  0  0  0  0
    1.2174   -0.9850    0.1206 H   0  0  0  0  0  0  0  0  0  0  0  0
   -3.9755   -3.7689   -0.6648 H   0  0  0  0  0  0  0  0  0  0  0  0
   -4.0723   -2.4903   -1.8966 H   0  0  0  0  0  0  0  0  0  0  0  0
   -1.2274    1.4267   -0.6204 H   0  0  0  0  0  0  0  0  0  0  0  0
   -1.5401    0.9761    1.0507 H   0  0  0  0  0  0  0  0  0  0  0  0
    0.1314    1.1117    0.4745 H   0  0  0  0  0  0  0  0  0  0  0  0
    5.7691   -5.7794   -1.7748 H   0  0  0  0  0  0  0  0  0  0  0  0
    6.3083   -4.3108   -0.9454 H   0  0  0  0  0  0  0  0  0  0  0  0
    6.7512   -4.5869   -2.6385 H   0  0  0  0  0  0  0  0  0  0  0  0
    3.9662   -5.5782   -3.6715 H   0  0  0  0  0  0  0  0  0  0  0  0
    5.0217   -4.4036   -4.4707 H   0  0  0  0  0  0  0  0  0  0  0  0
    3.3429   -3.9869   -4.1135 H   0  0  0  0  0  0  0  0  0  0  0  0
    3.5864   -4.1355   -8.2475 H   0  0  0  0  0  0  0  0  0  0  0  0
    2.7980   -2.6442   -7.7137 H   0  0  0  0  0  0  0  0  0  0  0  0
    3.6721   -3.6503   -6.5471 H   0  0  0  0  0  0  0  0  0  0  0  0
    1.2937   -4.9136   -9.2366 H   0  0  0  0  0  0  0  0  0  0  0  0
   -0.1435   -4.9188   -8.1888 H   0  0  0  0  0  0  0  0  0  0  0  0
    0.5917   -3.3909   -8.6679 H   0  0  0  0  0  0  0  0  0  0  0  0
   -2.9505   -5.2006   -7.1742 H   0  0  0  0  0  0  0  0  0  0  0  0
   -3.3503   -5.2294   -5.4405 H   0  0  0  0  0  0  0  0  0  0  0  0
   -2.5726   -6.6537   -6.1958 H   0  0  0  0  0  0  0  0  0  0  0  0
    3.9691   -3.8835   -0.3065 H   0  0  0  0  0  0  0  0  0  0  0  0
    3.2527   -5.1908   -1.2414 H   0  0  0  0  0  0  0  0  0  0  0  0
    2.4858   -6.4263   -7.5918 H   0  0  0  0  0  0  0  0  0  0  0  0
    2.8537   -5.8851   -5.9564 H   0  0  0  0  0  0  0  0  0  0  0  0
    2.6181   -2.2112   -1.5511 H   0  0  0  0  0  0  0  0  0  0  0  0
    1.8686   -3.5114   -2.5045 H   0  0  0  0  0  0  0  0  0  0  0  0
    0.0830   -6.7524   -6.8948 H   0  0  0  0  0  0  0  0  0  0  0  0
    4.9008   -2.9192   -2.4601 H   0  0  0  0  0  0  0  0  0  0  0  0
    1.2043   -3.9673   -6.3209 H   0  0  0  0  0  0  0  0  0  0  0  0
    1.7784   -8.4056   -6.7429 H   0  0  0  0  0  0  0  0  0  0  0  0
  1  5  1  0  0  0  0
  1 28  3  0  0  0  0
  2  3  1  0  0  0  0
  2  8  2  0  0  0  0
  2 35  1  0  0  0  0
  3 10  2  0  0  0  0
  3 36  1  0  0  0  0
  4  9  1  0  0  0  0
  4 12  2  0  0  0  0
  4 37  1  0  0  0  0
  5  7  1  0  0  0  0
  5  9  2  0  0  0  0
  6 10  1  0  0  0  0
  6 13  2  0  0  0  0
  6 14  1  0  0  0  0
  7 11  2  0  0  0  0
  7 15  1  0  0  0  0
  8 13  1  0  0  0  0
  8 25  1  0  0  0  0
  9 16  1  0  0  0  0
 10 30  1  0  0  0  0
 11 12  1  0  0  0  0
 11 30  1  0  0  0  0
 12 34  1  0  0  0  0
 13 33  1  0  0  0  0
 14 29  2  0  0  0  0
 14 31  1  0  0  0  0
 15 31  1  0  0  0  0
 15 38  1  0  0  0  0
 15 39  1  0  0  0  0
 16 40  1  0  0  0  0
 16 41  1  0  0  0  0
 16 42  1  0  0  0  0
 17 26  1  0  0  0  0
 17 43  1  0  0  0  0
 17 44  1  0  0  0  0
 17 45  1  0  0  0  0
 18 26  1  0  0  0  0
 18 46  1  0  0  0  0
 18 47  1  0  0  0  0
 18 48  1  0  0  0  0
 19 27  1  0  0  0  0
 19 49  1  0  0  0  0
 19 50  1  0  0  0  0
 19 51  1  0  0  0  0
 20 27  1  0  0  0  0
 20 52  1  0  0  0  0
 20 53  1  0  0  0  0
 20 54  1  0  0  0  0
 21 33  1  0  0  0  0
 21 55  1  0  0  0  0
 21 56  1  0  0  0  0
 21 57  1  0  0  0  0
 22 24  1  0  0  0  0
 22 26  1  0  0  0  0
 22 58  1  0  0  0  0
 22 59  1  0  0  0  0
 23 25  1  0  0  0  0
 23 27  1  0  0  0  0
 23 60  1  0  0  0  0
 23 61  1  0  0  0  0
 24 34  1  0  0  0  0
 24 62  1  0  0  0  0
 24 63  1  0  0  0  0
 25 32  1  0  0  0  0
 25 64  1  0  0  0  0
 26 65  1  0  0  0  0
 27 66  1  0  0  0  0
 32 67  1  0  0  0  0
M  END
$$$$
