
  -OEChem-05262117483D

 52 55  0     1  0  0  0  0  0999 V2000
   -1.8258    3.1691   -3.5480 C   0  0  0  0  0  0  0  0  0  0  0  0
    2.2253    2.4096    1.6380 C   0  0  0  0  0  0  0  0  0  0  0  0
    1.6817    1.9342    0.4204 C   0  0  0  0  0  0  0  0  0  0  0  0
    1.9989    1.7748    2.8637 C   0  0  0  0  0  0  0  0  0  0  0  0
    0.6725    0.1498    1.6193 C   0  0  0  0  0  0  0  0  0  0  0  0
    0.8879    0.7870    0.3946 C   0  0  0  0  0  0  0  0  0  0  0  0
   -0.1158   -1.0126    1.8775 C   0  0  0  0  0  0  0  0  0  0  0  0
    1.2063    0.6199    2.8396 C   0  0  0  0  0  0  0  0  0  0  0  0
   -0.0519   -1.2350    3.2334 C   0  0  0  0  0  0  0  0  0  0  0  0
   -0.7270   -1.7382    0.7165 C   0  0  0  0  0  0  0  0  0  0  0  0
   -0.2770    1.2660   -1.8189 C   0  0  0  0  0  0  0  0  0  0  0  0
   -1.6389   -0.5877   -2.8227 C   0  0  0  0  0  0  0  0  0  0  0  0
    0.2098    0.1771   -0.8217 C   0  0  2  0  0  0  0  0  0  0  0  0
   -1.6103    0.9029   -2.4969 C   0  0  2  0  0  0  0  0  0  0  0  0
   -0.9993   -0.7347   -0.4300 C   0  0  1  0  0  0  0  0  0  0  0  0
    0.4102   -4.5767   -2.6685 C   0  0  0  0  0  0  0  0  0  0  0  0
   -1.5486   -2.7519    6.2118 C   0  0  0  0  0  0  0  0  0  0  0  0
   -1.8423    1.7194   -3.7834 C   0  0  0  0  0  0  0  0  0  0  0  0
   -0.6242   -2.3220    4.0775 C   0  0  0  0  0  0  0  0  0  0  0  0
    0.2258   -3.0927   -2.3317 C   0  0  0  0  0  0  0  0  0  0  0  0
   -1.2264   -2.7896   -1.9044 C   0  0  0  0  0  0  0  0  0  0  0  0
   -1.8105    4.3140   -3.3433 N   0  0  0  0  0  0  0  0  0  0  0  0
    0.7795   -0.2689    3.8166 N   0  0  0  0  0  0  0  0  0  0  0  0
   -1.5891   -1.4047   -1.6080 N   0  0  2  0  0  0  0  0  0  0  0  0
   -1.0629   -1.7632    5.3158 O   0  0  0  0  0  0  0  0  0  0  0  0
    2.8374    3.3078    1.6198 H   0  0  0  0  0  0  0  0  0  0  0  0
    1.8858    2.4876   -0.4926 H   0  0  0  0  0  0  0  0  0  0  0  0
    2.4229    2.1699    3.7833 H   0  0  0  0  0  0  0  0  0  0  0  0
   -0.0400   -2.5232    0.3829 H   0  0  0  0  0  0  0  0  0  0  0  0
   -1.6687   -2.2305    0.9833 H   0  0  0  0  0  0  0  0  0  0  0  0
   -0.3929    2.2203   -1.2989 H   0  0  0  0  0  0  0  0  0  0  0  0
    0.4869    1.4231   -2.5901 H   0  0  0  0  0  0  0  0  0  0  0  0
   -2.5497   -0.8436   -3.3835 H   0  0  0  0  0  0  0  0  0  0  0  0
   -0.7890   -0.7916   -3.4998 H   0  0  0  0  0  0  0  0  0  0  0  0
    0.9390   -0.4622   -1.3350 H   0  0  0  0  0  0  0  0  0  0  0  0
   -2.4374    1.1250   -1.8144 H   0  0  0  0  0  0  0  0  0  0  0  0
   -1.7637   -0.0567   -0.0274 H   0  0  0  0  0  0  0  0  0  0  0  0
    0.1725   -5.2103   -1.8058 H   0  0  0  0  0  0  0  0  0  0  0  0
   -0.2467   -4.8807   -3.4919 H   0  0  0  0  0  0  0  0  0  0  0  0
    1.4408   -4.7949   -2.9668 H   0  0  0  0  0  0  0  0  0  0  0  0
   -1.8500   -2.2367    7.1263 H   0  0  0  0  0  0  0  0  0  0  0  0
   -0.7712   -3.4925    6.4529 H   0  0  0  0  0  0  0  0  0  0  0  0
   -2.4187   -3.2784    5.7925 H   0  0  0  0  0  0  0  0  0  0  0  0
   -2.8075    1.4598   -4.2321 H   0  0  0  0  0  0  0  0  0  0  0  0
   -1.0678    1.4864   -4.5238 H   0  0  0  0  0  0  0  0  0  0  0  0
   -1.4590   -2.8018    3.5455 H   0  0  0  0  0  0  0  0  0  0  0  0
    0.1309   -3.1009    4.2812 H   0  0  0  0  0  0  0  0  0  0  0  0
    0.4986   -2.4849   -3.2020 H   0  0  0  0  0  0  0  0  0  0  0  0
    0.9185   -2.8113   -1.5312 H   0  0  0  0  0  0  0  0  0  0  0  0
   -1.8954   -3.1180   -2.7115 H   0  0  0  0  0  0  0  0  0  0  0  0
   -1.4805   -3.4187   -1.0459 H   0  0  0  0  0  0  0  0  0  0  0  0
    0.7801   -0.0966    4.8132 H   0  0  0  0  0  0  0  0  0  0  0  0
  1 18  1  0  0  0  0
  1 22  3  0  0  0  0
  2  3  1  0  0  0  0
  2  4  2  0  0  0  0
  2 26  1  0  0  0  0
  3  6  2  0  0  0  0
  3 27  1  0  0  0  0
  4  8  1  0  0  0  0
  4 28  1  0  0  0  0
  5  6  1  0  0  0  0
  5  7  1  0  0  0  0
  5  8  2  0  0  0  0
  6 13  1  0  0  0  0
  7  9  2  0  0  0  0
  7 10  1  0  0  0  0
  8 23  1  0  0  0  0
  9 19  1  0  0  0  0
  9 23  1  0  0  0  0
 10 15  1  0  0  0  0
 10 29  1  0  0  0  0
 10 30  1  0  0  0  0
 11 13  1  0  0  0  0
 11 14  1  0  0  0  0
 11 31  1  0  0  0  0
 11 32  1  0  0  0  0
 12 14  1  0  0  0  0
 12 24  1  0  0  0  0
 12 33  1  0  0  0  0
 12 34  1  0  0  0  0
 13 15  1  0  0  0  0
 13 35  1  0  0  0  0
 14 18  1  0  0  0  0
 14 36  1  0  0  0  0
 15 24  1  0  0  0  0
 15 37  1  0  0  0  0
 16 20  1  0  0  0  0
 16 38  1  0  0  0  0
 16 39  1  0  0  0  0
 16 40  1  0  0  0  0
 17 25  1  0  0  0  0
 17 41  1  0  0  0  0
 17 42  1  0  0  0  0
 17 43  1  0  0  0  0
 18 44  1  0  0  0  0
 18 45  1  0  0  0  0
 19 25  1  0  0  0  0
 19 46  1  0  0  0  0
 19 47  1  0  0  0  0
 20 21  1  0  0  0  0
 20 48  1  0  0  0  0
 20 49  1  0  0  0  0
 21 24  1  0  0  0  0
 21 50  1  0  0  0  0
 21 51  1  0  0  0  0
 23 52  1  0  0  0  0
M  END
$$$$
