
  -OEChem-05262117483D

 39 41  0     1  0  0  0  0  0999 V2000
   -0.2624    1.9790   -0.7259 C   0  0  0  0  0  0  0  0  0  0  0  0
    1.6509   -3.4124   -4.9483 C   0  0  0  0  0  0  0  0  0  0  0  0
    0.8600   -4.1027   -4.0238 C   0  0  0  0  0  0  0  0  0  0  0  0
    1.6633   -2.0134   -4.9366 C   0  0  0  0  0  0  0  0  0  0  0  0
    0.0893   -3.3966   -3.0949 C   0  0  0  0  0  0  0  0  0  0  0  0
    0.8909   -1.3128   -4.0057 C   0  0  0  0  0  0  0  0  0  0  0  0
    1.2855   -3.1157    2.7065 C   0  0  0  0  0  0  0  0  0  0  0  0
    2.3692   -1.4286    2.0703 C   0  0  0  0  0  0  0  0  0  0  0  0
    0.0936   -1.9944   -3.0741 C   0  0  0  0  0  0  0  0  0  0  0  0
   -2.6452    1.1460   -0.5889 C   0  0  0  0  0  0  0  0  0  0  0  0
   -2.3045    1.7369    0.7465 C   0  0  0  0  0  0  0  0  0  0  0  0
   -1.2050    1.0866   -0.0919 C   0  0  0  0  0  0  0  0  0  0  0  0
   -0.6950   -1.2311   -2.0344 C   0  0  0  0  0  0  0  0  0  0  0  0
    0.1605   -0.9558   -0.7868 C   0  0  0  0  0  0  0  0  0  0  0  0
    0.3653    0.0510    1.5331 C   0  0  0  0  0  0  0  0  0  0  0  0
   -0.5960   -0.2555    0.3581 C   0  0  1  0  0  0  0  0  0  0  0  0
    0.5183    2.6831   -1.2282 N   0  0  0  0  0  0  0  0  0  0  0  0
    2.5563   -2.6663    2.5153 N   0  0  0  0  0  0  0  0  0  0  0  0
    0.3340   -2.2322    2.4140 N   0  0  0  0  0  0  0  0  0  0  0  0
    1.0500   -1.1430    2.0075 N   0  0  0  0  0  0  0  0  0  0  0  0
   -1.6852   -1.0521    0.8163 O   0  0  0  0  0  0  0  0  0  0  0  0
    2.2491   -3.9591   -5.6728 H   0  0  0  0  0  0  0  0  0  0  0  0
    0.8413   -5.1898   -4.0282 H   0  0  0  0  0  0  0  0  0  0  0  0
    2.2722   -1.4685   -5.6539 H   0  0  0  0  0  0  0  0  0  0  0  0
   -0.5259   -3.9395   -2.3797 H   0  0  0  0  0  0  0  0  0  0  0  0
    0.9045   -0.2244   -4.0015 H   0  0  0  0  0  0  0  0  0  0  0  0
    1.0485   -4.1075    3.0689 H   0  0  0  0  0  0  0  0  0  0  0  0
    3.1397   -0.7216    1.7904 H   0  0  0  0  0  0  0  0  0  0  0  0
   -3.1703    0.1987   -0.5973 H   0  0  0  0  0  0  0  0  0  0  0  0
   -2.8491    1.8143   -1.4188 H   0  0  0  0  0  0  0  0  0  0  0  0
   -2.2762    2.8164    0.8506 H   0  0  0  0  0  0  0  0  0  0  0  0
   -2.6085    1.1792    1.6255 H   0  0  0  0  0  0  0  0  0  0  0  0
   -1.0405   -0.2846   -2.4606 H   0  0  0  0  0  0  0  0  0  0  0  0
   -1.5828   -1.7968   -1.7365 H   0  0  0  0  0  0  0  0  0  0  0  0
    1.0321   -0.3562   -1.0725 H   0  0  0  0  0  0  0  0  0  0  0  0
    0.5467   -1.9080   -0.4084 H   0  0  0  0  0  0  0  0  0  0  0  0
   -0.2060    0.4829    2.3589 H   0  0  0  0  0  0  0  0  0  0  0  0
    1.1318    0.7648    1.2242 H   0  0  0  0  0  0  0  0  0  0  0  0
   -1.3126   -1.7465    1.3997 H   0  0  0  0  0  0  0  0  0  0  0  0
  1 12  1  0  0  0  0
  1 17  3  0  0  0  0
  2  3  1  0  0  0  0
  2  4  2  0  0  0  0
  2 22  1  0  0  0  0
  3  5  2  0  0  0  0
  3 23  1  0  0  0  0
  4  6  1  0  0  0  0
  4 24  1  0  0  0  0
  5  9  1  0  0  0  0
  5 25  1  0  0  0  0
  6  9  2  0  0  0  0
  6 26  1  0  0  0  0
  7 18  1  0  0  0  0
  7 19  2  0  0  0  0
  7 27  1  0  0  0  0
  8 18  2  0  0  0  0
  8 20  1  0  0  0  0
  8 28  1  0  0  0  0
  9 13  1  0  0  0  0
 10 11  1  0  0  0  0
 10 12  1  0  0  0  0
 10 29  1  0  0  0  0
 10 30  1  0  0  0  0
 11 12  1  0  0  0  0
 11 31  1  0  0  0  0
 11 32  1  0  0  0  0
 12 16  1  0  0  0  0
 13 14  1  0  0  0  0
 13 33  1  0  0  0  0
 13 34  1  0  0  0  0
 14 16  1  0  0  0  0
 14 35  1  0  0  0  0
 14 36  1  0  0  0  0
 15 16  1  0  0  0  0
 15 20  1  0  0  0  0
 15 37  1  0  0  0  0
 15 38  1  0  0  0  0
 16 21  1  0  0  0  0
 19 20  1  0  0  0  0
 21 39  1  0  0  0  0
M  END
$$$$
