
  -OEChem-05262117483D

 52 55  0     1  0  0  0  0  0999 V2000
   -3.3658    1.4466   -4.3450 C   0  0  0  0  0  0  0  0  0  0  0  0
    1.9893    2.3803    1.6667 C   0  0  0  0  0  0  0  0  0  0  0  0
    1.4700    1.9062    0.4380 C   0  0  0  0  0  0  0  0  0  0  0  0
    1.7843    1.7140    2.8797 C   0  0  0  0  0  0  0  0  0  0  0  0
    0.5382    0.0566    1.5972 C   0  0  0  0  0  0  0  0  0  0  0  0
    0.7248    0.7268    0.3866 C   0  0  0  0  0  0  0  0  0  0  0  0
   -0.1883   -1.1509    1.8239 C   0  0  0  0  0  0  0  0  0  0  0  0
    1.0444    0.5255    2.8297 C   0  0  0  0  0  0  0  0  0  0  0  0
   -0.1192   -1.4005    3.1745 C   0  0  0  0  0  0  0  0  0  0  0  0
   -0.7218   -1.8866    0.6319 C   0  0  0  0  0  0  0  0  0  0  0  0
   -0.5314    1.2462   -1.7540 C   0  0  0  0  0  0  0  0  0  0  0  0
   -1.7223   -0.6637   -2.8552 C   0  0  0  0  0  0  0  0  0  0  0  0
    0.0511    0.1328   -0.8413 C   0  0  2  0  0  0  0  0  0  0  0  0
   -1.8213    0.8072   -2.4676 C   0  0  2  0  0  0  0  0  0  0  0  0
   -1.0915   -0.8706   -0.4745 C   0  0  1  0  0  0  0  0  0  0  0  0
   -1.3585   -4.9895   -3.3460 C   0  0  0  0  0  0  0  0  0  0  0  0
   -1.5544   -3.0626    6.1056 C   0  0  0  0  0  0  0  0  0  0  0  0
   -2.0717    1.7017   -3.6980 C   0  0  0  0  0  0  0  0  0  0  0  0
   -0.6341   -2.5364    3.9910 C   0  0  0  0  0  0  0  0  0  0  0  0
   -1.8626   -3.5565   -3.1414 C   0  0  0  0  0  0  0  0  0  0  0  0
   -1.0714   -2.8343   -2.0432 C   0  0  0  0  0  0  0  0  0  0  0  0
   -4.3940    1.2299   -4.8438 N   0  0  0  0  0  0  0  0  0  0  0  0
    0.6571   -0.4043    3.7844 N   0  0  0  0  0  0  0  0  0  0  0  0
   -1.6519   -1.5400   -1.6763 N   0  0  2  0  0  0  0  0  0  0  0  0
   -1.1113   -2.0297    5.2374 O   0  0  0  0  0  0  0  0  0  0  0  0
    2.5648    3.3025    1.6683 H   0  0  0  0  0  0  0  0  0  0  0  0
    1.6539    2.4851   -0.4637 H   0  0  0  0  0  0  0  0  0  0  0  0
    2.1875    2.1097    3.8083 H   0  0  0  0  0  0  0  0  0  0  0  0
    0.0549   -2.5700    0.2709 H   0  0  0  0  0  0  0  0  0  0  0  0
   -1.6031   -2.4932    0.8678 H   0  0  0  0  0  0  0  0  0  0  0  0
   -0.7378    2.1395   -1.1563 H   0  0  0  0  0  0  0  0  0  0  0  0
    0.2184    1.5348   -2.5009 H   0  0  0  0  0  0  0  0  0  0  0  0
   -2.5835   -0.9524   -3.4657 H   0  0  0  0  0  0  0  0  0  0  0  0
   -0.8241   -0.7829   -3.4953 H   0  0  0  0  0  0  0  0  0  0  0  0
    0.8013   -0.4317   -1.4124 H   0  0  0  0  0  0  0  0  0  0  0  0
   -2.6742    0.9298   -1.7919 H   0  0  0  0  0  0  0  0  0  0  0  0
   -1.9004   -0.2664   -0.0439 H   0  0  0  0  0  0  0  0  0  0  0  0
   -0.2967   -5.0026   -3.6190 H   0  0  0  0  0  0  0  0  0  0  0  0
   -1.4738   -5.5864   -2.4338 H   0  0  0  0  0  0  0  0  0  0  0  0
   -1.9123   -5.4929   -4.1451 H   0  0  0  0  0  0  0  0  0  0  0  0
   -1.8894   -2.5848    7.0286 H   0  0  0  0  0  0  0  0  0  0  0  0
   -0.7426   -3.7685    6.3372 H   0  0  0  0  0  0  0  0  0  0  0  0
   -2.3930   -3.6219    5.6654 H   0  0  0  0  0  0  0  0  0  0  0  0
   -1.2816    1.5508   -4.4429 H   0  0  0  0  0  0  0  0  0  0  0  0
   -2.0393    2.7573   -3.4065 H   0  0  0  0  0  0  0  0  0  0  0  0
   -1.4370   -3.0506    3.4427 H   0  0  0  0  0  0  0  0  0  0  0  0
    0.1629   -3.2753    4.1836 H   0  0  0  0  0  0  0  0  0  0  0  0
   -2.9219   -3.5638   -2.8581 H   0  0  0  0  0  0  0  0  0  0  0  0
   -1.7929   -3.0149   -4.0904 H   0  0  0  0  0  0  0  0  0  0  0  0
   -1.0763   -3.4854   -1.1680 H   0  0  0  0  0  0  0  0  0  0  0  0
   -0.0152   -2.7390   -2.3696 H   0  0  0  0  0  0  0  0  0  0  0  0
    0.6460   -0.2558    4.7846 H   0  0  0  0  0  0  0  0  0  0  0  0
  1 18  1  0  0  0  0
  1 22  3  0  0  0  0
  2  3  1  0  0  0  0
  2  4  2  0  0  0  0
  2 26  1  0  0  0  0
  3  6  2  0  0  0  0
  3 27  1  0  0  0  0
  4  8  1  0  0  0  0
  4 28  1  0  0  0  0
  5  6  1  0  0  0  0
  5  7  1  0  0  0  0
  5  8  2  0  0  0  0
  6 13  1  0  0  0  0
  7  9  2  0  0  0  0
  7 10  1  0  0  0  0
  8 23  1  0  0  0  0
  9 19  1  0  0  0  0
  9 23  1  0  0  0  0
 10 15  1  0  0  0  0
 10 29  1  0  0  0  0
 10 30  1  0  0  0  0
 11 13  1  0  0  0  0
 11 14  1  0  0  0  0
 11 31  1  0  0  0  0
 11 32  1  0  0  0  0
 12 14  1  0  0  0  0
 12 24  1  0  0  0  0
 12 33  1  0  0  0  0
 12 34  1  0  0  0  0
 13 15  1  0  0  0  0
 13 35  1  0  0  0  0
 14 18  1  0  0  0  0
 14 36  1  0  0  0  0
 15 24  1  0  0  0  0
 15 37  1  0  0  0  0
 16 20  1  0  0  0  0
 16 38  1  0  0  0  0
 16 39  1  0  0  0  0
 16 40  1  0  0  0  0
 17 25  1  0  0  0  0
 17 41  1  0  0  0  0
 17 42  1  0  0  0  0
 17 43  1  0  0  0  0
 18 44  1  0  0  0  0
 18 45  1  0  0  0  0
 19 25  1  0  0  0  0
 19 46  1  0  0  0  0
 19 47  1  0  0  0  0
 20 21  1  0  0  0  0
 20 48  1  0  0  0  0
 20 49  1  0  0  0  0
 21 24  1  0  0  0  0
 21 50  1  0  0  0  0
 21 51  1  0  0  0  0
 23 52  1  0  0  0  0
M  END
$$$$
