
  -OEChem-05262117483D

 39 41  0     1  0  0  0  0  0999 V2000
    0.3539    1.8046   -0.4017 C   0  0  0  0  0  0  0  0  0  0  0  0
    2.9280   -4.1599   -4.1186 C   0  0  0  0  0  0  0  0  0  0  0  0
    3.6655   -3.3599   -3.2393 C   0  0  0  0  0  0  0  0  0  0  0  0
    1.5928   -4.4568   -3.8270 C   0  0  0  0  0  0  0  0  0  0  0  0
    3.0697   -2.8607   -2.0778 C   0  0  0  0  0  0  0  0  0  0  0  0
    1.0014   -3.9541   -2.6641 C   0  0  0  0  0  0  0  0  0  0  0  0
   -1.0034    1.7558    3.8814 C   0  0  0  0  0  0  0  0  0  0  0  0
   -1.3085   -0.2710    3.4089 C   0  0  0  0  0  0  0  0  0  0  0  0
    1.7316   -3.1519   -1.7762 C   0  0  0  0  0  0  0  0  0  0  0  0
   -1.9654    1.0764   -1.0786 C   0  0  0  0  0  0  0  0  0  0  0  0
   -2.0429    1.5227    0.3522 C   0  0  0  0  0  0  0  0  0  0  0  0
   -0.7527    0.9043   -0.1675 C   0  0  0  0  0  0  0  0  0  0  0  0
    1.0761   -2.5612   -0.5469 C   0  0  0  0  0  0  0  0  0  0  0  0
    0.5202   -1.1524   -0.8407 C   0  0  0  0  0  0  0  0  0  0  0  0
    0.4633   -0.4458    1.6041 C   0  0  0  0  0  0  0  0  0  0  0  0
   -0.3242   -0.5079    0.2744 C   0  0  1  0  0  0  0  0  0  0  0  0
    1.2602    2.5042   -0.6146 N   0  0  0  0  0  0  0  0  0  0  0  0
   -1.7895    0.6820    4.1962 N   0  0  0  0  0  0  0  0  0  0  0  0
   -0.0778    1.5223    2.9584 N   0  0  0  0  0  0  0  0  0  0  0  0
   -0.2805    0.2053    2.6661 N   0  0  0  0  0  0  0  0  0  0  0  0
   -1.5344   -1.2468    0.5026 O   0  0  0  0  0  0  0  0  0  0  0  0
    3.3906   -4.5506   -5.0210 H   0  0  0  0  0  0  0  0  0  0  0  0
    4.7046   -3.1266   -3.4569 H   0  0  0  0  0  0  0  0  0  0  0  0
    1.0137   -5.0813   -4.5025 H   0  0  0  0  0  0  0  0  0  0  0  0
    3.6503   -2.2395   -1.3984 H   0  0  0  0  0  0  0  0  0  0  0  0
   -0.0378   -4.1923   -2.4432 H   0  0  0  0  0  0  0  0  0  0  0  0
   -1.1081    2.7278    4.3462 H   0  0  0  0  0  0  0  0  0  0  0  0
   -1.6660   -1.2887    3.3348 H   0  0  0  0  0  0  0  0  0  0  0  0
   -2.4844    0.1626   -1.3457 H   0  0  0  0  0  0  0  0  0  0  0  0
   -1.8901    1.8255   -1.8595 H   0  0  0  0  0  0  0  0  0  0  0  0
   -2.0151    2.5828    0.5763 H   0  0  0  0  0  0  0  0  0  0  0  0
   -2.6166    0.9131    1.0402 H   0  0  0  0  0  0  0  0  0  0  0  0
    0.2787   -3.2382   -0.2116 H   0  0  0  0  0  0  0  0  0  0  0  0
    1.8052   -2.5146    0.2681 H   0  0  0  0  0  0  0  0  0  0  0  0
   -0.1030   -1.1917   -1.7409 H   0  0  0  0  0  0  0  0  0  0  0  0
    1.3586   -0.4912   -1.0783 H   0  0  0  0  0  0  0  0  0  0  0  0
    1.3953    0.1076    1.4779 H   0  0  0  0  0  0  0  0  0  0  0  0
    0.7004   -1.4616    1.9277 H   0  0  0  0  0  0  0  0  0  0  0  0
   -1.4009   -2.1565    0.1973 H   0  0  0  0  0  0  0  0  0  0  0  0
  1 12  1  0  0  0  0
  1 17  3  0  0  0  0
  2  3  1  0  0  0  0
  2  4  2  0  0  0  0
  2 22  1  0  0  0  0
  3  5  2  0  0  0  0
  3 23  1  0  0  0  0
  4  6  1  0  0  0  0
  4 24  1  0  0  0  0
  5  9  1  0  0  0  0
  5 25  1  0  0  0  0
  6  9  2  0  0  0  0
  6 26  1  0  0  0  0
  7 18  1  0  0  0  0
  7 19  2  0  0  0  0
  7 27  1  0  0  0  0
  8 18  2  0  0  0  0
  8 20  1  0  0  0  0
  8 28  1  0  0  0  0
  9 13  1  0  0  0  0
 10 11  1  0  0  0  0
 10 12  1  0  0  0  0
 10 29  1  0  0  0  0
 10 30  1  0  0  0  0
 11 12  1  0  0  0  0
 11 31  1  0  0  0  0
 11 32  1  0  0  0  0
 12 16  1  0  0  0  0
 13 14  1  0  0  0  0
 13 33  1  0  0  0  0
 13 34  1  0  0  0  0
 14 16  1  0  0  0  0
 14 35  1  0  0  0  0
 14 36  1  0  0  0  0
 15 16  1  0  0  0  0
 15 20  1  0  0  0  0
 15 37  1  0  0  0  0
 15 38  1  0  0  0  0
 16 21  1  0  0  0  0
 19 20  1  0  0  0  0
 21 39  1  0  0  0  0
M  END
$$$$
