
  -OEChem-05262117483D

 52 55  0     1  0  0  0  0  0999 V2000
    3.8174   -0.4793    3.1291 C   0  0  0  0  0  0  0  0  0  0  0  0
    0.0689    3.0377   -1.0793 C   0  0  0  0  0  0  0  0  0  0  0  0
    0.7282    2.0374   -0.3243 C   0  0  0  0  0  0  0  0  0  0  0  0
   -1.1600    2.8207   -1.7101 C   0  0  0  0  0  0  0  0  0  0  0  0
   -1.0695    0.5600   -0.8004 C   0  0  0  0  0  0  0  0  0  0  0  0
    0.1629    0.7707   -0.1733 C   0  0  0  0  0  0  0  0  0  0  0  0
   -1.8460   -0.6392   -0.8307 C   0  0  0  0  0  0  0  0  0  0  0  0
   -1.7322    1.5510   -1.5573 C   0  0  0  0  0  0  0  0  0  0  0  0
   -2.9573   -0.3665   -1.5934 C   0  0  0  0  0  0  0  0  0  0  0  0
   -1.3621   -1.8188   -0.0414 C   0  0  0  0  0  0  0  0  0  0  0  0
    2.2892   -0.4435    0.4751 C   0  0  0  0  0  0  0  0  0  0  0  0
    2.1934   -2.9536    0.6362 C   0  0  0  0  0  0  0  0  0  0  0  0
    0.7529   -0.4168    0.5760 C   0  0  2  0  0  0  0  0  0  0  0  0
    2.9208   -1.6832    1.1262 C   0  0  2  0  0  0  0  0  0  0  0  0
    0.1817   -1.7707    0.0341 C   0  0  1  0  0  0  0  0  0  0  0  0
   -0.1292   -4.8963    3.9401 C   0  0  0  0  0  0  0  0  0  0  0  0
   -5.6606   -1.6700   -3.6919 C   0  0  0  0  0  0  0  0  0  0  0  0
    2.9665   -1.5850    2.6707 C   0  0  0  0  0  0  0  0  0  0  0  0
   -4.1380   -1.2059   -1.9421 C   0  0  0  0  0  0  0  0  0  0  0  0
    0.7157   -4.4841    2.7288 C   0  0  0  0  0  0  0  0  0  0  0  0
    0.1380   -3.2433    2.0417 C   0  0  0  0  0  0  0  0  0  0  0  0
    4.4960    0.4040    3.4651 N   0  0  0  0  0  0  0  0  0  0  0  0
   -2.9125    0.9734   -2.0044 N   0  0  0  0  0  0  0  0  0  0  0  0
    0.7348   -2.9409    0.7362 N   0  0  2  0  0  0  0  0  0  0  0  0
   -4.4947   -0.9590   -3.3027 O   0  0  0  0  0  0  0  0  0  0  0  0
    0.5399    4.0128   -1.1742 H   0  0  0  0  0  0  0  0  0  0  0  0
    1.6853    2.2785    0.1294 H   0  0  0  0  0  0  0  0  0  0  0  0
   -1.6377    3.6082   -2.2874 H   0  0  0  0  0  0  0  0  0  0  0  0
   -1.7894   -1.7739    0.9672 H   0  0  0  0  0  0  0  0  0  0  0  0
   -1.6640   -2.7778   -0.4772 H   0  0  0  0  0  0  0  0  0  0  0  0
    2.5578   -0.4342   -0.5885 H   0  0  0  0  0  0  0  0  0  0  0  0
    2.7197    0.4644    0.9081 H   0  0  0  0  0  0  0  0  0  0  0  0
    2.4364   -3.0674   -0.4289 H   0  0  0  0  0  0  0  0  0  0  0  0
    2.5885   -3.8420    1.1341 H   0  0  0  0  0  0  0  0  0  0  0  0
    0.4619   -0.3295    1.6332 H   0  0  0  0  0  0  0  0  0  0  0  0
    3.9620   -1.7540    0.7873 H   0  0  0  0  0  0  0  0  0  0  0  0
    0.5381   -1.8520   -1.0029 H   0  0  0  0  0  0  0  0  0  0  0  0
   -0.1935   -4.0847    4.6741 H   0  0  0  0  0  0  0  0  0  0  0  0
   -1.1511   -5.1561    3.6418 H   0  0  0  0  0  0  0  0  0  0  0  0
    0.3028   -5.7664    4.4446 H   0  0  0  0  0  0  0  0  0  0  0  0
   -5.8603   -1.4138   -4.7345 H   0  0  0  0  0  0  0  0  0  0  0  0
   -6.5282   -1.3868   -3.0770 H   0  0  0  0  0  0  0  0  0  0  0  0
   -5.5115   -2.7568   -3.6111 H   0  0  0  0  0  0  0  0  0  0  0  0
    3.3608   -2.5126    3.0994 H   0  0  0  0  0  0  0  0  0  0  0  0
    1.9704   -1.4362    3.0939 H   0  0  0  0  0  0  0  0  0  0  0  0
   -3.8944   -2.2671   -1.7865 H   0  0  0  0  0  0  0  0  0  0  0  0
   -4.9987   -0.9641   -1.2949 H   0  0  0  0  0  0  0  0  0  0  0  0
    0.7569   -5.3037    2.0015 H   0  0  0  0  0  0  0  0  0  0  0  0
    1.7435   -4.3055    3.0622 H   0  0  0  0  0  0  0  0  0  0  0  0
   -0.9241   -3.4417    1.8731 H   0  0  0  0  0  0  0  0  0  0  0  0
    0.1723   -2.3969    2.7523 H   0  0  0  0  0  0  0  0  0  0  0  0
   -3.4880    1.3190   -2.7608 H   0  0  0  0  0  0  0  0  0  0  0  0
  1 18  1  0  0  0  0
  1 22  3  0  0  0  0
  2  3  1  0  0  0  0
  2  4  2  0  0  0  0
  2 26  1  0  0  0  0
  3  6  2  0  0  0  0
  3 27  1  0  0  0  0
  4  8  1  0  0  0  0
  4 28  1  0  0  0  0
  5  6  1  0  0  0  0
  5  7  1  0  0  0  0
  5  8  2  0  0  0  0
  6 13  1  0  0  0  0
  7  9  2  0  0  0  0
  7 10  1  0  0  0  0
  8 23  1  0  0  0  0
  9 19  1  0  0  0  0
  9 23  1  0  0  0  0
 10 15  1  0  0  0  0
 10 29  1  0  0  0  0
 10 30  1  0  0  0  0
 11 13  1  0  0  0  0
 11 14  1  0  0  0  0
 11 31  1  0  0  0  0
 11 32  1  0  0  0  0
 12 14  1  0  0  0  0
 12 24  1  0  0  0  0
 12 33  1  0  0  0  0
 12 34  1  0  0  0  0
 13 15  1  0  0  0  0
 13 35  1  0  0  0  0
 14 18  1  0  0  0  0
 14 36  1  0  0  0  0
 15 24  1  0  0  0  0
 15 37  1  0  0  0  0
 16 20  1  0  0  0  0
 16 38  1  0  0  0  0
 16 39  1  0  0  0  0
 16 40  1  0  0  0  0
 17 25  1  0  0  0  0
 17 41  1  0  0  0  0
 17 42  1  0  0  0  0
 17 43  1  0  0  0  0
 18 44  1  0  0  0  0
 18 45  1  0  0  0  0
 19 25  1  0  0  0  0
 19 46  1  0  0  0  0
 19 47  1  0  0  0  0
 20 21  1  0  0  0  0
 20 48  1  0  0  0  0
 20 49  1  0  0  0  0
 21 24  1  0  0  0  0
 21 50  1  0  0  0  0
 21 51  1  0  0  0  0
 23 52  1  0  0  0  0
M  END
$$$$
