
  -OEChem-05262117483D

 65 67  0     0  0  0  0  0  0999 V2000
    3.1821  -10.7144    6.5220 C   0  0  0  0  0  0  0  0  0  0  0  0
    1.7654   -8.7321    6.5067 C   0  0  0  0  0  0  0  0  0  0  0  0
    1.3156   -7.5495    5.9247 C   0  0  0  0  0  0  0  0  0  0  0  0
    2.8102   -7.9121    4.0478 C   0  0  0  0  0  0  0  0  0  0  0  0
    2.7464   -9.5091    5.8727 C   0  0  0  0  0  0  0  0  0  0  0  0
    3.2666   -9.0888    4.6304 C   0  0  0  0  0  0  0  0  0  0  0  0
    1.8436   -7.1395    4.7000 C   0  0  0  0  0  0  0  0  0  0  0  0
    0.0118   -5.6837    3.8905 C   0  0  0  0  0  0  0  0  0  0  0  0
    2.1751   -4.8637    3.6583 C   0  0  0  0  0  0  0  0  0  0  0  0
    7.6745    0.5386    1.3371 C   0  0  0  0  0  0  0  0  0  0  0  0
    6.1433   -1.2532    2.0393 C   0  0  0  0  0  0  0  0  0  0  0  0
    5.2862    0.4448    0.5186 C   0  0  0  0  0  0  0  0  0  0  0  0
    4.9741   -0.9833    2.9835 C   0  0  0  0  0  0  0  0  0  0  0  0
    4.1277    0.7020    1.4855 C   0  0  0  0  0  0  0  0  0  0  0  0
   -0.0736   -4.3274    3.1911 C   0  0  0  0  0  0  0  0  0  0  0  0
   -0.9293   -3.3642    4.0252 C   0  0  0  0  0  0  0  0  0  0  0  0
   -0.6605   -4.5299    1.7838 C   0  0  0  0  0  0  0  0  0  0  0  0
    9.5396    3.6100   -0.1986 C   0  0  0  0  0  0  0  0  0  0  0  0
    7.9001    1.8059    0.5102 C   0  0  0  0  0  0  0  0  0  0  0  0
    9.3313    2.3355    0.6261 C   0  0  0  0  0  0  0  0  0  0  0  0
    2.0824   -1.6064    3.6875 C   0  0  0  0  0  0  0  0  0  0  0  0
    1.8056   -2.6560    2.6046 C   0  0  0  0  0  0  0  0  0  0  0  0
    2.6324   -0.3062    3.0906 C   0  0  0  0  0  0  0  0  0  0  0  0
    4.3140   -9.9185    3.9203 C   0  0  0  0  0  0  0  0  0  0  0  0
    3.5030  -11.6808    7.0867 N   0  0  0  0  0  0  0  0  0  0  0  0
    1.3646   -5.9433    4.0970 N   0  0  0  0  0  0  0  0  0  0  0  0
    1.3414   -3.9323    3.1436 N   0  0  0  0  0  0  0  0  0  0  0  0
    6.4437   -0.0669    1.2402 N   0  0  0  0  0  0  0  0  0  0  0  0
    3.8010   -0.5114    2.2343 N   0  0  0  0  0  0  0  0  0  0  0  0
   -0.9208   -6.4008    4.1972 O   0  0  0  0  0  0  0  0  0  0  0  0
    8.5662    0.0770    2.0525 O   0  0  0  0  0  0  0  0  0  0  0  0
    4.6709   -9.3691    2.7370 F   0  0  0  0  0  0  0  0  0  0  0  0
    5.4382  -10.0423    4.6621 F   0  0  0  0  0  0  0  0  0  0  0  0
    3.8634  -11.1691    3.6610 F   0  0  0  0  0  0  0  0  0  0  0  0
    3.8286   -4.7886    3.7893 S   0  0  0  0  0  0  0  0  0  0  0  0
    1.3641   -9.0598    7.4598 H   0  0  0  0  0  0  0  0  0  0  0  0
    0.5557   -6.9525    6.4157 H   0  0  0  0  0  0  0  0  0  0  0  0
    3.2062   -7.5906    3.0938 H   0  0  0  0  0  0  0  0  0  0  0  0
    7.0380   -1.5217    2.5991 H   0  0  0  0  0  0  0  0  0  0  0  0
    5.8822   -2.0816    1.3681 H   0  0  0  0  0  0  0  0  0  0  0  0
    4.9700   -0.2984   -0.2261 H   0  0  0  0  0  0  0  0  0  0  0  0
    5.5346    1.3637   -0.0092 H   0  0  0  0  0  0  0  0  0  0  0  0
    4.7255   -1.9154    3.4955 H   0  0  0  0  0  0  0  0  0  0  0  0
    5.2825   -0.2425    3.7456 H   0  0  0  0  0  0  0  0  0  0  0  0
    4.4025    1.5365    2.1603 H   0  0  0  0  0  0  0  0  0  0  0  0
    3.2457    1.0123    0.9138 H   0  0  0  0  0  0  0  0  0  0  0  0
   -1.0142   -2.3955    3.5247 H   0  0  0  0  0  0  0  0  0  0  0  0
   -0.4952   -3.2101    5.0168 H   0  0  0  0  0  0  0  0  0  0  0  0
   -1.9311   -3.7845    4.1429 H   0  0  0  0  0  0  0  0  0  0  0  0
   -0.7545   -3.5723    1.2641 H   0  0  0  0  0  0  0  0  0  0  0  0
   -1.6533   -4.9787    1.8671 H   0  0  0  0  0  0  0  0  0  0  0  0
   -0.0244   -5.1901    1.1878 H   0  0  0  0  0  0  0  0  0  0  0  0
    8.8725    4.4152    0.1325 H   0  0  0  0  0  0  0  0  0  0  0  0
    9.3440    3.4359   -1.2635 H   0  0  0  0  0  0  0  0  0  0  0  0
   10.5682    3.9742   -0.1066 H   0  0  0  0  0  0  0  0  0  0  0  0
    7.1931    2.5799    0.8373 H   0  0  0  0  0  0  0  0  0  0  0  0
    7.6625    1.6038   -0.5420 H   0  0  0  0  0  0  0  0  0  0  0  0
   10.0289    1.5567    0.3032 H   0  0  0  0  0  0  0  0  0  0  0  0
    9.5600    2.5225    1.6794 H   0  0  0  0  0  0  0  0  0  0  0  0
    2.7778   -2.0276    4.4175 H   0  0  0  0  0  0  0  0  0  0  0  0
    1.1613   -1.3703    4.2305 H   0  0  0  0  0  0  0  0  0  0  0  0
    1.0447   -2.2940    1.9074 H   0  0  0  0  0  0  0  0  0  0  0  0
    2.7142   -2.8370    2.0287 H   0  0  0  0  0  0  0  0  0  0  0  0
    2.8473    0.4025    3.9131 H   0  0  0  0  0  0  0  0  0  0  0  0
    1.8533    0.1585    2.4730 H   0  0  0  0  0  0  0  0  0  0  0  0
  1  5  1  0  0  0  0
  1 25  3  0  0  0  0
  2  3  1  0  0  0  0
  2  5  2  0  0  0  0
  2 36  1  0  0  0  0
  3  7  2  0  0  0  0
  3 37  1  0  0  0  0
  4  6  2  0  0  0  0
  4  7  1  0  0  0  0
  4 38  1  0  0  0  0
  5  6  1  0  0  0  0
  6 24  1  0  0  0  0
  7 26  1  0  0  0  0
  8 15  1  0  0  0  0
  8 26  1  0  0  0  0
  8 30  2  0  0  0  0
  9 26  1  0  0  0  0
  9 27  1  0  0  0  0
  9 35  2  0  0  0  0
 10 19  1  0  0  0  0
 10 28  1  0  0  0  0
 10 31  2  0  0  0  0
 11 13  1  0  0  0  0
 11 28  1  0  0  0  0
 11 39  1  0  0  0  0
 11 40  1  0  0  0  0
 12 14  1  0  0  0  0
 12 28  1  0  0  0  0
 12 41  1  0  0  0  0
 12 42  1  0  0  0  0
 13 29  1  0  0  0  0
 13 43  1  0  0  0  0
 13 44  1  0  0  0  0
 14 29  1  0  0  0  0
 14 45  1  0  0  0  0
 14 46  1  0  0  0  0
 15 16  1  0  0  0  0
 15 17  1  0  0  0  0
 15 27  1  0  0  0  0
 16 47  1  0  0  0  0
 16 48  1  0  0  0  0
 16 49  1  0  0  0  0
 17 50  1  0  0  0  0
 17 51  1  0  0  0  0
 17 52  1  0  0  0  0
 18 20  1  0  0  0  0
 18 53  1  0  0  0  0
 18 54  1  0  0  0  0
 18 55  1  0  0  0  0
 19 20  1  0  0  0  0
 19 56  1  0  0  0  0
 19 57  1  0  0  0  0
 20 58  1  0  0  0  0
 20 59  1  0  0  0  0
 21 22  1  0  0  0  0
 21 23  1  0  0  0  0
 21 60  1  0  0  0  0
 21 61  1  0  0  0  0
 22 27  1  0  0  0  0
 22 62  1  0  0  0  0
 22 63  1  0  0  0  0
 23 29  1  0  0  0  0
 23 64  1  0  0  0  0
 23 65  1  0  0  0  0
 24 32  1  0  0  0  0
 24 33  1  0  0  0  0
 24 34  1  0  0  0  0
M  END
$$$$
