12   
torsion grid (-165,)
C        0.0086337412   -1.1174186721   -0.4333105262
C        0.0141232302    1.1936375954    0.0981551150
C        0.1471079406   -0.3801258261   -1.7612952995
C        0.0341431177    1.1169902886   -1.4243518729
N       -0.1687582308   -0.1276313180    0.5520577312
O        0.0402051702   -2.3105197162   -0.2369004564
O        0.1645341595    2.1663745501    0.8008194865
Br      -0.2360843191   -0.5463568034    2.3723556583
H        1.1160988037   -0.6471959942   -2.1911342453
H       -0.6244025100   -0.7416963910   -2.4447537186
H       -0.8909581383    1.5657923332   -1.7972809694
H        0.8649895226    1.7210886579   -1.7935963788
12   
torsion grid (-150,)
C       -0.1086708952   -1.0966587666   -0.4386304962
C        0.0571043099    1.2063008631    0.0366745076
C        0.0986629091   -0.3985337447   -1.7800004880
C        0.0040403311    1.1114472443   -1.4836135806
N       -0.3339300720   -0.0711753627    0.5037959846
O       -0.0949687972   -2.2823305056   -0.2036363533
O        0.4547460186    2.1215545703    0.7181528052
Br      -0.3840324142   -0.4545739732    2.3378783905
H        1.0829911270   -0.6894746740   -2.1568598908
H       -0.6459671141   -0.7637361837   -2.4905894861
H       -0.9438899245    1.5399849671   -1.8227983628
H        0.8144247864    1.7057388715   -1.9075021253
12   
torsion grid (-135,)
C       -0.0780647353   -1.0884401505   -0.4263089366
C        0.0619169352    1.1913843565    0.0585855354
C        0.1392389215   -0.3772202489   -1.7607736323
C       -0.0449713263    1.1272181468   -1.4596420839
N       -0.4267169315   -0.0750317401    0.4980224449
O        0.0083834137   -2.2693465362   -0.1859719497
O        0.6246540714    2.0095407981    0.7449219283
Br      -0.4478661990   -0.4749536006    2.3356020632
H        1.1532439431   -0.6076400533   -2.0989758263
H       -0.5563955238   -0.7765401789   -2.5018113787
H       -1.0332203843    1.4827932100   -1.7655913911
H        0.7115770585    1.7723284017   -1.9069319433
12   
torsion grid (-120,)
C        0.0081655727   -0.9911195361   -0.4418158149
C        0.0917766508    1.2820978446   -0.0347299205
C        0.2093125396   -0.3102889420   -1.7974721917
C       -0.0686867051    1.1963816181   -1.5469975605
N       -0.4547572071    0.0332813493    0.4222154087
O        0.1746730949   -2.1509649125   -0.1511408520
O        0.8083383487    2.0257054893    0.5883985594
Br      -0.4786321952   -0.3206131585    2.2764401707
H        1.2411613726   -0.4866493345   -2.1131678497
H       -0.4498717712   -0.7696183791   -2.5372724168
H       -1.0878095264    1.4670705082   -1.8354777878
H        0.6364971525    1.8678674087   -2.0362648000
12   
torsion grid (-105,)
C       -0.0210201184   -1.0008775342   -0.4217284871
C        0.1238166615    1.2401201312   -0.0109672156
C        0.2069999035   -0.3068301386   -1.7711865902
C       -0.1046213897    1.2004009361   -1.5158165110
N       -0.5359804075    0.0201419199    0.4200321924
O        0.1526328109   -2.1584941230   -0.1297498488
O        1.0145792099    1.8203125999    0.5577535709
Br      -0.5854920848   -0.3492727405    2.2778593002
H        1.2524284945   -0.4548427301   -2.0555422059
H       -0.4211577062   -0.7689398084   -2.5357715056
H       -1.1400143828    1.4379378484   -1.7694940723
H        0.5737110059    1.8828795969   -2.0269088665
12   
torsion grid (-90,)
C        0.0043226347   -0.9705139155   -0.4053284572
C        0.1381616406    1.2417737240   -0.0224224215
C        0.2204039305   -0.2804609035   -1.7638022713
C       -0.1291903564    1.2302127847   -1.5201804997
N       -0.6096512544    0.0386496938    0.3889395675
O        0.2387158354   -2.1098285180   -0.0889191111
O        1.1472832967    1.6521850101    0.4930048821
Br      -0.6765106131   -0.3091747921    2.2584545853
H        1.2666889778   -0.4038613733   -2.0544078968
H       -0.4070696959   -0.7555887930   -2.5212548923
H       -1.1723974780    1.4379870620   -1.7621626893
H        0.5340885853    1.9169467470   -2.0454526029
12   
torsion grid (-75,)
C        0.0159671727   -0.9732605321   -0.3686131635
C        0.1512125451    1.2157123989   -0.0104274362
C        0.2217540008   -0.2801462792   -1.7365386476
C       -0.1618189647    1.2371492420   -1.5005325817
N       -0.6730534370    0.0274112671    0.3741629208
O        0.2880555807   -2.0972433982   -0.0332683360
O        1.2550046316    1.4665870905    0.4057218213
Br      -0.7975372418   -0.3051072911    2.2523055655
H        1.2694639239   -0.3764335231   -2.0305086784
H       -0.4027055174   -0.7659545548   -2.4901013919
H       -1.2124827720    1.4199991164   -1.7246366409
H        0.4865580034    1.9244914551   -2.0434378502
12   
torsion grid (75,)
C        0.0182179187   -0.9740911624   -0.3702354261
C       -0.1376994344    1.2159789859   -0.0274909558
C       -0.0179613976   -0.2786818041   -1.7519274026
C        0.3493685316    1.2348188521   -1.4701521896
N        0.6240900230    0.0197584377    0.4501253174
O       -0.3021941954   -2.0955127909   -0.0709439598
O       -1.2805042504    1.4772739304    0.2557005236
Br       0.5226716013   -0.3144299135    2.3293585534
H        0.6865303820   -0.7702325992   -2.4271202612
H       -1.0244678994   -0.3648809665   -2.1677400219
H       -0.2238032416    1.9284654094   -2.0848934317
H        1.4208312256    1.4076852799   -1.5683160787
12   
torsion grid (90,)
C        0.0341445193   -0.9714462474   -0.4053135033
C       -0.1230771198    1.2419178959   -0.0378246373
C       -0.0134025961   -0.2790027917   -1.7788407882
C        0.3192252668    1.2281991803   -1.4935273790
N        0.5594952284    0.0315986348    0.4573245255
O       -0.2467461406   -2.1085536387   -0.1203927862
O       -1.1820997520    1.6618116271    0.3553546863
Br       0.4017323728   -0.3173409561    2.3211621635
H        0.6946425689   -0.7599016374   -2.4575252395
H       -1.0191480092   -0.3923289929   -2.1911818800
H       -0.2708329886    1.9213745205   -2.0925203274
H        1.3856313944    1.4260652869   -1.6102908509
12   
torsion grid (105,)
C        0.0609589813   -1.0020454216   -0.4186448571
C       -0.1102018548    1.2401259250   -0.0247591916
C        0.0005293977   -0.3054988978   -1.7846256514
C        0.2940317694    1.1986205991   -1.4921397535
N        0.4824960891    0.0137896156    0.4794709715
O       -0.1569057197   -2.1580272071   -0.1508311427
O       -1.0563904233    1.8286498070    0.4355577060
Br       0.3086859270   -0.3565672435    2.3296239934
H        0.7102191068   -0.7733861836   -2.4702929375
H       -1.0053368994   -0.4434465781   -2.1906926868
H       -0.3126892682    1.8876797968   -2.0788377396
H        1.3543419138    1.4263252038   -1.6213991346
12   
torsion grid (120,)
C        0.0344448074   -0.9920046593   -0.4420277638
C       -0.0751838771    1.2818004977   -0.0445104725
C        0.0013054364   -0.3089270337   -1.8110058377
C        0.2619958951    1.1949539094   -1.5273510838
N        0.4017118778    0.0277013297    0.4720619176
O       -0.1761911754   -2.1502835068   -0.1746697411
O       -0.8532825026    2.0320529592    0.4906396607
Br       0.2030181243   -0.3268935063    2.3156303680
H        0.7389007021   -0.7743357945   -2.4683943492
H       -0.9876423723   -0.4753419177   -2.2466283196
H       -0.3740691385    1.8732725043   -2.0955630684
H        1.3105753551    1.4559734233   -1.6930448203
12   
torsion grid (135,)
C        0.1173138664   -1.0901477576   -0.4165768640
C       -0.0574110821    1.1907817306    0.0515533027
C        0.0659169765   -0.3765356297   -1.7663789668
C        0.2274729532    1.1259961889   -1.4435064587
N        0.3638907040   -0.0803586243    0.5438759854
O       -0.0080800564   -2.2702378734   -0.1897744151
O       -0.6895298555    2.0140988771    0.6677400523
Br       0.1640203462   -0.4809454703    2.3705304441
H        0.8404218072   -0.7822870226   -2.4206029216
H       -0.9031629612   -0.5971734416   -2.2223209589
H       -0.4648111395    1.7784176400   -1.9761321495
H        1.2482594491    1.4722003496   -1.6300861333
12   
torsion grid (150,)
C        0.1490835258   -1.0986571347   -0.4252148143
C       -0.0499057443    1.2056538176    0.0303886064
C        0.1082750991   -0.3982248582   -1.7807106557
C        0.1814906796    1.1107041818   -1.4731169476
N        0.2711119078   -0.0756241347    0.5386511463
O        0.0965095585   -2.2842068877   -0.1951377326
O       -0.5166020207    2.1244813596    0.6613971494
Br       0.1005660311   -0.4599740128    2.3652741148
H        0.9281513822   -0.7703329905   -2.3988707794
H       -0.8273457224   -0.6796493484   -2.2716136710
H       -0.5674877559    1.7128222097   -1.9889389680
H        1.1668616310    1.5302587399   -1.6973508688
12   
torsion grid (165,)
C        0.0318527275   -1.1180790033   -0.4337354654
C       -0.0146466834    1.1927348532    0.0965055479
C        0.0578846141   -0.3792716196   -1.7678174152
C        0.1447049364    1.1166558025   -1.4178379577
N        0.1007382461   -0.1303061612    0.5671212396
O       -0.0337409531   -2.3108714735   -0.2440597919
O       -0.2379669365    2.1666903507    0.7777614168
Br      -0.0511469959   -0.5501585022    2.3821045664
H        0.9013872971   -0.7480980934   -2.3556497403
H       -0.8559356640   -0.6369631288   -2.3096225814
H       -0.6307984440    1.7291229830   -1.8815766648
H        1.1117683697    1.5561407830   -1.6784531407
12   
torsion grid (180,)
C        0.0230231128   -1.1222203997   -0.4245461993
C       -0.0033222257    1.1958770531    0.0997538883
C        0.1016554103   -0.3895945425   -1.7598156329
C        0.0899712046    1.1109800018   -1.4200976119
N       -0.0348819775   -0.1292048698    0.5694341074
O        0.0104509357   -2.3162406111   -0.2302424108
O       -0.0427455476    2.1895218752    0.7887446944
Br      -0.1442612776   -0.5416254921    2.3873788294
H        1.0101945610   -0.7130084239   -2.2733722797
H       -0.7483627449   -0.7036448854   -2.3703858890
H       -0.7619993754    1.6472945739   -1.8447068655
H        0.9957765432    1.6348695332   -1.7347611559
