32
0 1 C12ClH14NO3S
C                    -0.088037265167     1.764789603674    -3.807049568231
C                    -1.723292780964     0.004848109933    -4.215431788069
C                    -0.698824217017     2.559983452008    -4.778200966985
C                    -2.338011900497     0.798304087390    -5.184264697418
C                    -0.610811500381     0.500489730897    -3.531181249020
C                    -1.821383132525     2.070316183543    -5.452195924689
C                    -0.766425923042    -1.273558452507     0.264835567047
C                     0.347654123605     1.880387677415     0.197574365391
C                     0.971533088984     1.165678555387     1.402158664319
C                    -0.954732336974     1.264401072627    -0.332734141487
C                     1.433144709974    -0.267938106575     1.117345646840
C                    -0.943475986272    -0.195049047073    -0.817846342483
N                     0.338965266644    -1.245993569269     1.056153636822
O                    -1.653647366093    -2.112705077321     0.410030940231
O                    -0.020810671700    -1.928528505218    -2.637992433317
O                     1.505293037800     0.027089158217    -2.017660442238
S                     0.158062343520    -0.519980380629    -2.264882578666
Cl                   -2.592479271997     3.067601147016    -6.666201371878
H                     0.795529605982     2.111331095152    -3.280338016440
H                    -2.089692176449    -0.996065268211    -4.006592308801
H                    -0.307678209116     3.544333969758    -5.014291977206
H                    -3.201013241289     0.433943542904    -5.732010699368
H                     0.119953757820     2.914146323011     0.482772724423
H                     1.087796153266     1.929966210906    -0.605203333220
H                     1.849363187035     1.740032624676     1.721316880885
H                     0.272013205022     1.156319696575     2.247837357369
H                    -1.720489835114     1.303854276451     0.452383897584
H                    -1.332777674008     1.886173949750    -1.151483482546
H                     2.021044980301    -0.300627293208     0.197015236750
H                     2.080870538342    -0.605816162764     1.930001512318
H                    -1.925427775476    -0.427124734704    -1.235758191910
H                     0.337588903178    -1.994520189579     1.739507093497
