
  -OEChem-05262117483D

 61 65  0     1  0  0  0  0  0999 V2000
   -5.3693    7.5222    1.0044 C   0  0  0  0  0  0  0  0  0  0  0  0
   -4.2812    8.2708    0.5364 C   0  0  0  0  0  0  0  0  0  0  0  0
   -6.1917    1.3176    4.1436 C   0  0  0  0  0  0  0  0  0  0  0  0
   -4.9920    1.2255    3.4446 C   0  0  0  0  0  0  0  0  0  0  0  0
   -5.2557    6.7971    2.1908 C   0  0  0  0  0  0  0  0  0  0  0  0
   -3.0878    8.3074    1.2594 C   0  0  0  0  0  0  0  0  0  0  0  0
   -6.5831    2.5434    4.7339 C   0  0  0  0  0  0  0  0  0  0  0  0
   -4.2136    2.3920    3.3648 C   0  0  0  0  0  0  0  0  0  0  0  0
   -0.2663    0.6306    0.4744 C   0  0  0  0  0  0  0  0  0  0  0  0
   -4.0668    6.8156    2.9346 C   0  0  0  0  0  0  0  0  0  0  0  0
   -3.0153    7.5880    2.4459 C   0  0  0  0  0  0  0  0  0  0  0  0
   -2.9802    2.8252    2.7716 C   0  0  0  0  0  0  0  0  0  0  0  0
   -0.2162    2.0149    0.5318 C   0  0  0  0  0  0  0  0  0  0  0  0
   -4.7166    3.5529    4.0088 C   0  0  0  0  0  0  0  0  0  0  0  0
   -1.3437    0.0557    1.1890 C   0  0  0  0  0  0  0  0  0  0  0  0
   -2.0474    2.0541    1.9438 C   0  0  0  0  0  0  0  0  0  0  0  0
   -0.3103   -1.7282    0.1655 C   0  0  0  0  0  0  0  0  0  0  0  0
    0.8187    2.8493   -0.1914 C   0  0  0  0  0  0  0  0  0  0  0  0
    0.5177   -0.4744   -0.2091 C   0  0  0  0  0  0  0  0  0  0  0  0
    1.9320   -0.6568    0.3862 C   0  0  0  0  0  0  0  0  0  0  0  0
    0.5760   -0.3399   -1.7414 C   0  0  0  0  0  0  0  0  0  0  0  0
    0.5832    5.5837    2.6060 C   0  0  0  0  0  0  0  0  0  0  0  0
   -3.9065    5.9557    4.1663 C   0  0  0  0  0  0  0  0  0  0  0  0
    1.3601    5.1387   -0.8920 C   0  0  0  0  0  0  0  0  0  0  0  0
    2.0827    5.8662    0.2442 C   0  0  0  0  0  0  0  0  0  0  0  0
   -5.8680    3.6701    4.6811 N   0  0  0  0  0  0  0  0  0  0  0  0
   -2.7575    4.1126    3.0469 N   0  0  0  0  0  0  0  0  0  0  0  0
   -1.1075    2.7172    1.2680 N   0  0  0  0  0  0  0  0  0  0  0  0
   -2.2318    0.7087    1.9217 N   0  0  0  0  0  0  0  0  0  0  0  0
   -3.7900    4.5444    3.8019 N   0  0  0  0  0  0  0  0  0  0  0  0
   -1.3471   -1.3154    1.0059 N   0  0  0  0  0  0  0  0  0  0  0  0
    0.4371    4.1310   -0.4025 N   0  0  0  0  0  0  0  0  0  0  0  0
   -0.1095   -2.8768   -0.1786 O   0  0  0  0  0  0  0  0  0  0  0  0
    1.9081    2.3814   -0.5411 O   0  0  0  0  0  0  0  0  0  0  0  0
   -0.4179    6.8866    0.4511 O   0  0  0  0  0  0  0  0  0  0  0  0
   -1.8594    7.6481    3.1686 F   0  0  0  0  0  0  0  0  0  0  0  0
    0.8617    6.8252    1.2882 S   0  0  1  0  0  0  0  0  0  0  0  0
   -6.2974    7.4981    0.4402 H   0  0  0  0  0  0  0  0  0  0  0  0
   -4.3577    8.8211   -0.3973 H   0  0  0  0  0  0  0  0  0  0  0  0
   -6.8433    0.4549    4.2448 H   0  0  0  0  0  0  0  0  0  0  0  0
   -4.6613    0.3028    2.9808 H   0  0  0  0  0  0  0  0  0  0  0  0
   -6.0894    6.1975    2.5495 H   0  0  0  0  0  0  0  0  0  0  0  0
   -2.2126    8.8414    0.9077 H   0  0  0  0  0  0  0  0  0  0  0  0
   -7.5264    2.6037    5.2739 H   0  0  0  0  0  0  0  0  0  0  0  0
    2.3810   -1.5647   -0.0264 H   0  0  0  0  0  0  0  0  0  0  0  0
    1.8913   -0.7563    1.4760 H   0  0  0  0  0  0  0  0  0  0  0  0
    2.5413    0.2113    0.1337 H   0  0  0  0  0  0  0  0  0  0  0  0
    0.9959   -1.2546   -2.1686 H   0  0  0  0  0  0  0  0  0  0  0  0
    1.2076    0.5082   -2.0106 H   0  0  0  0  0  0  0  0  0  0  0  0
   -0.4223   -0.1883   -2.1645 H   0  0  0  0  0  0  0  0  0  0  0  0
   -0.1213    6.0383    3.3023 H   0  0  0  0  0  0  0  0  0  0  0  0
    1.5358    5.3835    3.1059 H   0  0  0  0  0  0  0  0  0  0  0  0
    0.1427    4.6737    2.1973 H   0  0  0  0  0  0  0  0  0  0  0  0
   -3.0196    6.2399    4.7340 H   0  0  0  0  0  0  0  0  0  0  0  0
   -4.7804    6.0244    4.8169 H   0  0  0  0  0  0  0  0  0  0  0  0
    2.1004    4.6501   -1.5289 H   0  0  0  0  0  0  0  0  0  0  0  0
    0.7930    5.8586   -1.4844 H   0  0  0  0  0  0  0  0  0  0  0  0
    2.7771    6.6058   -0.1663 H   0  0  0  0  0  0  0  0  0  0  0  0
    2.6379    5.1749    0.8831 H   0  0  0  0  0  0  0  0  0  0  0  0
   -2.0321   -1.9467    1.4057 H   0  0  0  0  0  0  0  0  0  0  0  0
   -0.4436    4.4504   -0.0058 H   0  0  0  0  0  0  0  0  0  0  0  0
  1  2  1  0  0  0  0
  1  5  2  0  0  0  0
  1 38  1  0  0  0  0
  2  6  2  0  0  0  0
  2 39  1  0  0  0  0
  3  4  1  0  0  0  0
  3  7  2  0  0  0  0
  3 40  1  0  0  0  0
  4  8  2  0  0  0  0
  4 41  1  0  0  0  0
  5 10  1  0  0  0  0
  5 42  1  0  0  0  0
  6 11  1  0  0  0  0
  6 43  1  0  0  0  0
  7 26  1  0  0  0  0
  7 44  1  0  0  0  0
  8 12  1  0  0  0  0
  8 14  1  0  0  0  0
  9 13  1  0  0  0  0
  9 15  2  0  0  0  0
  9 19  1  0  0  0  0
 10 11  2  0  0  0  0
 10 23  1  0  0  0  0
 11 36  1  0  0  0  0
 12 16  1  0  0  0  0
 12 27  2  0  0  0  0
 13 18  1  0  0  0  0
 13 28  2  0  0  0  0
 14 26  2  0  0  0  0
 14 30  1  0  0  0  0
 15 29  1  0  0  0  0
 15 31  1  0  0  0  0
 16 28  1  0  0  0  0
 16 29  2  0  0  0  0
 17 19  1  0  0  0  0
 17 31  1  0  0  0  0
 17 33  2  0  0  0  0
 18 32  1  0  0  0  0
 18 34  2  0  0  0  0
 19 20  1  0  0  0  0
 19 21  1  0  0  0  0
 20 45  1  0  0  0  0
 20 46  1  0  0  0  0
 20 47  1  0  0  0  0
 21 48  1  0  0  0  0
 21 49  1  0  0  0  0
 21 50  1  0  0  0  0
 22 37  1  0  0  0  0
 22 51  1  0  0  0  0
 22 52  1  0  0  0  0
 22 53  1  0  0  0  0
 23 30  1  0  0  0  0
 23 54  1  0  0  0  0
 23 55  1  0  0  0  0
 24 25  1  0  0  0  0
 24 32  1  0  0  0  0
 24 56  1  0  0  0  0
 24 57  1  0  0  0  0
 25 37  1  0  0  0  0
 25 58  1  0  0  0  0
 25 59  1  0  0  0  0
 27 30  1  0  0  0  0
 31 60  1  0  0  0  0
 32 61  1  0  0  0  0
 35 37  2  0  0  0  0
M  END
$$$$
