32
0 1 C12ClH14NO3S
C                     2.372915021701    -1.432927546231    -3.493747919901
C                     1.011552808763    -3.174468479419    -2.465096231271
C                     2.044113794037    -1.920378599370    -4.758052597607
C                     0.682538656065    -3.664589416798    -3.728369352090
C                     1.848509428399    -2.062516275503    -2.364032517631
C                     1.199194285072    -3.029455333700    -4.861026947899
C                    -0.406677983464    -0.520093688053    -0.887021953826
C                    -0.066790583196     1.040002439255     1.581554591291
C                    -0.861685494032    -0.096468058278     2.252410157567
C                     1.232449521983     0.550141740644     0.918821778780
C                    -0.840489332609    -1.398314567599     1.438461020028
C                     1.005022841360    -0.061485549908    -0.487914511833
N                    -1.159290603272    -1.196156299872     0.023276097741
O                    -0.813367428906    -0.274395232735    -2.023186777435
O                     1.969880042325    -2.468923584824     0.248542174272
O                     3.555886702033    -0.756356617366    -0.798284116242
S                     2.238507979020    -1.410631616978    -0.743729401349
Cl                    0.783769208695    -3.641911024717    -6.447956804877
H                     3.039556464093    -0.583070274129    -3.385303343070
H                     0.632010503485    -3.650007795880    -1.566681361979
H                     2.439367921044    -1.450800887528    -5.652807534431
H                     0.034855627550    -4.528556162035    -3.835590492376
H                    -0.689656412346     1.548664476071     0.837142392587
H                     0.179890077943     1.795283498649     2.334680121402
H                    -0.429533274195    -0.318126416257     3.236020684489
H                    -1.893874806400     0.229530424624     2.423557868149
H                     1.932402119442     1.379575317756     0.800056314845
H                     1.722630462767    -0.171387501944     1.579311319135
H                     0.133923655174    -1.884285051696     1.505560409877
H                    -1.570135587389    -2.108658072891     1.835236277511
H                     1.267051673649     0.664117462892    -1.259085455795
H                    -2.101363322708    -1.385511775875    -0.300116854162
