
  -OEChem-05262117483D

 32 33  0     1  0  0  0  0  0999 V2000
   -0.0880    1.7648   -3.8070 C   0  0  0  0  0  0  0  0  0  0  0  0
   -1.7233    0.0048   -4.2154 C   0  0  0  0  0  0  0  0  0  0  0  0
   -0.6988    2.5600   -4.7782 C   0  0  0  0  0  0  0  0  0  0  0  0
   -2.3380    0.7983   -5.1843 C   0  0  0  0  0  0  0  0  0  0  0  0
   -0.6108    0.5005   -3.5312 C   0  0  0  0  0  0  0  0  0  0  0  0
   -1.8214    2.0703   -5.4522 C   0  0  0  0  0  0  0  0  0  0  0  0
   -0.7664   -1.2736    0.2648 C   0  0  0  0  0  0  0  0  0  0  0  0
    0.3477    1.8804    0.1976 C   0  0  0  0  0  0  0  0  0  0  0  0
    0.9715    1.1657    1.4022 C   0  0  0  0  0  0  0  0  0  0  0  0
   -0.9547    1.2644   -0.3327 C   0  0  0  0  0  0  0  0  0  0  0  0
    1.4331   -0.2679    1.1173 C   0  0  0  0  0  0  0  0  0  0  0  0
   -0.9435   -0.1950   -0.8178 C   0  0  1  0  0  0  0  0  0  0  0  0
    0.3390   -1.2460    1.0562 N   0  0  0  0  0  0  0  0  0  0  0  0
   -1.6536   -2.1127    0.4100 O   0  0  0  0  0  0  0  0  0  0  0  0
   -0.0208   -1.9285   -2.6380 O   0  0  0  0  0  0  0  0  0  0  0  0
    1.5053    0.0271   -2.0177 O   0  0  0  0  0  0  0  0  0  0  0  0
    0.1581   -0.5200   -2.2649 S   0  0  0  0  0  0  0  0  0  0  0  0
   -2.5925    3.0676   -6.6662 Cl  0  0  0  0  0  0  0  0  0  0  0  0
    0.7955    2.1113   -3.2803 H   0  0  0  0  0  0  0  0  0  0  0  0
   -2.0897   -0.9961   -4.0066 H   0  0  0  0  0  0  0  0  0  0  0  0
   -0.3077    3.5443   -5.0143 H   0  0  0  0  0  0  0  0  0  0  0  0
   -3.2010    0.4339   -5.7320 H   0  0  0  0  0  0  0  0  0  0  0  0
    0.1200    2.9141    0.4828 H   0  0  0  0  0  0  0  0  0  0  0  0
    1.0878    1.9300   -0.6052 H   0  0  0  0  0  0  0  0  0  0  0  0
    1.8494    1.7400    1.7213 H   0  0  0  0  0  0  0  0  0  0  0  0
    0.2720    1.1563    2.2478 H   0  0  0  0  0  0  0  0  0  0  0  0
   -1.7205    1.3039    0.4524 H   0  0  0  0  0  0  0  0  0  0  0  0
   -1.3328    1.8862   -1.1515 H   0  0  0  0  0  0  0  0  0  0  0  0
    2.0210   -0.3006    0.1970 H   0  0  0  0  0  0  0  0  0  0  0  0
    2.0809   -0.6058    1.9300 H   0  0  0  0  0  0  0  0  0  0  0  0
   -1.9254   -0.4271   -1.2358 H   0  0  0  0  0  0  0  0  0  0  0  0
    0.3376   -1.9945    1.7395 H   0  0  0  0  0  0  0  0  0  0  0  0
  1  3  1  0  0  0  0
  1  5  2  0  0  0  0
  1 19  1  0  0  0  0
  2  4  2  0  0  0  0
  2  5  1  0  0  0  0
  2 20  1  0  0  0  0
  3  6  2  0  0  0  0
  3 21  1  0  0  0  0
  4  6  1  0  0  0  0
  4 22  1  0  0  0  0
  5 17  1  0  0  0  0
  6 18  1  0  0  0  0
  7 12  1  0  0  0  0
  7 13  1  0  0  0  0
  7 14  2  0  0  0  0
  8  9  1  0  0  0  0
  8 10  1  0  0  0  0
  8 23  1  0  0  0  0
  8 24  1  0  0  0  0
  9 11  1  0  0  0  0
  9 25  1  0  0  0  0
  9 26  1  0  0  0  0
 10 12  1  0  0  0  0
 10 27  1  0  0  0  0
 10 28  1  0  0  0  0
 11 13  1  0  0  0  0
 11 29  1  0  0  0  0
 11 30  1  0  0  0  0
 12 17  1  0  0  0  0
 12 31  1  0  0  0  0
 13 32  1  0  0  0  0
 15 17  2  0  0  0  0
 16 17  2  0  0  0  0
M  END
$$$$
