70
0 1 C25H34N6O4S
C                    -5.495587074812     1.220499441125    -0.221512527324
C                    -3.404844878483     7.683240938674    -1.080610344795
C                    -5.017438470193     2.516969599945    -0.419824327617
C                    -5.564749975318     0.295403520372    -1.264937176767
C                    -3.603363544731     6.550152947164    -1.870721271392
C                    -4.660755980111     2.000365883222    -2.760040685121
C                    -3.600432945463     7.618909770066     0.297519879958
C                    -4.601094567549     2.930176291371    -1.701958096823
C                    -5.132976715158     0.712592947655    -2.527561367573
C                    -4.035322297379     6.380148619197     0.836327343264
C                    -3.985230858877     5.356709458386    -1.235248260874
C                    -3.738254154839     8.690222778193     2.476889876762
C                    -3.850517803598     4.922324343559     4.238204807620
C                    -5.907190840840     4.511755986828     2.868881335218
C                    -3.985464162525     3.495714607004     4.778590568415
C                    -5.969691013965     3.101667644342     3.459097618400
C                    -3.427128678994    -2.124569875980    -2.577910303706
C                    -2.414983906144    -0.414001896603    -4.007766822912
C                    -2.183450720406    -2.980426816418    -2.807338840550
C                    -1.211369636669    -1.339299666711    -4.175937176128
C                    -4.681419858053     7.546010772617     2.842689709176
C                    -4.450269759573     4.996117301237     2.830014946586
C                    -6.126676439526     7.967160821440     2.504344945146
C                    -2.487120586779     9.805471957219     0.695519457711
C                    -5.525379354889     1.747638435808     5.405379653904
N                    -4.207490314542     5.286879069622     0.082523630223
N                    -3.296953350047     8.687576394713     1.171909050823
N                    -4.250647869968     6.305021071301     2.195126777429
N                    -5.384837132172     3.066170484676     4.799729409362
N                    -3.600287887406    -1.248681069818    -3.749551368606
N                    -4.134337904709     4.208545366897    -2.012913574489
O                    -3.453886117185     9.571251048677     3.285172642938
O                    -6.110465085094    -1.490226944562    -3.617908213204
O                    -5.051293079672     0.285230559465    -5.134180122344
O                    -1.029572070677    -2.174511276868    -3.035418044300
S                    -5.096679185544    -0.468215577951    -3.879122715851
H                    -5.827644700277     0.932448499421     0.772584863135
H                    -3.077940216650     8.605734175401    -1.548077824924
H                    -4.970230931069     3.219810102655     0.396466482580
H                    -5.961049946997    -0.703559088319    -1.120568727644
H                    -3.453522170266     6.593072801479    -2.945470100146
H                    -4.366732675615     2.283583950005    -3.767436589932
H                    -4.372236092147     5.597402193631     4.924473480381
H                    -2.795454409416     5.215199312341     4.213213149112
H                    -6.333551607697     4.520443224507     1.861392760894
H                    -6.507329979904     5.176483172994     3.498430593162
H                    -3.365318510617     2.810034622723     4.165443052280
H                    -3.595420727093     3.451335985748     5.800916075785
H                    -7.011838197871     2.771654442112     3.526013008041
H                    -5.449777505460     2.394500800429     2.779616072000
H                    -4.308760359667    -2.760872398235    -2.483328666932
H                    -3.304969252350    -1.533634509761    -1.657626085495
H                    -2.233765905616     0.283131996109    -3.175346940047
H                    -2.580269629716     0.154324897175    -4.924855223529
H                    -1.972000963419    -3.581555770871    -1.919573128154
H                    -2.351649416353    -3.650087220088    -3.663411685290
H                    -1.346405691133    -1.954804577359    -5.077385813077
H                    -0.296394129527    -0.750633216576    -4.279155117274
H                    -4.582108186657     7.426137005223     3.919597395737
H                    -3.890433746434     4.297138707352     2.202778473516
H                    -6.255251864678     8.077747586996     1.423234977687
H                    -6.352968511292     8.924779010458     2.982465900256
H                    -6.842882111749     7.223946399478     2.859735718947
H                    -3.040861483887    10.410063302286    -0.031543623807
H                    -1.570075875033     9.433045556102     0.228838292583
H                    -2.238534840055    10.426419259683     1.554443054169
H                    -5.128600409042     1.764083268517     6.425416432796
H                    -4.994387108721     0.955411043790     4.843063736436
H                    -6.584377001713     1.475555141264     5.458306418609
H                    -3.936254005166     4.351497372672    -2.994211411788
