
  -OEChem-05262117483D

 52 53  0     1  0  0  0  0  0999 V2000
   -3.4234   -0.2304    1.7130 C   0  0  0  0  0  0  0  0  0  0  0  0
   -3.6706    0.7418    0.7256 C   0  0  0  0  0  0  0  0  0  0  0  0
   -2.2323   -0.9413    1.6864 C   0  0  0  0  0  0  0  0  0  0  0  0
   -2.7312    1.0106   -0.2649 C   0  0  0  0  0  0  0  0  0  0  0  0
   -1.2707   -0.6948    0.6865 C   0  0  0  0  0  0  0  0  0  0  0  0
   -1.5245    0.2987   -0.2802 C   0  0  0  0  0  0  0  0  0  0  0  0
   -0.0546   -1.5225    0.5972 C   0  0  0  0  0  0  0  0  0  0  0  0
    0.7338    0.1886   -1.0142 C   0  0  1  0  0  0  0  0  0  0  0  0
    0.7964   -1.3199   -0.6682 C   0  0  0  0  0  0  0  0  0  0  0  0
    2.4105    2.6018   -3.5928 C   0  0  0  0  0  0  0  0  0  0  0  0
   -0.8927   -6.1860   -2.3730 C   0  0  0  0  0  0  0  0  0  0  0  0
    5.4415   -0.7347    2.0796 C   0  0  0  0  0  0  0  0  0  0  0  0
    1.5511    0.6397   -2.2189 C   0  0  0  0  0  0  0  0  0  0  0  0
    0.1515   -2.1506   -1.8145 C   0  0  0  0  0  0  0  0  0  0  0  0
    2.2393   -1.8021   -0.4271 C   0  0  0  0  0  0  0  0  0  0  0  0
    1.5685    2.1641   -2.3901 C   0  0  0  0  0  0  0  0  0  0  0  0
    0.0270   -3.6427   -1.5022 C   0  0  0  0  0  0  0  0  0  0  0  0
    3.0039   -1.0105    0.6356 C   0  0  0  0  0  0  0  0  0  0  0  0
    0.2382   -2.3674    1.4403 O   0  0  0  0  0  0  0  0  0  0  0  0
   -2.2374   -3.9467   -2.8890 O   0  0  0  0  0  0  0  0  0  0  0  0
   -0.0127   -4.3416   -4.0813 O   0  0  0  0  0  0  0  0  0  0  0  0
    4.7291   -3.0373    0.9504 O   0  0  0  0  0  0  0  0  0  0  0  0
    5.3799   -1.0808   -0.5604 O   0  0  0  0  0  0  0  0  0  0  0  0
   -0.6317    0.5977   -1.2614 O   0  0  0  0  0  0  0  0  0  0  0  0
   -0.8526   -4.4501   -2.8754 S   0  0  0  0  0  0  0  0  0  0  0  0
    4.7275   -1.5942    0.6586 S   0  0  0  0  0  0  0  0  0  0  0  0
   -4.1647   -0.4273    2.4817 H   0  0  0  0  0  0  0  0  0  0  0  0
   -4.6047    1.2974    0.7367 H   0  0  0  0  0  0  0  0  0  0  0  0
   -2.0160   -1.7135    2.4187 H   0  0  0  0  0  0  0  0  0  0  0  0
   -2.9049    1.7656   -1.0256 H   0  0  0  0  0  0  0  0  0  0  0  0
    1.0626    0.7531   -0.1284 H   0  0  0  0  0  0  0  0  0  0  0  0
    3.4496    2.2682   -3.4930 H   0  0  0  0  0  0  0  0  0  0  0  0
    2.4170    3.6919   -3.6954 H   0  0  0  0  0  0  0  0  0  0  0  0
    2.0153    2.1818   -4.5245 H   0  0  0  0  0  0  0  0  0  0  0  0
   -1.4206   -6.7153   -3.1685 H   0  0  0  0  0  0  0  0  0  0  0  0
    0.1294   -6.5573   -2.2840 H   0  0  0  0  0  0  0  0  0  0  0  0
   -1.4381   -6.2740   -1.4321 H   0  0  0  0  0  0  0  0  0  0  0  0
    6.4928   -1.0274    2.1096 H   0  0  0  0  0  0  0  0  0  0  0  0
    5.3543    0.3426    1.9295 H   0  0  0  0  0  0  0  0  0  0  0  0
    4.9308   -1.0598    2.9872 H   0  0  0  0  0  0  0  0  0  0  0  0
    2.5790    0.2803   -2.1056 H   0  0  0  0  0  0  0  0  0  0  0  0
    1.1492    0.1716   -3.1237 H   0  0  0  0  0  0  0  0  0  0  0  0
    0.7580   -2.0319   -2.7160 H   0  0  0  0  0  0  0  0  0  0  0  0
   -0.8402   -1.7506   -2.0383 H   0  0  0  0  0  0  0  0  0  0  0  0
    2.7863   -1.7748   -1.3731 H   0  0  0  0  0  0  0  0  0  0  0  0
    2.2100   -2.8401   -0.0949 H   0  0  0  0  0  0  0  0  0  0  0  0
    0.5420    2.5282   -2.4990 H   0  0  0  0  0  0  0  0  0  0  0  0
    1.9673    2.6239   -1.4756 H   0  0  0  0  0  0  0  0  0  0  0  0
    0.9973   -4.1378   -1.4240 H   0  0  0  0  0  0  0  0  0  0  0  0
   -0.5556   -3.8353   -0.5988 H   0  0  0  0  0  0  0  0  0  0  0  0
    3.0667    0.0586    0.4220 H   0  0  0  0  0  0  0  0  0  0  0  0
    2.5823   -1.1746    1.6300 H   0  0  0  0  0  0  0  0  0  0  0  0
  1  2  1  0  0  0  0
  1  3  2  0  0  0  0
  1 27  1  0  0  0  0
  2  4  2  0  0  0  0
  2 28  1  0  0  0  0
  3  5  1  0  0  0  0
  3 29  1  0  0  0  0
  4  6  1  0  0  0  0
  4 30  1  0  0  0  0
  5  6  2  0  0  0  0
  5  7  1  0  0  0  0
  6 24  1  0  0  0  0
  7  9  1  0  0  0  0
  7 19  2  0  0  0  0
  8  9  1  0  0  0  0
  8 13  1  0  0  0  0
  8 24  1  0  0  0  0
  8 31  1  0  0  0  0
  9 14  1  0  0  0  0
  9 15  1  0  0  0  0
 10 16  1  0  0  0  0
 10 32  1  0  0  0  0
 10 33  1  0  0  0  0
 10 34  1  0  0  0  0
 11 25  1  0  0  0  0
 11 35  1  0  0  0  0
 11 36  1  0  0  0  0
 11 37  1  0  0  0  0
 12 26  1  0  0  0  0
 12 38  1  0  0  0  0
 12 39  1  0  0  0  0
 12 40  1  0  0  0  0
 13 16  1  0  0  0  0
 13 41  1  0  0  0  0
 13 42  1  0  0  0  0
 14 17  1  0  0  0  0
 14 43  1  0  0  0  0
 14 44  1  0  0  0  0
 15 18  1  0  0  0  0
 15 45  1  0  0  0  0
 15 46  1  0  0  0  0
 16 47  1  0  0  0  0
 16 48  1  0  0  0  0
 17 25  1  0  0  0  0
 17 49  1  0  0  0  0
 17 50  1  0  0  0  0
 18 26  1  0  0  0  0
 18 51  1  0  0  0  0
 18 52  1  0  0  0  0
 20 25  2  0  0  0  0
 21 25  2  0  0  0  0
 22 26  2  0  0  0  0
 23 26  2  0  0  0  0
M  END
$$$$
