
  -OEChem-05262117483D

 37 38  0     1  0  0  0  0  0999 V2000
    5.8861   -4.0645    0.5125 C   0  0  0  0  0  0  0  0  0  0  0  0
    6.5287   -2.0198   -0.6047 C   0  0  0  0  0  0  0  0  0  0  0  0
    4.8243   -4.2117   -0.3811 C   0  0  0  0  0  0  0  0  0  0  0  0
    5.4677   -2.1681   -1.4927 C   0  0  0  0  0  0  0  0  0  0  0  0
    6.7505   -2.9626    0.4143 C   0  0  0  0  0  0  0  0  0  0  0  0
    4.5955   -3.2631   -1.3859 C   0  0  0  0  0  0  0  0  0  0  0  0
    7.9047   -2.7591    1.3454 C   0  0  0  0  0  0  0  0  0  0  0  0
    0.3364   -1.3486    0.1579 C   0  0  0  0  0  0  0  0  0  0  0  0
    0.9030   -0.6338   -1.0767 C   0  0  0  0  0  0  0  0  0  0  0  0
    0.2216   -2.8613   -0.0775 C   0  0  0  0  0  0  0  0  0  0  0  0
    2.2437   -1.2434   -1.5112 C   0  0  0  0  0  0  0  0  0  0  0  0
    1.5639   -3.4630   -0.5193 C   0  0  0  0  0  0  0  0  0  0  0  0
    2.1111   -2.7523   -1.7671 C   0  0  0  0  0  0  0  0  0  0  0  0
    8.1569   -3.7910    2.4324 C   0  0  0  0  0  0  0  0  0  0  0  0
    3.4064   -3.4070   -2.3107 C   0  0  1  0  0  0  0  0  0  0  0  0
    8.6357   -1.7799    1.2376 O   0  0  0  0  0  0  0  0  0  0  0  0
    3.7727   -2.8435   -3.5781 O   0  0  0  0  0  0  0  0  0  0  0  0
    6.0374   -4.8179    1.2794 H   0  0  0  0  0  0  0  0  0  0  0  0
    7.2073   -1.1758   -0.6811 H   0  0  0  0  0  0  0  0  0  0  0  0
    4.1720   -5.0777   -0.2997 H   0  0  0  0  0  0  0  0  0  0  0  0
    5.3102   -1.4454   -2.2859 H   0  0  0  0  0  0  0  0  0  0  0  0
   -0.6415   -0.9312    0.4252 H   0  0  0  0  0  0  0  0  0  0  0  0
    1.0008   -1.1673    1.0140 H   0  0  0  0  0  0  0  0  0  0  0  0
    0.1822   -0.7105   -1.9030 H   0  0  0  0  0  0  0  0  0  0  0  0
    1.0293    0.4354   -0.8709 H   0  0  0  0  0  0  0  0  0  0  0  0
   -0.1304   -3.3621    0.8320 H   0  0  0  0  0  0  0  0  0  0  0  0
   -0.5335   -3.0516   -0.8528 H   0  0  0  0  0  0  0  0  0  0  0  0
    2.6206   -0.7416   -2.4088 H   0  0  0  0  0  0  0  0  0  0  0  0
    2.9869   -1.0773   -0.7217 H   0  0  0  0  0  0  0  0  0  0  0  0
    2.2883   -3.3656    0.2986 H   0  0  0  0  0  0  0  0  0  0  0  0
    1.4489   -4.5372   -0.7148 H   0  0  0  0  0  0  0  0  0  0  0  0
    1.3611   -2.8908   -2.5650 H   0  0  0  0  0  0  0  0  0  0  0  0
    8.3370   -4.7803    1.9981 H   0  0  0  0  0  0  0  0  0  0  0  0
    7.2915   -3.8781    3.0982 H   0  0  0  0  0  0  0  0  0  0  0  0
    9.0290   -3.4867    3.0121 H   0  0  0  0  0  0  0  0  0  0  0  0
    3.2011   -4.4812   -2.4363 H   0  0  0  0  0  0  0  0  0  0  0  0
    2.9846   -2.8569   -4.1440 H   0  0  0  0  0  0  0  0  0  0  0  0
  1  3  1  0  0  0  0
  1  5  2  0  0  0  0
  1 18  1  0  0  0  0
  2  4  2  0  0  0  0
  2  5  1  0  0  0  0
  2 19  1  0  0  0  0
  3  6  2  0  0  0  0
  3 20  1  0  0  0  0
  4  6  1  0  0  0  0
  4 21  1  0  0  0  0
  5  7  1  0  0  0  0
  6 15  1  0  0  0  0
  7 14  1  0  0  0  0
  7 16  2  0  0  0  0
  8  9  1  0  0  0  0
  8 10  1  0  0  0  0
  8 22  1  0  0  0  0
  8 23  1  0  0  0  0
  9 11  1  0  0  0  0
  9 24  1  0  0  0  0
  9 25  1  0  0  0  0
 10 12  1  0  0  0  0
 10 26  1  0  0  0  0
 10 27  1  0  0  0  0
 11 13  1  0  0  0  0
 11 28  1  0  0  0  0
 11 29  1  0  0  0  0
 12 13  1  0  0  0  0
 12 30  1  0  0  0  0
 12 31  1  0  0  0  0
 13 15  1  0  0  0  0
 13 32  1  0  0  0  0
 14 33  1  0  0  0  0
 14 34  1  0  0  0  0
 14 35  1  0  0  0  0
 15 17  1  0  0  0  0
 15 36  1  0  0  0  0
 17 37  1  0  0  0  0
M  END
$$$$
