52
0 1 C18H26O6S2
C                    -0.034726333682     1.028610619186    -3.576269041824
C                    -1.323042152150     1.355038582313    -3.115284040736
C                     0.879339576044     0.461005681333    -2.699629730083
C                    -1.688248411778     1.129084125607    -1.790917590865
C                     0.528478945465     0.214780414226    -1.358408493918
C                    -0.759925081552     0.563815325219    -0.908214368674
C                     1.474033100603    -0.449346536813    -0.446895753106
C                    -0.118618643718     0.232377969529     1.369094751428
C                     0.911419303992    -0.838492149023     0.932896125132
C                     0.020506685851     3.992936372286     2.446288246600
C                     4.405694358479    -1.432023970852     4.176256852081
C                    -0.739480489355    -5.345067009407     1.353253873960
C                     0.471383703702     1.607855709390     1.697712227597
C                     2.082407967476    -0.945695837045     1.928015552580
C                     0.165898542533    -2.194643321130     0.765871874502
C                    -0.598610563066     2.656977062633     2.022646715049
C                     1.672771216641    -1.423209476637     3.323233697941
C                     1.074797915231    -3.356811907579     0.373328468340
O                     2.621347635124    -0.743323279007    -0.771615839119
O                     2.812170371361     0.677171047572     4.488485291986
O                     2.370468942379    -1.414399480429     5.894119613392
O                    -0.865915704903    -4.412878579418    -1.132301798220
O                     1.122994407185    -5.880238459056    -0.462497029715
O                    -1.165568417734     0.348009709524     0.373716894997
S                     2.776234814835    -0.790899067259     4.624646324283
S                     0.141179315037    -4.831707990378    -0.143059682754
H                     0.237302254522     1.212985394614    -4.611196549917
H                    -2.045274470164     1.796061659029    -3.797395042237
H                     1.877371827698     0.181399566520    -3.023310453845
H                    -2.676050445551     1.385611959704    -1.420272188569
H                    -0.665540425703    -0.129070973150     2.245146279582
H                     0.649269602336     3.873845115110     3.335441937901
H                    -0.753935171243     4.731402434220     2.678083009925
H                     0.647731532898     4.407220981814     1.648581817244
H                     5.087709504821    -1.074014934047     4.949782486462
H                     4.371968825905    -2.522738816899     4.177530581627
H                     4.697963006597    -1.037432341962     3.202646070490
H                    -1.254649680744    -6.269717558744     1.086120185539
H                    -0.018382039351    -5.534887473425     2.150200172004
H                    -1.464418553948    -4.580406717880     1.634295815883
H                     1.133771984806     1.501577853940     2.563240998124
H                     1.095853331391     1.961712440792     0.868187563212
H                     2.561958367817     0.031719585813     2.002630634682
H                     2.834072481642    -1.614236274191     1.505275686079
H                    -0.616104759476    -2.087872679986     0.010727877298
H                    -0.341548254694    -2.418480407521     1.711207834001
H                    -1.246835717757     2.804650339856     1.153034294571
H                    -1.242615333707     2.277616243971     2.826860658819
H                     0.703507832215    -1.036913351412     3.649909596465
H                     1.652915995562    -2.510821375690     3.431054179044
H                     1.687160629812    -3.128662280926    -0.503644706594
H                     1.742271345909    -3.688661397064     1.172605516825
