37
0 1 C15H20O2
C                     7.045036733444    -2.478715352927    -1.132337814021
C                     6.019752268199    -3.900835221937     0.531190915169
C                     5.964486757185    -2.698100132772    -1.989274180717
C                     4.945046419219    -4.118150246833    -0.323974978042
C                     7.086785470966    -3.073195063434     0.138471033699
C                     4.901154461076    -3.516128972599    -1.592257576092
C                     8.223703239661    -2.867253940667     1.089058182704
C                     0.140757624302    -1.112919264685    -2.115092709020
C                    -0.059953841180    -2.632217681171    -2.196340186065
C                     1.396544025320    -0.761957047956    -1.305860588344
C                     1.189067886467    -3.327594276910    -2.757475990727
C                     2.645677065394    -1.464877123043    -1.856921181713
C                     2.446530509219    -2.986253322096    -1.939049516560
C                     9.379054907073    -1.976769352805     0.663412609431
C                     3.692694156043    -3.731971000978    -2.477782752178
O                     8.227610096798    -3.404479841459     2.192381003886
O                     4.035319492740    -3.328408760013    -3.808429403100
H                     7.856516338527    -1.838897400626    -1.465919766193
H                     6.060347113646    -4.365642829858     1.511425481990
H                     5.938851682691    -2.240689665532    -2.971946026644
H                     4.131142896756    -4.767485324265    -0.007298766638
H                    -0.742781046994    -0.637483947420    -1.673224599800
H                     0.240512222315    -0.707924826766    -3.131862982826
H                    -0.269840387520    -3.025783367743    -1.192398887672
H                    -0.932129765404    -2.871061852249    -2.816122515484
H                     1.552416755253     0.323133999035    -1.299707617370
H                     1.246375693425    -1.061599521208    -0.259359381975
H                     1.040042312758    -4.415102113265    -2.783028137861
H                     1.322149430196    -2.997729519471    -3.798901133497
H                     2.875646961108    -1.081462124309    -2.858957696154
H                     3.511592447499    -1.235171985271    -1.227641925857
H                     2.283821190732    -3.363053473402    -0.919206972163
H                     9.029942233489    -0.962871214769     0.440050586589
H                     9.858754958731    -2.364448350375    -0.241728853640
H                    10.110378161476    -1.937415893593     1.471476105738
H                     3.459746696583    -4.808897124073    -2.475501606809
H                     3.276498994530    -3.519966586898    -4.379913691459
