61
0 1 C25FH24N7O3S
C                    -5.369268849761     7.522199131663     1.004350235958
C                    -4.281213304409     8.270795238232     0.536449105690
C                    -6.191723897115     1.317602427387     4.143565987957
C                    -4.991971028455     1.225488582076     3.444650032778
C                    -5.255738943438     6.797128365301     2.190831573013
C                    -3.087778726976     8.307448602478     1.259353367633
C                    -6.583073712328     2.543368658162     4.733909506507
C                    -4.213557246594     2.391976148874     3.364826195891
C                    -0.266292693539     0.630604088045     0.474380000320
C                    -4.066752798974     6.815637978694     2.934647320207
C                    -3.015301960023     7.588023908240     2.445940582464
C                    -2.980209546839     2.825205000913     2.771611684593
C                    -0.216237471925     2.014891268478     0.531817037644
C                    -4.716558616578     3.552903317338     4.008840777478
C                    -1.343661356952     0.055719873151     1.188951859072
C                    -2.047395020833     2.054060447018     1.943770502252
C                    -0.310252095318    -1.728175933012     0.165514322836
C                     0.818653464732     2.849308192051    -0.191377086408
C                     0.517717888756    -0.474436828661    -0.209054124128
C                     1.932040379193    -0.656801360408     0.386151458759
C                     0.575969356267    -0.339887696607    -1.741377914857
C                     0.583222274991     5.583734133666     2.605963427006
C                    -3.906498169523     5.955693747565     4.166304991996
C                     1.360096563928     5.138733178940    -0.891965940086
C                     2.082699771665     5.866163742280     0.244194385516
N                    -5.868022101517     3.670121244855     4.681104727732
N                    -2.757533946215     4.112577566295     3.046871661683
N                    -1.107543967247     2.717243425291     1.268002134129
N                    -2.231814331814     0.708718338577     1.921676226559
N                    -3.789955323957     4.544350154401     3.801934811194
N                    -1.347067607156    -1.315443627789     1.005935222248
N                     0.437083008417     4.130994515466    -0.402529556930
O                    -0.109527220485    -2.876837625708    -0.178553752025
O                     1.908087114542     2.381440791538    -0.541078321470
O                    -0.417880601512     6.886578406618     0.451148983186
F                    -1.859437070093     7.648116944194     3.168592675592
S                     0.861693230603     6.825211868664     1.288208210282
H                    -6.297420668361     7.498103677096     0.440216234931
H                    -4.357666531178     8.821147977706    -0.397281256731
H                    -6.843347496647     0.454937309919     4.244778024676
H                    -4.661290094545     0.302815001757     2.980782915638
H                    -6.089405186803     6.197531071950     2.549549278646
H                    -2.212606871267     8.841359943601     0.907738611903
H                    -7.526367270048     2.603679969132     5.273913296608
H                     2.381008326754    -1.564704181292    -0.026408498738
H                     1.891258226180    -0.756327237448     1.475956792059
H                     2.541327759247     0.211252728436     0.133652854029
H                     0.995907261188    -1.254594376434    -2.168624730744
H                     1.207587734147     0.508238372249    -2.010576526839
H                    -0.422348555829    -0.188326041115    -2.164480511169
H                    -0.121275123899     6.038306364228     3.302270617912
H                     1.535815487176     5.383489338983     3.105869814113
H                     0.142708991725     4.673653764437     2.197341235886
H                    -3.019568705289     6.239887802336     4.733996550867
H                    -4.780371895325     6.024407990466     4.816879899882
H                     2.100404956321     4.650085444456    -1.528927235051
H                     0.793006007491     5.858582294468    -1.484352844686
H                     2.777089367238     6.605777404372    -0.166322074805
H                     2.637859117703     5.174893223022     0.883069523948
H                    -2.032052903470    -1.946735434537     1.405718169534
H                    -0.443619701663     4.450433344124    -0.005792680671
