29   
torsion grid (-165,)
C       -0.6216054174   -1.0853217440   -2.4587116438
C       -1.5728643261   -0.1065439611   -2.1464686509
C       -2.3168555851    2.9124620734    3.7150716093
C       -3.5089100834    2.1828139157    3.7008064311
C        0.4416834953   -1.3041765906   -1.5829594633
C       -1.4544418641    0.6275074118   -0.9704708070
C       -1.2754133562    2.5849383266    2.8489692251
C       -3.6224180392    1.1023482008    2.8256593978
C        0.5643856598   -0.5909325802   -0.3836831408
C       -0.4101370097    0.3700717890   -0.0670561946
C       -1.3788853973    1.5343972910    1.9125298517
C       -2.5632673465    0.7727371728    1.9871766342
C        1.9914143752    0.3887013615    1.3891685350
C        1.0227367669    1.2735435206    1.6520367931
C        1.7360549919   -0.8305903907    0.5447440476
N       -0.2757147258    1.1918927362    1.0907667834
F       -2.6995992470   -0.3591921735    1.2500609564
H       -0.7010257860   -1.6581405955   -3.3786041569
H       -2.3959707313    0.0972787942   -2.8262122368
H       -2.1927889895    3.7468779257    4.3995536069
H       -4.3273054901    2.4354713820    4.3681314705
H        1.1991373395   -2.0463086959   -1.8271489112
H       -2.1753633704    1.4069891289   -0.7422963612
H       -0.3827356274    3.1995923594    2.8609646568
H       -4.5054998119    0.4704591857    2.8051420754
H        2.9746646793    0.5484921165    1.8216499655
H        1.2039638229    2.1188444097    2.3023447040
H        1.5357714423   -1.6963240511    1.1953493188
H        2.6250091237   -1.0939468339   -0.0394172373
29   
torsion grid (-150,)
C       -0.6300207632   -1.0212547117   -2.4837748387
C       -1.6248415067   -0.1261933624   -2.0747134708
C       -2.4109980792    3.0654032304    3.4978280746
C       -3.5695215830    2.2868343373    3.5820380777
C        0.4818754144   -1.2168769944   -1.6648147719
C       -1.5016598837    0.5451011402   -0.8621912334
C       -1.3508136615    2.6626711551    2.6861279493
C       -3.6394313180    1.0888022028    2.8673784048
C        0.6199498370   -0.5641849572   -0.4335753912
C       -0.4005897741    0.3125991810   -0.0197927756
C       -1.4068847177    1.4791844836    1.9273956989
C       -2.5590117987    0.6884948402    2.0893766012
C        1.9750152748    0.2098189949    1.5128104691
C        0.9632907467    1.0158743229    1.8565222677
C        1.8587312484   -0.8025872186    0.4084078714
N       -0.2759982997    1.0569166931    1.1833086329
F       -2.6314445836   -0.5248751184    1.4903406062
H       -0.7144717236   -1.5474037517   -3.4306111970
H       -2.4906941270    0.0606172589   -2.7044505292
H       -2.3342923605    3.9953228211    4.0540026992
H       -4.4040579008    2.5985924187    4.2030952421
H        1.2717824181   -1.8952125077   -1.9819259876
H       -2.2626908876    1.2591180945   -0.5629489577
H       -0.4748484848    3.2977863646    2.5943752941
H       -4.5023739317    0.4325710416    2.9313835380
H        2.8979637831    0.2701346887    2.0818158459
H        1.0449174503    1.6916931704    2.6986748477
H        1.8351465899   -1.8174328360    0.8350482036
H        2.7484986042   -0.7761191691   -0.2343781621
29   
torsion grid (-135,)
C       -0.6430284661   -0.8904775102   -2.5433355114
C       -1.6753743236   -0.0914343076   -2.0419635069
C       -2.4284998365    3.1598656064    3.3366975025
C       -3.5819747013    2.3885216013    3.5102858332
C        0.4970736734   -1.0903337191   -1.7635575964
C       -1.5617725151    0.4861424150   -0.7798707226
C       -1.3643308500    2.6712369846    2.5769009197
C       -3.6543308536    1.1150083135    2.9384140463
C        0.6288803538   -0.5338150300   -0.4865876357
C       -0.4260532699    0.2557238721    0.0155051112
C       -1.4176805959    1.4015417237    1.9787758697
C       -2.5719459779    0.6351456582    2.2110589892
C        1.9823906987    0.1263093042    1.5078772526
C        0.9398775317    0.8521801927    1.9322009869
C        1.8931091201   -0.7860040533    0.3156115244
N       -0.3019543038    0.8886770297    1.2754616864
F       -2.6366255069   -0.6253539517    1.7214892149
H       -0.7211855592   -1.3420244335   -3.5283987106
H       -2.5664725581    0.0941300764   -2.6359077247
H       -2.3610449102    4.1495593841    3.7791689554
H       -4.4179123768    2.7680705682    4.0905400465
H        1.3135564599   -1.6978525582   -2.1496059402
H       -2.3556983812    1.1277658841   -0.4119874165
H       -0.4834815064    3.2851484031    2.4117488921
H       -4.5207790406    0.4740851786    3.0717593431
H        2.9070013116    0.1689535794    2.0751694165
H        0.9918517184    1.4552504653    2.8314004456
H        1.9227796089   -1.8358639746    0.6467071282
H        2.7694214837   -0.6598246245   -0.3340397050
29   
torsion grid (-120,)
C       -0.6123393211   -0.7644954081   -2.5777439237
C       -1.6811030840   -0.0680532848   -2.0065167811
C       -2.4467904631    3.1927212025    3.1773655707
C       -3.5919911403    2.4347495988    3.4416052562
C        0.5439132975   -0.9661290794   -1.8210818307
C       -1.5881920200    0.4117044607   -0.7012344726
C       -1.3800144436    2.6272353085    2.4749448096
C       -3.6611120998    1.1043835252    3.0154653279
C        0.6574495362   -0.5092459693   -0.5043261068
C       -0.4313419478    0.1861071450    0.0640951369
C       -1.4247243976    1.2946382441    2.0396335681
C       -2.5777734928    0.5545634754    2.3409309328
C        1.9998635509    0.0612816812    1.5286946077
C        0.9254936208    0.6999297854    2.0116466615
C        1.9340603330   -0.7714573566    0.2768149548
N       -0.3243287473    0.7020399188    1.3752006474
F       -2.6394422253   -0.7422189856    1.9606313878
H       -0.6755442527   -1.1384213062   -3.5958344939
H       -2.5879529960    0.1132867503   -2.5775589674
H       -2.3891452379    4.2275026220    3.5025984069
H       -4.4292470945    2.8720655613    3.9778720583
H        1.3868827557   -1.4981453850   -2.2583481119
H       -2.4145954278    0.9736602841   -0.2797190862
H       -0.4992173607    3.2182229955    2.2399561035
H       -4.5284709081    0.4823189425    3.2151252393
H        2.9293975853    0.1115645418    2.0870694015
H        0.9539328103    1.2487794921    2.9465345254
H        1.9995340173   -1.8402607752    0.5346586291
H        2.8023942950   -0.5719940110   -0.3648486195
29   
torsion grid (-105,)
C       -0.5625184606   -0.6307129017   -2.5956085079
C       -1.6589361151   -0.0164777020   -1.9847131017
C       -2.4729025557    3.2302980788    2.9739452766
C       -3.5927497509    2.4883180336    3.3639588799
C        0.5956045614   -0.8479562472   -1.8449390508
C       -1.5905407505    0.3741877966   -0.6476950571
C       -1.4073753984    2.5974280994    2.3285981991
C       -3.6439125155    1.1126905954    3.1169119668
C        0.6853386061   -0.4827863709   -0.4985993341
C       -0.4277788869    0.1409435957    0.1061426254
C       -1.4314741403    1.2182502495    2.0821892766
C       -2.5640227355    0.5015191004    2.4897280820
C        2.0019396011    0.0034213955    1.5718387166
C        0.9064136158    0.5799689521    2.0854586500
C        1.9546825302   -0.7752398341    0.2839998209
N       -0.3449927053    0.5570070879    1.4531359430
F       -2.6114555236   -0.8293840353    2.2580508096
H       -0.6068360694   -0.9332663720   -3.6381160301
H       -2.5698112253    0.1692828959   -2.5479556801
H       -2.4345579958    4.2999513377    3.1588331911
H       -4.4280929911    2.9757483655    3.8586339367
H        1.4574664992   -1.3219605236   -2.3111588333
H       -2.4406927616    0.8705540732   -0.1925712942
H       -0.5410828963    3.1648487646    1.9997499400
H       -4.4968342322    0.5085234103    3.4110556184
H        2.9322805849    0.0615361265    2.1278977304
H        0.9159081483    1.0937645234    3.0408162575
H        2.0190630036   -1.8544327037    0.4955250969
H        2.8295396848   -0.5460642455   -0.3380587349
29   
torsion grid (-90,)
C       -0.5123153702   -0.6579087054   -2.5825493793
C       -1.5871431982    0.0362479685   -2.0212065508
C       -2.7589066480    3.2587708036    2.5792831715
C       -3.6878149298    2.4646440029    3.2611100171
C        0.6222600945   -0.8936432762   -1.8013981003
C       -1.5257441460    0.4782338829   -0.6993819010
C       -1.6470549151    2.6665280989    1.9749992679
C       -3.5096778734    1.0800622481    3.3374281836
C        0.7176292781   -0.4487202292   -0.4798413301
C       -0.3799445428    0.2416218281    0.0797020930
C       -1.4507460087    1.2821017849    2.0335143021
C       -2.3989405257    0.5138776538    2.7198343214
C        1.7797831558   -0.4613495639    1.7867855346
C        0.7046923428    0.1901919632    2.2500846270
C        1.9917395785   -0.6900562846    0.3133369221
N       -0.3173507463    0.6774633724    1.4211974683
F       -2.2276160342   -0.8259593537    2.7838076622
H       -0.5556156642   -1.0099739168   -3.6094398923
H       -2.4823035524    0.2302670581   -2.6065367968
H       -2.8970355813    4.3346124585    2.5232012876
H       -4.5523331277    2.9198466134    3.7362220454
H        1.4658467793   -1.4331948479   -2.2282704191
H       -2.3720298358    1.0037550686   -0.2702640212
H       -0.9137129459    3.2641102217    1.4410548071
H       -4.2140258168    0.4385144072    3.8583273414
H        2.5277952221   -0.8054655122    2.4939683206
H        0.5575572620    0.3899901404    3.3061877319
H        2.3483682459   -1.7120527985    0.1311542471
H        2.7904835041   -0.0298247088   -0.0608503943
29   
torsion grid (-75,)
C       -0.4529646184   -0.5302425139   -2.6338977420
C       -1.5615354930    0.0934311619   -2.0553640651
C       -2.8177294007    3.2184366011    2.4141328261
C       -3.6695411304    2.5108750380    3.2708859664
C        0.6690830283   -0.7852184790   -1.8413903683
C       -1.5419159224    0.4526409284   -0.7076585650
C       -1.7324264972    2.5725049463    1.8197264376
C       -3.4404309861    1.1560584644    3.5253285906
C        0.7223216150   -0.4216365103   -0.4926097016
C       -0.4044851988    0.2070037818    0.0815583086
C       -1.4885027124    1.2119994553    2.0524329429
C       -2.3629853859    0.5293488447    2.9068467965
C        1.7280811071   -0.5596275780    1.7955161575
C        0.6303425908    0.0424937528    2.2719287806
C        1.9789767944   -0.6967732723    0.3170878612
N       -0.3849583301    0.5534874193    1.4500834033
F       -2.1530014168   -0.7878456071    3.1411206795
H       -0.4627673006   -0.8173002026   -3.6816474617
H       -2.4511253248    0.2938772254   -2.6469955668
H       -2.9917357875    4.2727612431    2.2194724463
H       -4.5108676386    3.0105082088    3.7427483091
H        1.5361821394   -1.2762971823   -2.2794619959
H       -2.4168292667    0.9160863227   -0.2653198801
H       -1.0572313600    3.1080608337    1.1585146491
H       -4.0848250249    0.5782664104    4.1810087218
H        2.4677920603   -0.9289194043    2.4986917388
H        0.4602236465    0.1796881569    3.3341059633
H        2.3503181969   -1.7029345120    0.0829125851
H        2.7804604989   -0.0087306466    0.0040789842
29   
torsion grid (-60,)
C       -0.3710281052   -0.4085930144   -2.6706832338
C       -1.5284363006    0.1118487278   -2.0845428312
C       -2.8237103559    3.1828210956    2.2917563988
C       -3.6138739722    2.5920850315    3.2854356322
C        0.7412644439   -0.6576598917   -1.8638769036
C       -1.5635456674    0.3796330514   -0.7167610468
C       -1.7864347914    2.4609904714    1.7009361740
C       -3.3691237263    1.2736664350    3.6777722468
C        0.7392800458   -0.3835059339   -0.4925044952
C       -0.4328028480    0.1488588131    0.0875191590
C       -1.5285413461    1.1318387994    2.0706971967
C       -2.3436946359    0.5656368581    3.0595880944
C        1.6944316201   -0.6111844867    1.8099404835
C        0.5574090859   -0.0937627875    2.2929185534
C        1.9840700567   -0.6615339323    0.3337493241
N       -0.4758014859    0.3927465452    1.4778110766
F       -2.1268164833   -0.7206191262    3.4315954546
H       -0.3375499280   -0.6236795990   -3.7350518039
H       -2.4135596903    0.2998202860   -2.6868109735
H       -3.0060247290    4.2095680548    1.9876233177
H       -4.4168098368    3.1530081510    3.7550245434
H        1.6446480208   -1.0731116173   -2.3067782507
H       -2.4760181985    0.7582188917   -0.2695930842
H       -1.1611852595    2.9134596677    0.9369217495
H       -3.9657011352    0.7814099178    4.4398713528
H        2.4381258001   -0.9773664445    2.5106771567
H        0.3647735910   -0.0196087990    3.3569542326
H        2.3933492628   -1.6418500082    0.0562730373
H        2.7706537835    0.0661878903    0.0785834970
29   
torsion grid (-45,)
C       -0.3088734165   -0.2858750902   -2.6992942401
C       -1.5150988635    0.1114362010   -2.1126997000
C       -2.8092943189    3.1474792239    2.1827804592
C       -3.5390474672    2.6806182767    3.2823496482
C        0.7985347646   -0.5131357030   -1.8812351318
C       -1.6000851604    0.2837480412   -0.7329825451
C       -1.8307678261    2.3453668400    1.5959147629
C       -3.2900105218    1.4003276492    3.7830717918
C        0.7441083244   -0.3307247640   -0.4945446024
C       -0.4725721833    0.0852945468    0.0851102067
C       -1.5651321232    1.0525779355    2.0773230603
C       -2.3258405508    0.6094637692    3.1688568315
C        1.6488861338   -0.6611151645    1.8134352596
C        0.4717259238   -0.2469368414    2.2983177582
C        1.9802202652   -0.5934842180    0.3475340563
N       -0.5793148850    0.2222548552    1.4894538558
F       -2.1182896245   -0.6442069449    3.6496843206
H       -0.2361093448   -0.4264450249   -3.7741115148
H       -2.3979592354    0.2733175401   -2.7256833778
H       -2.9921834546    4.1433299506    1.7891498370
H       -4.2965259884    3.3047294843    3.7474154159
H        1.7382237716   -0.8378833331   -2.3243177233
H       -2.5472952160    0.5636450889   -0.2847585398
H       -1.2562989566    2.7112857107    0.7507876068
H       -3.8410620923    0.9964961866    4.6270819343
H        2.3944179707   -1.0337086486    2.5091875339
H        0.2538306555   -0.2596296521    3.3592615120
H        2.4527790511   -1.5279021375    0.0173571494
H        2.7300752451    0.1927069174    0.1668213818
29   
torsion grid (-30,)
C       -0.2571831374   -0.1689889589   -2.7120148215
C       -1.5048770586    0.1029802563   -2.1383719824
C       -2.8027728882    3.1016931246    2.0929410258
C       -3.4526927138    2.7529843435    3.2813840187
C        0.8402836506   -0.3717990066   -1.8762898778
C       -1.6344546090    0.1814032252   -0.7547333620
C       -1.8864565797    2.2280254295    1.5067691747
C       -3.1852051864    1.5146441454    3.8709081153
C        0.7383197799   -0.2817730090   -0.4817481153
C       -0.5155533640    0.0191865705    0.0837483191
C       -1.5940393314    0.9801514885    2.0841050876
C       -2.2852517992    0.6502302048    3.2609937367
C        1.5879786226   -0.7163491418    1.8242722373
C        0.3778797900   -0.4014112857    2.3001225156
C        1.9608526898   -0.5352561425    0.3795481773
N       -0.6865951051    0.0613555783    1.4933792661
F       -2.0785569168   -0.5675338374    3.8329495581
H       -0.1468951894   -0.2361742570   -3.7907919485
H       -2.3818102758    0.2371136172   -2.7662740430
H       -2.9997447970    4.0612002296    1.6230209856
H       -4.1627782949    3.4318173065    3.7443534573
H        1.8107288665   -0.6065448595   -2.3094965856
H       -2.6092957278    0.3643391471   -0.3148796918
H       -1.3764706636    2.5126572428    0.5928303241
H       -3.6787473960    1.1948426280    4.7837059462
H        2.3319833899   -1.0970681515    2.5177059886
H        0.1376110213   -0.5012627145    3.3507934597
H        2.4898859513   -1.4218016757    0.0059039650
H        2.6747210383    0.2966428608    0.2759765421
29   
torsion grid (-15,)
C       -0.1856265739   -0.0817444926   -2.7482035631
C       -1.4714014860    0.0749633574   -2.2148502505
C       -2.7528123549    3.1407193352    1.9461730791
C       -3.3068383866    2.9331119054    3.2120889726
C        0.8966107692   -0.2262972306   -1.8815881253
C       -1.6529672477    0.0958171675   -0.8351677595
C       -1.9190067301    2.1821703971    1.3684602098
C       -3.0273425683    1.7421112306    3.8869098200
C        0.7361462257   -0.1860473051   -0.4892894961
C       -0.5538979209   -0.0033846095    0.0369892465
C       -1.5969379224    0.9863006061    2.0360977552
C       -2.2104896001    0.7933792442    3.2875678365
C        1.4886656223   -0.7839471740    1.8014059956
C        0.2450809550   -0.5763419881    2.2470581124
C        1.9292646649   -0.3696946985    0.4246564507
N       -0.7934178441   -0.0278946037    1.4439066549
F       -2.0253067127   -0.3825665142    3.9524164253
H       -0.0339554133   -0.1071122643   -3.8238152062
H       -2.3331024350    0.1603620605   -2.8716196173
H       -2.9619476740    4.0569564247    1.4010662041
H       -3.9536311951    3.6776200879    3.6664989241
H        1.8962350731   -0.3736532618   -2.2856572851
H       -2.6518202080    0.1875874043   -0.4198994163
H       -1.4849566822    2.3720248279    0.3938039168
H       -3.4537691198    1.5186972527    4.8603204548
H        2.2053206068   -1.2545244988    2.4684227352
H       -0.0486855579   -0.8409646830    3.2535761037
H        2.6087948048   -1.1152725730   -0.0053788174
H        2.5108621242    0.5635948352    0.4819629600
29   
torsion grid (0,)
C       -0.1258033261   -0.0275726040   -2.7371615418
C       -1.4422693244   -0.0021581995   -2.2592675099
C       -2.7966539675    3.0535551645    1.9237024391
C       -3.1797822692    2.9646885210    3.2634428434
C        0.9303044480   -0.1066462086   -1.8296958818
C       -1.6830302407   -0.0444782868   -0.8880133911
C       -2.0449409183    2.0400862089    1.3274064353
C       -2.8098828318    1.8313518115    3.9907521342
C        0.7045980224   -0.1264091774   -0.4463429851
C       -0.6162062554   -0.0754211195    0.0249496931
C       -1.6218837292    0.9028537598    2.0446631608
C       -2.0750557397    0.8264984639    3.3771336061
C        1.3683096600   -0.9173948534    1.7993238081
C        0.0965597818   -0.8236967059    2.1999917237
C        1.8478303841   -0.2519222887    0.5362777401
N       -0.9104091169   -0.1642443283    1.4254956830
F       -1.8216323460   -0.2883374863    4.1240709172
H        0.0719005392   -0.0048705859   -3.8054163181
H       -2.2784649541    0.0294095203   -2.9526938841
H       -3.0772743236    3.9188433867    1.3294969189
H       -3.7630049174    3.7507476870    3.7334636636
H        1.9544312298   -0.1560317360   -2.1938308469
H       -2.7009968106   -0.0554227060   -0.5098649731
H       -1.7426023583    2.1526050268    0.2939972150
H       -3.1043014667    1.6916828919    5.0267103493
H        2.0680318770   -1.4855119804    2.4058049432
H       -0.2469744852   -1.2718096480    3.1212671328
H        2.6687125842   -0.8172257048    0.0823129065
H        2.2579257546    0.7421802543    0.7715943258
29   
torsion grid (15,)
C        0.0246034264    0.0568928049   -2.7043920810
C       -0.5716873325    1.2191846847   -2.1986318885
C       -3.9063879250    1.4469460531    1.9506303301
C       -3.9078037371    2.0655023605    3.2036457859
C        0.5328628415   -0.8875460710   -1.8140088977
C       -0.6598324808    1.4130428574   -0.8233063081
C       -2.7159587458    0.9869708373    1.3856772028
C       -2.6953707318    2.2324640276    3.8775362573
C        0.4339463943   -0.7205323137   -0.4253679462
C       -0.1881069715    0.4368191504    0.0727900788
C       -1.4843006874    1.1155649127    2.0535156778
C       -1.5198785257    1.7846498904    3.2906788129
C        1.2466853228   -1.1689017685    1.8793999553
C        0.6175495665   -0.0656316373    2.2979786525
C        1.0170331060   -1.7553911760    0.5138497455
N       -0.2521334270    0.7014923754    1.4738129859
F       -0.3545383454    2.0346407880    3.9532027255
H        0.1054678734   -0.1003603604   -3.7764672196
H       -0.9488209688    1.9826098901   -2.8739905011
H       -4.8367520698    1.3123342388    1.4059354476
H       -4.8320137896    2.4219607083    3.6485308918
H        1.0203090280   -1.7822306400   -2.1962956984
H       -1.0948084708    2.3266929613   -0.4301041529
H       -2.7406220594    0.4930702080    0.4214205553
H       -2.6366991867    2.7305793770    4.8407122974
H        1.9319771905   -1.6642252810    2.5613194288
H        0.7584354649    0.3232463154    3.2971290829
H        0.3433730712   -2.6233242447    0.5874910039
H        1.9538058518   -2.1430585808    0.0958565395
29   
torsion grid (30,)
C        0.0773637747    0.1565826695   -2.6945247144
C       -0.6212357760    1.2397407543   -2.1481028087
C       -3.9243292238    1.4689012945    2.0567656338
C       -3.8395335440    2.2239928216    3.2311395447
C        0.6426043036   -0.7860755718   -1.8364787145
C       -0.7536650087    1.3581036560   -0.7674569590
C       -2.7787654312    0.9099236360    1.4896676681
C       -2.5914638630    2.4252129160    3.8262786303
C        0.5060450728   -0.6966478135   -0.4448720662
C       -0.2184655355    0.3831760754    0.0948970532
C       -1.5126411644    1.0903595083    2.0730220666
C       -1.4602991317    1.8778185299    3.2346295374
C        1.2072234204   -1.2836814271    1.8758782280
C        0.4874171554   -0.2500253343    2.3271206336
C        1.1531528105   -1.7406052537    0.4446219221
N       -0.3285988044    0.5559463477    1.5006827125
F       -0.2530464886    2.1296609739    3.8107625736
H        0.1906591473    0.0578859647   -3.7705555960
H       -1.0479592678    2.0023595354   -2.7943488218
H       -4.8875835499    1.3033202914    1.5824471998
H       -4.7298922890    2.6560974675    3.6782697481
H        1.2061086788   -1.6208851612   -2.2489296036
H       -1.2707445747    2.2148780881   -0.3480473002
H       -2.8572352243    0.3139643689    0.5867971242
H       -2.4739574445    3.0185262467    4.7281118692
H        1.8361204162   -1.8213765773    2.5792249789
H        0.5046095714    0.0427733286    3.3690194179
H        0.6012063032   -2.6908711036    0.3735323272
H        2.1621536948   -1.9602378974    0.0725121599
29   
torsion grid (45,)
C        0.1407023335    0.3441479740   -2.6989855637
C       -0.6601927584    1.3352046740   -2.1217586148
C       -3.9757051499    1.5017711431    2.1563062095
C       -3.8010641503    2.3572912211    3.2504754955
C        0.7409955074   -0.6053851467   -1.8711269077
C       -0.8568176437    1.3616832652   -0.7428805343
C       -2.8772631344    0.8648023539    1.5791840208
C       -2.5178709064    2.5798173814    3.7562598490
C        0.5462279426   -0.6108280105   -0.4850463890
C       -0.2758771414    0.3833613443    0.0850244940
C       -1.5767271863    1.0762618473    2.0660947490
C       -1.4347479151    1.9519586153    3.1520021667
C        1.1551875210   -1.3343607661    1.8306247898
C        0.3500746580   -0.3762783105    2.3063024036
C        1.2265269902   -1.6690768047    0.3656359781
N       -0.4483200185    0.4434760747    1.4880630731
F       -0.1907698315    2.2021194747    3.6371515906
H        0.3027621173    0.3188271689   -3.7729560131
H       -1.1218247818    2.0997311671   -2.7412791431
H       -4.9702473328    1.3190934585    1.7593066156
H       -4.6544934860    2.8493665573    3.7077524640
H        1.3789634542   -1.3723216039   -2.3065235255
H       -1.4561226336    2.1511254859   -0.3023598249
H       -3.0124663805    0.1923129127    0.7379183137
H       -2.3387580394    3.2439820815    4.5964275420
H        1.7568699710   -1.9021287127    2.5337052379
H        0.2734577594   -0.1670170333    3.3663512464
H        0.7643521874   -2.6515018526    0.1807648863
H        2.2719041831   -1.7745728467    0.0467358726
29   
torsion grid (60,)
C        0.2309081966    0.4677203666   -2.6715495017
C       -0.6626826526    1.3701924846   -2.0874582529
C       -3.9986462536    1.5132308762    2.2802603208
C       -3.7247552593    2.4618896193    3.2731988600
C        0.8531230863   -0.4855057386   -1.8626572060
C       -0.9275587748    1.3114259212   -0.7199315607
C       -2.9577437568    0.7937401693    1.6932393918
C       -2.4052216249    2.6955370838    3.6683174222
C        0.5934036900   -0.5774688045   -0.4915049290
C       -0.3165484494    0.3342627171    0.0865272407
C       -1.6233869820    1.0188123743    2.0663756151
C       -1.3808767859    1.9825840518    3.0539630565
C        1.1460510921   -1.3821821951    1.8133557435
C        0.2614234123   -0.4989547229    2.2941732051
C        1.2894650409   -1.6437340446    0.3379347303
N       -0.5617087769    0.2903738963    1.4767055132
F       -0.1010211260    2.2320531260    3.4283168963
H        0.4451985406    0.5102267085   -3.7357590864
H       -1.1478969496    2.1326363435   -2.6914005603
H       -5.0234257456    1.3235969883    1.9739730925
H       -4.5327105397    3.0179993922    3.7398823006
H        1.5594868835   -1.1866016913   -2.3035505907
H       -1.6021574872    2.0342180502   -0.2745416965
H       -3.1602913224    0.0483240141    0.9298802780
H       -2.1551671129    3.4281618014    4.4297235203
H        1.7542069743   -1.9442456103    2.5150953768
H        0.1273791039   -0.3390725674    3.3577138799
H        0.8800831995   -2.6356635141    0.0890903448
H        2.3500235044   -1.6876652178    0.0574364040
29   
torsion grid (75,)
C        0.3193225924    0.5814643021   -2.6291767526
C       -0.6569755292    1.4020484247   -2.0581940222
C       -4.0394673331    1.4991562178    2.4019474886
C       -3.6789623684    2.5483552270    3.2560210061
C        0.9506224293   -0.3748219375   -1.8297457030
C       -0.9903452069    1.2629631821   -0.7108839873
C       -3.0505762223    0.7088468518    1.8137479657
C       -2.3310401949    2.8118896483    3.5137165643
C        0.6251654075   -0.5466191635   -0.4811294900
C       -0.3624003038    0.2889982276    0.0854556750
C       -1.6917094281    0.9591069056    2.0491649112
C       -1.3639023729    2.0212816158    2.9006681035
C        1.0976539940   -1.4311438145    1.8123461051
C        0.1455564359   -0.6138664725    2.2815063514
C        1.3238265488   -1.6212921448    0.3358685555
N       -0.6850755028    0.1552133053    1.4533802064
F       -0.0578691044    2.2893109680    3.1378167556
H        0.5881683293    0.6866489788   -3.6765231437
H       -1.1561696292    2.1610908761   -2.6550675995
H       -5.0869955311    1.2902606160    2.2048221333
H       -4.4440519298    3.1616926399    3.7235115914
H        1.7172924066   -1.0151898003   -2.2622481878
H       -1.7339857103    1.9203626085   -0.2741522472
H       -3.3123937714   -0.1139971873    1.1547814270
H       -2.0188558072    3.6207208992    4.1674523264
H        1.6988193819   -1.9925394175    2.5204688536
H       -0.0488488675   -0.5006504750    3.3423619232
H        0.9673571147   -2.6158368872    0.0235773268
H        2.3977161061   -1.6116669181    0.1081370465
29   
torsion grid (90,)
C        0.4129653219    0.6829438344   -2.5772004254
C       -0.6154274421    1.4476694736   -2.0204773051
C       -4.0589384353    1.4216043776    2.5635267560
C       -3.6479079590    2.5747718218    3.2416640294
C        1.0311802234   -0.2937666776   -1.7917112793
C       -1.0094023995    1.2390903526   -0.6984901707
C       -3.1097740654    0.5876815586    1.9669830234
C       -2.2900507958    2.8977619802    3.3214794082
C        0.6463536370   -0.5351665225   -0.4698736217
C       -0.3866475143    0.2520051746    0.0846484433
C       -1.7456768239    0.8941236574    2.0294824224
C       -1.3651649736    2.0557296583    2.7119534317
C        1.0226204955   -1.5194437648    1.8003597943
C        0.0337927093   -0.7402434280    2.2588811116
C        1.3203151618   -1.6391035006    0.3288243407
N       -0.7766926982    0.0449674436    1.4253274943
F       -0.0515034730    2.3690562493    2.7801631888
H        0.7290153259    0.8435465258   -3.6041616497
H       -1.1104891118    2.2157149627   -2.6092141373
H       -5.1138906410    1.1701399087    2.5044936278
H       -4.3813570982    3.2247584421    3.7106581544
H        1.8334816117   -0.8952746993   -2.2153625485
H       -1.7995478957    1.8478479714   -0.2721098436
H       -3.4073009418   -0.3120718625    1.4359705745
H       -1.9409210964    3.7859273338    3.8394370852
H        1.6040618960   -2.0981192425    2.5110297323
H       -0.2092972738   -0.6706072753    3.3138979381
H        0.9903727340   -2.6212488251   -0.0459375442
H        2.4034500782   -1.6085830497    0.1531317839
29   
torsion grid (105,)
C        0.3732092273    0.7224786310   -2.5898621263
C       -0.5874028378    1.5359922041   -1.9832900732
C       -3.9334054346    1.1554815996    2.9658652101
C       -3.6413129315    2.4683851391    3.3501178812
C        0.9795444828   -0.2849333672   -1.8353503271
C       -0.9326009238    1.3384218464   -0.6466134455
C       -2.9601958338    0.3828882877    2.3268696008
C       -2.3739830519    3.0060445280    3.1035566801
C        0.6649456679   -0.4938413738   -0.4894175769
C       -0.3094855642    0.3326591502    0.1115545163
C       -1.6799203854    0.8966033609    2.0810405511
C       -1.4159065696    2.2124189427    2.4828472407
C        0.6686829055   -1.8896893707    1.5865744310
C       -0.2548571282   -1.0630123608    2.0964168278
C        1.3792626321   -1.5814227418    0.2955428330
N       -0.6724178546    0.1144021515    1.4591251334
F       -0.1890323940    2.7308286223    2.2518822211
H        0.6439344867    0.8674509716   -3.6319826571
H       -1.0787532591    2.3230056046   -2.5495274878
H       -4.9192879441    0.7385822785    3.1503706626
H       -4.3961416431    3.0770571488    3.8398547317
H        1.7259244090   -0.9279951287   -2.2982308477
H       -1.6960035133    1.9625755994   -0.1951278384
H       -3.1801756377   -0.6305483340    2.0026397477
H       -2.1148396571    4.0198904930    3.3933416857
H        0.9417197586   -2.7775116624    2.1481478772
H       -0.7308558326   -1.2466018669    3.0537452177
H        1.4634981724   -2.4841364133   -0.3233127834
H        2.4152600910   -1.2694481885    0.5025349266
29   
torsion grid (120,)
C       -0.7021501150   -1.6438224825   -2.0300522734
C       -1.8175335322   -1.3089336313   -1.2572459082
C       -2.6414516355    1.6000730964    4.1217952161
C       -3.5915867898    2.4123270233    3.4947080833
C        0.5430963331   -1.1151427933   -1.6833957346
C       -1.6820081136   -0.4583590344   -0.1613938688
C       -1.5653786296    1.0903665292    3.3914439698
C       -3.4538889771    2.7266985489    2.1388125647
C        0.7038709033   -0.2467606382   -0.5991894476
C       -0.4310435571    0.0894487323    0.1697092363
C       -1.4045935488    1.3935997877    2.0313822731
C       -2.3619215237    2.2298421342    1.4376744020
C        2.1192278848    0.9354188435    1.0917148079
C        1.0003644456    1.2249151701    1.7697087203
C        2.0794059344    0.3130179941   -0.2782301141
N       -0.2868609127    0.9235326564    1.3012058390
F       -2.2186782547    2.5654409985    0.1349533628
H       -0.7988672894   -2.3092417342   -2.8833921374
H       -2.7961689539   -1.7159966429   -1.4979109766
H       -2.7452864045    1.3493910551    5.1735787005
H       -4.4364632296    2.8030220497    4.0544888252
H        1.4209399527   -1.3764345747   -2.2715492101
H       -2.5509392378   -0.2285462090    0.4456985135
H       -0.8396147176    0.4345124058    3.8641154830
H       -4.1646026880    3.3654859266    1.6231008344
H        3.0762667004    1.2039142482    1.5279524039
H        1.0223394689    1.7317428658    2.7281717966
H        2.8274343799   -0.4862842176   -0.3607388714
H        2.3630967124    1.0599459213   -1.0363863161
29   
torsion grid (135,)
C       -0.7288207487   -1.5432898731   -2.1278773739
C       -1.8316759348   -1.3254928760   -1.2960875104
C       -2.5958093271    1.7409078686    4.1905986000
C       -3.5629375819    2.4863937511    3.5089216545
C        0.5046419289   -0.9967039653   -1.7706422077
C       -1.6933974933   -0.5677084237   -0.1358727319
C       -1.5467588210    1.1441551014    3.4892843081
C       -3.4605229356    2.6504765742    2.1243527941
C        0.6657239652   -0.2195477229   -0.6182251640
C       -0.4571239008    0.0084775983    0.2034736442
C       -1.4292636948    1.2812964052    2.0964178072
C       -2.3917250290    2.0737801737    1.4491793202
C        2.0798180286    0.8870489068    1.1225022552
C        0.9711568965    1.0789724345    1.8489933451
C        2.0337920925    0.3464312570   -0.2802912698
N       -0.3188295778    0.7362825640    1.4095248610
F       -2.2758990304    2.2983679039    0.1192084828
H       -0.8262518545   -2.1360767020   -3.0331301464
H       -2.7997664875   -1.7542029223   -1.5416146248
H       -2.6648686907    1.6093563560    5.2666084447
H       -4.3881524322    2.9434139014    4.0471773686
H        1.3740038819   -1.1719696468   -2.4017613351
H       -2.5488484998   -0.4289624348    0.5169597760
H       -0.8156646860    0.5350885589    4.0132693740
H       -4.1759477073    3.2432207644    1.5621071978
H        3.0354511143    1.1743840942    1.5502510351
H        1.0058505827    1.5310835135    2.8334696840
H        2.7953818035   -0.4325610008   -0.4183760668
H        2.2960507725    1.1421312955   -0.9949646279
29   
torsion grid (150,)
C       -0.6953933493   -1.4324848956   -2.1693271608
C       -1.7870031224   -1.3453736142   -1.2981759909
C       -2.5407218522    1.9301526584    4.2296628701
C       -3.5200557337    2.6069109445    3.4959228237
C        0.5147622679   -0.8495554011   -1.7939021225
C       -1.6597931685   -0.6764928499   -0.0847067609
C       -1.5185697162    1.2443580715    3.5740682709
C       -3.4453665898    2.6122215944    2.1012178000
C        0.6627759019   -0.1582078940   -0.5851082577
C       -0.4505681532   -0.0534853458    0.2698071223
C       -1.4382408044    1.2023706944    2.1700813382
C       -2.4004065068    1.9499993427    1.4669163997
C        2.0539387460    0.8504909865    1.2232092652
C        0.9548651687    0.9298592642    1.9829404239
C        2.0079207249    0.4408193191   -0.2219039005
N       -0.3358211633    0.5711162641    1.5401551605
F       -2.3119381806    2.0617489846    0.1193096970
H       -0.7833766355   -1.9560414466   -3.1173023603
H       -2.7352640226   -1.8094828194   -1.5561178416
H       -2.5770208203    1.9233968150    5.3152848920
H       -4.3253276144    3.1340764973    3.9988931892
H        1.3771452649   -0.9277328075   -2.4532928674
H       -2.5024490717   -0.6366074019    0.5985811556
H       -0.7893787285    0.6860667780    4.1535392323
H       -4.1604954568    3.1556008258    1.4906953561
H        3.0060978851    1.1292010374    1.6646839562
H        1.0011878875    1.2912313555    3.0027478957
H        2.8026848070   -0.2838039592   -0.4429428016
H        2.2182848652    1.3114337163   -0.8624110577
29   
torsion grid (165,)
C       -0.6719914242   -1.3809926741   -2.2082412850
C       -1.7482015591   -1.4245399485   -1.3136050092
C       -2.3972077319    2.1721459601    4.2238713797
C       -3.4289494066    2.7473381483    3.4766388041
C        0.5020458830   -0.7303481664   -1.8293231005
C       -1.6412233403   -0.8163022129   -0.0668981330
C       -1.4130177035    1.4068755375    3.6012035608
C       -3.4356264162    2.5666659772    2.0933727287
C        0.6191785224   -0.0927000687   -0.5876197763
C       -0.4756525304   -0.1195219109    0.2923190520
C       -1.4223932704    1.1576259150    2.2122890512
C       -2.4308071778    1.8226154229    1.4849021314
C        2.0240777713    0.6532790136    1.3117908292
C        0.9434781147    0.6176937624    2.1000698230
C        1.9083472482    0.5928637009   -0.1874741837
N       -0.3705405311    0.4256309610    1.6060756178
F       -2.4347789703    1.7886282791    0.1276898930
H       -0.7435721778   -1.8602764053   -3.1807543108
H       -2.6633999119   -1.9469496154   -1.5793062776
H       -2.3557656384    2.3123878735    5.3003269706
H       -4.2029327446    3.3396094930    3.9552750775
H        1.3526245044   -0.7102148371   -2.5077643080
H       -2.4647346579   -0.8755422308    0.6385823708
H       -0.6527990525    0.9430643557    4.2191083227
H       -4.1841673928    3.0299561156    1.4572995527
H        3.0018113998    0.7570217417    1.7728638324
H        1.0351064735    0.7148314701    3.1735928644
H        2.7620772060    0.0625870720   -0.6242736194
H        1.9424038224    1.6123808672   -0.6025724107
29   
torsion grid (180,)
C       -0.5227605974   -1.1959272433   -2.4652059873
C       -1.4791145465   -0.1956118502   -2.2550046983
C       -2.1829837103    2.6506892601    3.9372504297
C       -3.4657707180    2.1152669659    3.8025013771
C        0.4826482693   -1.3974893404   -1.5172337143
C       -1.4344929006    0.5824789689   -1.0996197725
C       -1.1749242249    2.3241860998    3.0319727297
C       -3.7000599732    1.2173749197    2.7611528822
C        0.5256495374   -0.6396815790   -0.3421933591
C       -0.4596072180    0.3369908958   -0.1236353159
C       -1.3964990477    1.4743923716    1.9223389779
C       -2.6822063790    0.8912515972    1.8730476251
C        1.9710291445    0.5891086662    1.2203996016
C        0.9895684836    1.4792811196    1.4055336738
C        1.6349175352   -0.7804635632    0.6789377754
N       -0.3473632593    1.1812164077    1.0277748326
F       -2.9756347137   -0.0711525930    0.9569848082
H       -0.5491980557   -1.7987207762   -3.3689453212
H       -2.2482736933   -0.0070491393   -2.9991948071
H       -1.9519717746    3.3220130968    4.7597259620
H       -4.2565717615    2.3643187621    4.5033804267
H        1.2494293102   -2.1500049365   -1.6884616279
H       -2.1554635316    1.3796389793   -0.9499670067
H       -0.1934472094    2.7508923273    3.1902987821
H       -4.6595122628    0.7248305868    2.6325485232
H        2.9998023617    0.8673625443    1.4283092063
H        1.1806197872    2.4807454166    1.7750006876
H        1.3086316095   -1.4318490816    1.5038594329
H        2.5103290292   -1.2583731438    0.2304805039
