14   
torsion grid (-165,)
C       -0.8965471471   -2.3401406398   -0.6930741412
C        0.3053618559   -2.2407871644   -0.0316467742
C        0.7887691509   -1.1531616679    0.8833113759
N       -1.0542977889   -3.4916371872   -1.4238204984
N       -0.0527112341   -4.2914024059   -1.3819233369
N        2.8498784079   -0.2562366340    1.8453289235
N        2.2458614570   -1.0113175823    0.7968099365
S        1.2179960240   -3.6468719292   -0.3891408275
H       -1.6967231190   -1.6086453355   -0.6822585573
H        0.2330981022   -0.2222372785    0.6781002453
H        0.5576428137   -1.4404932305    1.9161717435
H        2.2523028133    0.5191968450    2.1463223976
H        2.9802814640   -0.8788459210    2.6398706333
H        2.5164211344   -0.5860467346   -0.0863590303
14   
torsion grid (-150,)
C       -0.9155905965   -2.4470277881   -0.6374207349
C        0.3112464899   -2.2263783148   -0.0561743326
C        0.7727435265   -1.0610840421    0.7736182249
N       -1.0308693149   -3.6493856685   -1.2904930337
N        0.0278947669   -4.3739526327   -1.2633318378
N        2.8546125205   -0.3846547872    1.8998852771
N        2.2361107308   -0.9390146611    0.7420427232
S        1.3014158007   -3.5846734055   -0.3888264697
H       -1.7649768310   -1.7732478034   -0.6207431228
H        0.2385782883   -0.1481697696    0.4657421203
H        0.4911961315   -1.2544993531    1.8153107484
H        2.2927977654    0.3651621178    2.3121019831
H        2.9469131810   -1.1273340503    2.5893747555
H        2.5483076136   -0.4083614926   -0.0658235677
14   
torsion grid (-135,)
C       -0.9430789290   -2.4712812833   -0.5394827045
C        0.3103038640   -2.1555737823   -0.0688548096
C        0.7740250953   -0.9289798807    0.6707238031
N       -1.0347799472   -3.7030733193   -1.1389898383
N        0.0663089409   -4.3628838915   -1.1706760713
N        2.8492783479   -0.5155294078    1.9525273007
N        2.2436964908   -0.8506727820    0.7076133193
S        1.3518339817   -3.4665494170   -0.4308961572
H       -1.8293980329   -1.8495532272   -0.4774307273
H        0.3071931024   -0.0359552121    0.2308776870
H        0.4134894327   -0.9932905275    1.7038344402
H        2.3006969203    0.1744337879    2.4720505755
H        2.9062835563   -1.3632884451    2.5122719694
H        2.6004628787   -0.2102257400    0.0059901636
14   
torsion grid (-120,)
C       -0.9382556588   -2.5188994680   -0.4145379303
C        0.3376361120   -2.1020295123   -0.1128844396
C        0.8052735821   -0.8191707979    0.5251482453
N       -1.0118273859   -3.7617486384   -0.9929599081
N        0.1237144950   -4.3384511440   -1.1606627297
N        2.7843975378   -0.6665444531    2.0027639630
N        2.2710845883   -0.7945271191    0.6780672844
S        1.4195930057   -3.3401657512   -0.5927718624
H       -1.8548279726   -1.9665034898   -0.2388693746
H        0.4656233267    0.0239875295   -0.0904703996
H        0.3224677988   -0.7047686411    1.5037889377
H        2.1864718374   -0.0723340600    2.5829504029
H        2.8068326238   -1.5935853022    2.4225434371
H        2.6761660535   -0.0429873139    0.1300903458
14   
torsion grid (-105,)
C       -0.9078595576   -2.5632211924   -0.2433983613
C        0.3686801486   -2.0609690018   -0.1411118012
C        0.8352115979   -0.7300774809    0.3871556007
N       -0.9871738483   -3.8142560177   -0.8034059078
N        0.1439046517   -4.3199787995   -1.1392633825
N        2.6691040291   -0.7957202247    2.0298457343
N        2.2814759132   -0.7278010578    0.6557073625
S        1.4453550176   -3.2350398929   -0.7709501497
H       -1.8204184176   -2.0696626891    0.0722338168
H        0.6224315190    0.0298065421   -0.3756308693
H        0.2498735245   -0.4546833348    1.2765619623
H        1.9842789050   -0.3279566764    2.6302019741
H        2.6954131531   -1.7772527761    2.3000706267
H        2.6993057449    0.1194854325    0.2842270569
14   
torsion grid (-90,)
C       -0.8540610658   -2.5570214976   -0.1072590270
C        0.4072601833   -2.0100175310   -0.1435235812
C        0.8640182691   -0.6437882268    0.2894399676
N       -0.9409529334   -3.8300889957   -0.6145586041
N        0.1700282413   -4.3131410581   -1.0354937628
N        2.5629206131   -0.9223608378    2.0296648234
N        2.2837324836   -0.6413943948    0.6553555812
S        1.4636080401   -3.1730129756   -0.8276083039
H       -1.7494238371   -2.0807729245    0.2764935675
H        0.7417521774    0.0430593489   -0.5578432162
H        0.2115993436   -0.2740247155    1.0975181878
H        1.8030954594   -0.5927612709    2.6323065592
H        2.6199920793   -1.9336425952    2.1359641183
H        2.6838904705    0.2723171965    0.4623898608
14   
torsion grid (-75,)
C       -0.7803120313   -2.5449102347    0.0102806321
C        0.4546774340   -1.9646142369   -0.1586433053
C        0.8935198632   -0.5693005003    0.1853108664
N       -0.8702917633   -3.8413989314   -0.4339914574
N        0.2129153924   -4.3131799050   -0.9292276109
N        2.4617774688   -1.0352863084    1.9960684340
N        2.2766119858   -0.5491766249    0.6647364868
S        1.4851264322   -3.1271990866   -0.8840569998
H       -1.6532217890   -2.0761950705    0.4505636878
H        0.8519781449    0.0532776610   -0.7171582881
H        0.1769668185   -0.1417916611    0.9088818278
H        1.6396339722   -0.8412559378    2.5760830783
H        2.5683188210   -2.0465802498    1.9463565745
H        2.6353728760    0.4014821367    0.6422817958
14   
torsion grid (-60,)
C       -0.8610490819   -2.3169542749   -0.4617030109
C        0.3160965613   -1.9197969772    0.1340392554
C        0.6013625434   -0.5989712628    0.8079562528
N       -0.8328840149   -3.5658726469   -1.0287224347
N        0.2871556329   -4.1794062275   -0.9144383871
N        2.8149390552   -0.3600006930   -0.0573761338
N        1.5406787543    0.2770976431    0.0993465228
S        1.4414215144   -3.2015414702   -0.0560255526
H       -1.7771485002   -1.7380935381   -0.5059504147
H       -0.3394267038   -0.0497285443    0.9167182408
H        1.0055163382   -0.7684066190    1.8091579551
H        2.9162832367   -0.7949462391   -0.9751731803
H        3.5311849298    0.3569395837    0.0350965509
H        1.1441742043    0.5346588984   -0.8051386099
14   
torsion grid (-45,)
C       -0.8453607432   -2.3415839935   -0.4499236525
C        0.3350624222   -1.8958369572    0.1035561808
C        0.5731445798   -0.5686119242    0.7817589038
N       -0.8014623758   -3.6079603806   -0.9757529274
N        0.3378549885   -4.1888263205   -0.8624253013
N        2.7872531454   -0.4294327539   -0.1366904425
N        1.6005653157    0.3040497788    0.1905389767
S        1.4858936108   -3.1566200669   -0.0727188593
H       -1.7766982235   -1.7871369201   -0.4898178426
H       -0.3628810666   -0.0023555564    0.7997296322
H        0.8594981420   -0.7547040070    1.8222020625
H        2.8146321995   -0.6948598944   -1.1211994270
H        3.5854967902    0.1718637154    0.0550060779
H        1.2134545475    0.7435329822   -0.6447975937
14   
torsion grid (-30,)
C       -0.8481958709   -2.3806302423   -0.4287515294
C        0.3438031828   -1.8839679172    0.0514366398
C        0.5433199843   -0.5506980520    0.7281543051
N       -0.7942092131   -3.6627404577   -0.9146869141
N        0.3673704890   -4.2059428304   -0.8367825586
N        2.7700179508   -0.4702397261   -0.2149067645
N        1.6665507727    0.2975051419    0.2754728045
S        1.5213482032   -3.1173266821   -0.1441808640
H       -1.7961674783   -1.8537507585   -0.4410052598
H       -0.3739294456    0.0382191232    0.6376682914
H        0.6876607741   -0.7471567446    1.7976792105
H        2.7557668339   -0.5613163032   -1.2306098372
H        3.6271904815    0.0064769342    0.0555248339
H        1.3229834827    0.9181095612   -0.4564095573
14   
torsion grid (-15,)
C       -0.8542344168   -2.4245500473   -0.3604056850
C        0.3474257564   -1.8753725883    0.0304293435
C        0.5153076160   -0.5261494026    0.6808490165
N       -0.7883712681   -3.7213039059   -0.8043082024
N        0.3937716669   -4.2250017962   -0.7766739441
N        2.7574723378   -0.4870101508   -0.2738497111
N        1.7263412913    0.2690551986    0.3600558610
S        1.5506993919   -3.0784573592   -0.1973481041
H       -1.8177164788   -1.9270372854   -0.3355630901
H       -0.3674728505    0.0812048934    0.4586487304
H        0.5084727747   -0.6978962896    1.7653008761
H        2.7279826059   -0.4157305353   -1.2910313203
H        3.6544534159   -0.1371028428    0.0540799151
H        1.4491164254    1.0487391008   -0.2328233267
14   
torsion grid (0,)
C        0.0069799900   -2.4210942624   -0.8450425265
C        0.1489591776   -1.9194090468    0.4290936144
C        0.3612545232   -0.4836388583    0.8167504393
N       -0.1430403999   -3.7822152503   -0.9168692266
N       -0.1258925181   -4.3907832242    0.2069970897
N        2.8288621907   -1.0366797235    0.8959599461
N        1.7849061114   -0.0798295316    1.0480444650
S        0.0850080624   -3.2477765956    1.5144519504
H        0.0016250207   -1.8369631888   -1.7584176465
H       -0.0415940451    0.1271797669    0.0003035365
H       -0.2284588007   -0.2489781635    1.7088864047
H        2.5596940447   -1.9732495563    1.2040621120
H        3.0698267866   -1.0938849808   -0.0908466076
H        1.8730562642    0.2855992887    1.9903673119
14   
torsion grid (15,)
C        0.0080270550   -2.4486985944   -0.8211336368
C        0.1472392101   -1.9205268253    0.4424384317
C        0.3825506012   -0.4767207571    0.8001444468
N       -0.1681599964   -3.8081970748   -0.8640956233
N       -0.1720528211   -4.3908345072    0.2732936364
N        2.8381959564   -1.0088155928    0.8698372724
N        1.7759990959   -0.1068077094    1.1741117769
S        0.0508166366   -3.2231360936    1.5573013168
H        0.0238487149   -1.8860586009   -1.7477726188
H        0.0921796231    0.1093546295   -0.0804927707
H       -0.2794858406   -0.1701309765    1.6151055619
H        2.5506299615   -1.9877383587    0.9284497487
H        3.1401667145   -0.8337009386   -0.0864055964
H        1.8184819445    0.0400403218    2.1778704471
14   
torsion grid (30,)
C        0.0412927642   -2.4844813013   -0.7912502561
C        0.1308103913   -1.9202550210    0.4616749725
C        0.3997554273   -0.4725351007    0.7932307214
N       -0.1720868537   -3.8394129506   -0.8014401441
N       -0.2495255605   -4.3840218492    0.3524089797
N        2.8392256745   -0.9646272208    0.8074340508
N        1.7614059048   -0.1540707700    1.2771124200
S       -0.0577944909   -3.1832731361    1.6087968205
H        0.1204749954   -1.9528291622   -1.7328721501
H        0.2136577023    0.1002447749   -0.1232140431
H       -0.3064966370   -0.1078766001    1.5447501748
H        2.5474868498   -1.9292054691    0.6328058550
H        3.1618700362   -0.5762377285   -0.0769083279
H        1.7799050705   -0.2266248708    2.2907893995
14   
torsion grid (45,)
C        0.2910470707   -3.2610156247    0.7743590030
C        0.4066360913   -2.0172631278    0.1928644970
C        0.8354670176   -0.7375729656    0.8686454756
N       -0.1549432427   -4.2554824641   -0.0588747765
N       -0.4054952887   -3.8689976263   -1.2572456159
N        2.0133345008   -0.0240011912   -1.0982562778
N        2.0356928199   -0.0742826258    0.3336594936
S       -0.0803326601   -2.1759928542   -1.4450287692
H        0.5100458114   -3.5004023026    1.8093079669
H        0.0106468306   -0.0195156853    0.8118501870
H        1.0194575792   -0.9363465166    1.9287134761
H        2.4220158532    0.8633014439   -1.3831545820
H        2.5587127701   -0.7775316198   -1.5168335120
H        2.8597638334   -0.5807466180    0.6580044854
14   
torsion grid (60,)
C        0.3312415172   -3.2659771672    0.7845313857
C        0.3834893714   -2.0193568697    0.2002170561
C        0.8127520618   -0.7232274837    0.8450524512
N       -0.0689466753   -4.2813284019   -0.0467736866
N       -0.3406433863   -3.9147046265   -1.2449170516
N        2.0266946519    0.0957163957   -1.0423066147
N        2.0850808200   -0.1735801316    0.3645450552
S       -0.1039126708   -2.2020303983   -1.4352859153
H        0.5676190891   -3.4930188638    1.8183768954
H        0.0481623133    0.0427213969    0.6926853505
H        0.9130852405   -0.8841855154    1.9233283633
H        2.5730695713    0.9361514709   -1.2174357843
H        2.4253456369   -0.6642321839   -1.5950284884
H        2.8381104571   -0.8271030940    0.5830968002
14   
torsion grid (75,)
C        0.3198813399   -3.2794368714    0.8183887530
C        0.3578058001   -2.0480419641    0.2021331377
C        0.7997753093   -0.7330450889    0.7987960358
N       -0.0525024793   -4.3217294586    0.0073388328
N       -0.3113629907   -3.9972713007   -1.2033138136
N        2.0442846204    0.2332287852   -0.9959417005
N        2.1145175685   -0.2765669040    0.3406779732
S       -0.1053912084   -2.2786535985   -1.4345630945
H        0.5505771746   -3.4760865528    1.8596051700
H        0.0859149318    0.0615361810    0.5752811932
H        0.8460829529   -0.8505133554    1.8870045648
H        2.7081757419    1.0011424359   -1.0672630134
H        2.2997788316   -0.4717208441   -1.6901586720
H        2.7945896562   -1.0326374295    0.4254830103
14   
torsion grid (90,)
C        0.2840769274   -3.2826387863    0.8734921266
C        0.3532818788   -2.0785296337    0.2089577085
C        0.8121872008   -0.7484689720    0.7552813970
N       -0.0866326352   -4.3512278977    0.0958973924
N       -0.3121271302   -4.0769255274   -1.1320689772
N        2.0954468613    0.4072867331   -0.9100206533
N        2.1497446585   -0.3520157346    0.3017756274
S       -0.0771668553   -2.3677692371   -1.4277752075
H        0.4933523671   -3.4402031702    1.9257027555
H        0.1289184821    0.0570559880    0.4827785526
H        0.8245185233   -0.8247626824    1.8487173849
H        2.8537626960    1.0852693434   -0.8815167876
H        2.2285522607   -0.1793989396   -1.7371140508
H        2.7569175477   -1.1677940087    0.2252062267
14   
torsion grid (105,)
C       -0.2602188141   -3.0468060381    0.6188306979
C        0.7274867861   -2.1100658347    0.4198048914
C        1.3432324702   -1.1454458928    1.3987651353
N       -0.5782988191   -3.7889017631   -0.4912855011
N        0.0954418339   -3.4882381973   -1.5430694318
N        1.6074521008    1.1116975341    0.6247602273
N        2.2202194401   -0.1792293651    0.7214057606
S        1.2180910417   -2.2104900895   -1.2170296396
H       -0.7895302467   -3.2355598056    1.5462633630
H        0.5539185979   -0.6290205202    1.9563094703
H        1.9348452750   -1.7210232976    2.1219029382
H        1.8856629498    1.7189788630    1.3970140964
H        1.9163591099    1.5400281260   -0.2448167617
H        3.1176631793   -0.1325023591    1.2000711089
14   
torsion grid (120,)
C       -0.1751331909   -3.1776674582    0.6510623640
C        0.6444543457   -2.1011169608    0.4007758915
C        1.1803384325   -1.0629228988    1.3520289107
N       -0.4969513998   -3.9223573395   -0.4561904508
N        0.0202137641   -3.4964847323   -1.5524908944
N        1.7414058071    1.1934417701    0.7153921623
N        2.1490187115   -0.1765351512    0.6907699564
S        0.9837398999   -2.0838533541   -1.2771005791
H       -0.5724727024   -3.4727407628    1.6159892718
H        0.3515854463   -0.4502965862    1.7201830712
H        1.6225534609   -1.5686697970    2.2203046585
H        2.1606557473    1.7008057722    1.4964329905
H        2.0559042409    1.6266809537   -0.1497957463
H        3.0824582566   -0.3103532784    1.0733710290
14   
torsion grid (135,)
C       -0.1028691317   -3.2397517439    0.6803959839
C        0.5734432114   -2.0826109137    0.3701575612
C        1.0435745043   -0.9808214873    1.2807167370
N       -0.4299377207   -4.0196265797   -0.4011987931
N       -0.0479276374   -3.5483422719   -1.5327723779
N        1.8511163845    1.2420284604    0.8202802344
N        2.0712164029   -0.1570311705    0.6342432519
S        0.7810720606   -2.0388802701   -1.3292929765
H       -0.3866429509   -3.5714034144    1.6730476963
H        0.2017688874   -0.3154869641    1.4944857780
H        1.3663625742   -1.4113689151    2.2396894260
H        2.3707538381    1.6087729891    1.6200842398
H        2.1800131001    1.7193850451   -0.0159050600
H        3.0067570445   -0.4511074002    0.9086801182
14   
torsion grid (150,)
C       -0.0189225151   -3.2661332410    0.6913443287
C        0.5360200824   -2.0611198362    0.3275088555
C        0.9405703681   -0.9055725789    1.1984346894
N       -0.3260631976   -4.0961494216   -0.3583783678
N       -0.0394788769   -3.6211315009   -1.5153047397
N        1.9361376800    1.2607329486    0.9399273461
N        1.9960719641   -0.1156603434    0.5594355043
S        0.6619735349   -2.0388312468   -1.3812426300
H       -0.2250395100   -3.5977232282    1.7028904678
H        0.0883082939   -0.2294481926    1.3145007874
H        1.1974383039   -1.2751426444    2.2037618168
H        2.5217774821    1.4600700509    1.7536785499
H        2.2848620097    1.8100765214    0.1578184521
H        2.9118951126   -0.5321999316    0.7266022784
14   
torsion grid (165,)
C        0.0588247737   -3.2731645350    0.7553083787
C        0.4965125713   -2.0433552807    0.3213454535
C        0.8419612328   -0.8300936248    1.1345888299
N       -0.2199058433   -4.1692539369   -0.2468033107
N       -0.0217436752   -3.7232030378   -1.4326395724
N        2.0156336259    1.2427474591    1.0475477527
N        1.9132695662   -0.0699351072    0.4877839704
S        0.5499228539   -2.0830894824   -1.3916940848
H       -0.0782335552   -3.5762232858    1.7872142024
H       -0.0225868895   -0.1611353391    1.1824786437
H        1.0684968898   -1.1378530700    2.1687966105
H        2.6612337114    1.2711175437    1.8397418517
H        2.3778934256    1.8576425616    0.3224793107
H        2.7921526956   -0.5865958751    0.5468798668
14   
torsion grid (180,)
C       -0.8479514322   -2.2917171848   -0.7127329775
C        0.3173710624   -2.3008973623    0.0182615240
C        0.8111382969   -1.2790559758    0.9992275542
N       -1.0329417750   -3.3941823707   -1.5090993478
N       -0.0884634650   -4.2584758456   -1.4544492074
N        2.8173354330   -0.1337714504    1.7644887721
N        2.2598097967   -1.0927767982    0.8654977706
S        1.1598644223   -3.7459122827   -0.3580073836
H       -1.6007899498   -1.5116242894   -0.7073611579
H        0.2353935152   -0.3459834760    0.8650409178
H        0.6169584322   -1.6317923909    2.0195194165
H        2.1603563849    0.6301444017    1.9510075487
H        3.0024101777   -0.6067462382    2.6467638010
H        2.4848312581   -0.7849547619   -0.0781200300
