
  -OEChem-05262117483D

 31 32  0     1  0  0  0  0  0999 V2000
    4.9179    0.0295   -0.3434 C   0  0  0  0  0  0  0  0  0  0  0  0
    5.4916   -0.3309    0.8809 C   0  0  0  0  0  0  0  0  0  0  0  0
    3.6090   -0.3641   -0.6270 C   0  0  0  0  0  0  0  0  0  0  0  0
    4.7567   -1.0726    1.8074 C   0  0  0  0  0  0  0  0  0  0  0  0
    2.8542   -1.1130    0.2840 C   0  0  0  0  0  0  0  0  0  0  0  0
    3.4425   -1.4588    1.5104 C   0  0  0  0  0  0  0  0  0  0  0  0
   -0.2952    1.6747    1.1002 C   0  0  0  0  0  0  0  0  0  0  0  0
   -1.5686    1.7548    0.2477 C   0  0  0  0  0  0  0  0  0  0  0  0
    0.2480    0.2499    1.2228 C   0  0  0  0  0  0  0  0  0  0  0  0
   -1.3490    1.1994   -1.1626 C   0  0  0  0  0  0  0  0  0  0  0  0
    1.4385   -1.5156   -0.0609 C   0  0  0  0  0  0  0  0  0  0  0  0
    0.5760   -0.3072   -0.1099 N   0  0  1  0  0  0  0  0  0  0  0  0
   -1.8531   -1.2896   -0.3708 O   0  0  0  0  0  0  0  0  0  0  0  0
   -0.3493   -0.9790   -2.3940 O   0  0  0  0  0  0  0  0  0  0  0  0
    2.6798   -2.1752    2.4076 O   0  0  0  0  0  0  0  0  0  0  0  0
   -0.8106   -0.5240   -1.0770 S   0  0  0  0  0  0  0  0  0  0  0  0
    5.4864    0.6059   -1.0675 H   0  0  0  0  0  0  0  0  0  0  0  0
    6.5104   -0.0363    1.1183 H   0  0  0  0  0  0  0  0  0  0  0  0
    3.1460   -0.0882   -1.5713 H   0  0  0  0  0  0  0  0  0  0  0  0
    5.2012   -1.3502    2.7622 H   0  0  0  0  0  0  0  0  0  0  0  0
    0.4847    2.3070    0.6600 H   0  0  0  0  0  0  0  0  0  0  0  0
   -0.5017    2.0598    2.1046 H   0  0  0  0  0  0  0  0  0  0  0  0
   -2.3787    1.1940    0.7252 H   0  0  0  0  0  0  0  0  0  0  0  0
   -1.9017    2.7947    0.1603 H   0  0  0  0  0  0  0  0  0  0  0  0
    1.1823    0.2591    1.7885 H   0  0  0  0  0  0  0  0  0  0  0  0
   -0.4586   -0.4032    1.7544 H   0  0  0  0  0  0  0  0  0  0  0  0
   -2.2692    1.1790   -1.7525 H   0  0  0  0  0  0  0  0  0  0  0  0
   -0.5712    1.7311   -1.7150 H   0  0  0  0  0  0  0  0  0  0  0  0
    1.4213   -1.9653   -1.0555 H   0  0  0  0  0  0  0  0  0  0  0  0
    1.0509   -2.2461    0.6556 H   0  0  0  0  0  0  0  0  0  0  0  0
    3.2148   -2.3661    3.1940 H   0  0  0  0  0  0  0  0  0  0  0  0
  1  2  1  0  0  0  0
  1  3  2  0  0  0  0
  1 17  1  0  0  0  0
  2  4  2  0  0  0  0
  2 18  1  0  0  0  0
  3  5  1  0  0  0  0
  3 19  1  0  0  0  0
  4  6  1  0  0  0  0
  4 20  1  0  0  0  0
  5  6  2  0  0  0  0
  5 11  1  0  0  0  0
  6 15  1  0  0  0  0
  7  8  1  0  0  0  0
  7  9  1  0  0  0  0
  7 21  1  0  0  0  0
  7 22  1  0  0  0  0
  8 10  1  0  0  0  0
  8 23  1  0  0  0  0
  8 24  1  0  0  0  0
  9 12  1  0  0  0  0
  9 25  1  0  0  0  0
  9 26  1  0  0  0  0
 10 16  1  0  0  0  0
 10 27  1  0  0  0  0
 10 28  1  0  0  0  0
 11 12  1  0  0  0  0
 11 29  1  0  0  0  0
 11 30  1  0  0  0  0
 12 16  1  0  0  0  0
 13 16  2  0  0  0  0
 14 16  2  0  0  0  0
 15 31  1  0  0  0  0
M  END
$$$$
