
  -OEChem-05262117483D

 24 26  0     0  0  0  0  0  0999 V2000
    1.7543   -0.9204   -0.9634 C   0  0  0  0  0  0  0  0  0  0  0  0
    0.4475   -0.9084   -0.3544 C   0  0  0  0  0  0  0  0  0  0  0  0
    2.3379   -2.0721   -1.4202 C   0  0  0  0  0  0  0  0  0  0  0  0
   -0.3181   -2.0351   -0.1804 C   0  0  0  0  0  0  0  0  0  0  0  0
    1.5798   -3.2721   -1.2614 C   0  0  0  0  0  0  0  0  0  0  0  0
    0.2750   -3.2575   -0.6529 C   0  0  0  0  0  0  0  0  0  0  0  0
   -1.7385   -2.8396    1.7345 C   0  0  0  0  0  0  0  0  0  0  0  0
   -2.7744   -2.4802   -0.4957 C   0  0  0  0  0  0  0  0  0  0  0  0
   -2.4373   -3.9856    1.8221 C   0  0  0  0  0  0  0  0  0  0  0  0
   -3.4347   -3.6397   -0.3248 C   0  0  0  0  0  0  0  0  0  0  0  0
   -1.6982   -2.0030    0.4659 C   0  0  0  0  0  0  0  0  0  0  0  0
    1.8831   -4.5151   -1.6026 N   0  0  0  0  0  0  0  0  0  0  0  0
   -0.1932   -4.4971   -0.6351 N   0  0  0  0  0  0  0  0  0  0  0  0
   -3.2498   -4.4382    0.7936 N   0  0  0  0  0  0  0  0  0  0  0  0
    0.7932   -5.2548   -1.2155 O   0  0  0  0  0  0  0  0  0  0  0  0
    2.2853    0.0231   -1.0581 H   0  0  0  0  0  0  0  0  0  0  0  0
    0.0516    0.0469   -0.0166 H   0  0  0  0  0  0  0  0  0  0  0  0
    3.3206   -2.0898   -1.8795 H   0  0  0  0  0  0  0  0  0  0  0  0
   -1.1416   -2.5192    2.5828 H   0  0  0  0  0  0  0  0  0  0  0  0
   -2.9808   -1.8809   -1.3769 H   0  0  0  0  0  0  0  0  0  0  0  0
   -2.4205   -4.6032    2.7147 H   0  0  0  0  0  0  0  0  0  0  0  0
   -4.1660   -3.9974   -1.0429 H   0  0  0  0  0  0  0  0  0  0  0  0
   -1.8775   -0.9480    0.7193 H   0  0  0  0  0  0  0  0  0  0  0  0
   -3.7153   -5.3282    0.8664 H   0  0  0  0  0  0  0  0  0  0  0  0
  1  2  1  0  0  0  0
  1  3  2  0  0  0  0
  1 16  1  0  0  0  0
  2  4  2  0  0  0  0
  2 17  1  0  0  0  0
  3  5  1  0  0  0  0
  3 18  1  0  0  0  0
  4  6  1  0  0  0  0
  4 11  1  0  0  0  0
  5  6  1  0  0  0  0
  5 12  2  0  0  0  0
  6 13  2  0  0  0  0
  7  9  2  0  0  0  0
  7 11  1  0  0  0  0
  7 19  1  0  0  0  0
  8 10  2  0  0  0  0
  8 11  1  0  0  0  0
  8 20  1  0  0  0  0
  9 14  1  0  0  0  0
  9 21  1  0  0  0  0
 10 14  1  0  0  0  0
 10 22  1  0  0  0  0
 11 23  1  0  0  0  0
 12 15  1  0  0  0  0
 13 15  1  0  0  0  0
 14 24  1  0  0  0  0
M  END
$$$$
