18
0 1 C8FH9
C                     1.901572228690    -1.019513814222    -0.124876444698
C                     2.930122437006    -1.626468665800     0.603181537602
C                     0.812351223449    -0.459136034747     0.551382523617
C                     2.867036686963    -1.670375313902     1.999142303801
C                     0.753965217925    -0.496849880706     1.947426428847
C                     1.782897370477    -1.102450890599     2.680121792132
C                     2.417182118860     0.143406860047     4.789636438882
C                     1.764585870448    -1.096615193113     4.191288601718
F                     0.429015188539    -1.145262284753     4.650255559054
H                     1.945108394535    -0.989770599455    -1.210539262374
H                     3.775430663674    -2.072326998734     0.085248845232
H                     0.005800538952     0.006115986779    -0.009724382678
H                     3.665106158345    -2.153864369639     2.559859402287
H                    -0.096059290050    -0.071699241586     2.472815064071
H                     1.910441757334     1.044845003411     4.432552768974
H                     2.364310071078     0.111881926779     5.882044101659
H                     3.467395371069     0.197146096983     4.487127740770
H                     2.247327431625    -2.003023056626     4.573230646270
