18
0 1 C8FH6N3
C                     0.200951399721    -0.422900254822     0.938547573697
C                     1.380230031676    -0.033696200281     1.578197591610
C                     1.983753751138    -2.930653498087     6.466814786211
C                    -0.632854265964    -1.330362339882     1.596395577835
C                     0.564408871546    -2.941960760929     6.563310340537
C                     2.243950767719    -2.347131110825     5.246816258942
C                     1.651044883154    -0.570645907612     2.826448958950
C                     0.765209122380    -1.489406063706     3.413406971043
N                    -0.354679755426    -1.855268291404     2.793798529256
N                    -0.014926125866    -2.418785774522     5.489780926581
N                     1.024341630209    -2.050461115926     4.683856062928
F                     2.777067162962    -0.181833264287     3.476633678020
H                    -0.062666038430    -0.031476979229    -0.039035931718
H                     2.074660564398     0.677881441518     1.141624858193
H                     2.708216170087    -3.295238059161     7.182174023610
H                    -1.564343203057    -1.658897306741     1.139808425667
H                    -0.054372291633    -3.303915866902     7.375535000673
H                     3.172251830168    -2.131295929998     4.740690721958
