
  -OEChem-05262117483D

 20 20  0     0  0  0  0  0  0999 V2000
    1.5673    0.4927    1.5707 C   0  0  0  0  0  0  0  0  0  0  0  0
    1.4451    0.3736    2.9445 C   0  0  0  0  0  0  0  0  0  0  0  0
    0.3421    0.0397    1.0220 C   0  0  0  0  0  0  0  0  0  0  0  0
   -0.5080   -0.3266    2.0627 C   0  0  0  0  0  0  0  0  0  0  0  0
   -1.8994   -0.8349    1.9739 C   0  0  0  0  0  0  0  0  0  0  0  0
   -0.2250   -0.4673    4.5966 C   0  0  0  0  0  0  0  0  0  0  0  0
   -4.1880   -0.6929    2.8510 C   0  0  0  0  0  0  0  0  0  0  0  0
    0.1954   -0.1077    3.2463 N   0  0  0  0  0  0  0  0  0  0  0  0
   -2.7705   -0.3522    2.9318 N   0  0  0  0  0  0  0  0  0  0  0  0
   -2.2528   -1.6394    1.1148 O   0  0  0  0  0  0  0  0  0  0  0  0
   -0.0376    0.0147   -0.6683 Cl  0  0  0  0  0  0  0  0  0  0  0  0
    2.4277    0.8516    1.0231 H   0  0  0  0  0  0  0  0  0  0  0  0
    2.1644    0.5710    3.7281 H   0  0  0  0  0  0  0  0  0  0  0  0
   -0.8386    0.3166    5.0528 H   0  0  0  0  0  0  0  0  0  0  0  0
   -0.7981   -1.3948    4.5807 H   0  0  0  0  0  0  0  0  0  0  0  0
    0.6662   -0.6124    5.2099 H   0  0  0  0  0  0  0  0  0  0  0  0
   -4.6787   -0.2174    1.9932 H   0  0  0  0  0  0  0  0  0  0  0  0
   -4.6809   -0.3776    3.7739 H   0  0  0  0  0  0  0  0  0  0  0  0
   -4.2894   -1.7735    2.7409 H   0  0  0  0  0  0  0  0  0  0  0  0
   -2.5371    0.5435    3.3414 H   0  0  0  0  0  0  0  0  0  0  0  0
  1  2  2  0  0  0  0
  1  3  1  0  0  0  0
  1 12  1  0  0  0  0
  2  8  1  0  0  0  0
  2 13  1  0  0  0  0
  3  4  2  0  0  0  0
  3 11  1  0  0  0  0
  4  5  1  0  0  0  0
  4  8  1  0  0  0  0
  5  9  1  0  0  0  0
  5 10  2  0  0  0  0
  6  8  1  0  0  0  0
  6 14  1  0  0  0  0
  6 15  1  0  0  0  0
  6 16  1  0  0  0  0
  7  9  1  0  0  0  0
  7 17  1  0  0  0  0
  7 18  1  0  0  0  0
  7 19  1  0  0  0  0
  9 20  1  0  0  0  0
M  END
$$$$
