24
0 1 C11H9N3O
C                     1.754303443943    -0.920444146148    -0.963448975739
C                     0.447521282903    -0.908399480154    -0.354447192626
C                     2.337896576907    -2.072139939882    -1.420157690496
C                    -0.318078816767    -2.035124332669    -0.180376058418
C                     1.579799654448    -3.272059017812    -1.261362335996
C                     0.274978608275    -3.257503649376    -0.652870891384
C                    -1.738453464628    -2.839583311947     1.734477819745
C                    -2.774445137509    -2.480228577495    -0.495723241257
C                    -2.437348437930    -3.985633843198     1.822076211793
C                    -3.434724684471    -3.639698984599    -0.324778808808
C                    -1.698151402348    -2.002991824587     0.465903872598
N                     1.883083512505    -4.515069493434    -1.602564969178
N                    -0.193231556193    -4.497130274865    -0.635136845404
N                    -3.249831669926    -4.438164058280     0.793624737361
O                     0.793192378412    -5.254803236418    -1.215495747800
H                     2.285303749480     0.023136093326    -1.058054880580
H                     0.051585713235     0.046902404960    -0.016558198343
H                     3.320610915764    -2.089767271987    -1.879510571480
H                    -1.141643744528    -2.519241431796     2.582767822410
H                    -2.980833076346    -1.880851263110    -1.376931278531
H                    -2.420540658447    -4.603217901691     2.714663183670
H                    -4.166005461819    -3.997380852302    -1.042912289485
H                    -1.877529077998    -0.948035361244     0.719275550932
H                    -3.715336759870    -5.328236438262     0.866426138657
