28
1 1 C11H16N
C                    -3.120712996742    -1.348660763941    -3.737329634626
C                    -1.953103838846    -2.079558559867    -3.503174635105
C                    -3.738742982287    -0.672550732552    -2.679779615564
C                    -1.406240298105    -2.133813358284    -2.217215285091
C                    -3.190122779585    -0.728729264759    -1.396723929697
C                    -2.017263913879    -1.460405072895    -1.151672261224
C                    -2.362627779683    -2.192110112780     1.253616531034
C                    -0.979160093663    -0.141131323956     0.751438746001
C                    -1.749534160247    -2.270826768064     2.646894897952
C                    -0.360789344453    -0.211341577290     2.142849233785
C                    -1.410968089016    -1.529318958481     0.237392331067
N                    -1.332745039650    -0.880563462389     3.103088612155
H                    -3.547020200282    -1.305211351408    -4.735445517446
H                    -1.467411405623    -2.607216968441    -4.319082707301
H                    -4.646792755682    -0.102544621355    -2.855203014507
H                    -0.496687952479    -2.705701101932    -2.045181488436
H                    -3.688559810915    -0.194784977062    -0.589592616089
H                    -2.606365395307    -3.209289657532     0.934163086501
H                    -3.313552580792    -1.647533305518     1.298414281808
H                    -1.833863824664     0.546018323026     0.760928406835
H                    -0.239957888019     0.297956308279     0.075494024281
H                    -2.444724432690    -2.658742498352     3.394729121632
H                    -0.839833449207    -2.876195506205     2.661585799255
H                     0.545043462184    -0.822447437786     2.159193962041
H                    -0.130361885080     0.773747872934     2.554587876500
H                    -0.509473963994    -2.152365200018     0.176070164622
H                    -0.919764941906    -0.929401909800     4.041281758831
H                    -2.171853119195    -0.294535521577     3.185809064550
