19
-1 1 C8H7N4
C                     1.951109179436    -0.952370857213    -0.115393869547
C                     0.837592018588    -0.402328511924     0.530694896202
C                     2.955726342962    -1.559982460043     0.634676905739
C                     0.761623184762    -0.477552422990     1.924233935814
C                     2.891446441042    -1.642821501051     2.043529317808
C                     1.762086889280    -1.085085739344     2.700184249590
C                     4.003943417021    -2.304466404593     2.739512800431
C                     1.594526344007    -1.119400706538     4.201021218393
N                     5.066061251432    -2.824470873369     2.079744793203
N                     4.124162615422    -2.482406020006     4.075337937202
N                     5.852934470766    -3.331393213646     3.038788072324
N                     5.291863389769    -3.128103199911     4.232560037271
H                     2.035631522567    -0.907594527532    -1.200014425080
H                     0.042476091598     0.076483945506    -0.037978000639
H                     3.826246826242    -1.991805584573     0.151057704159
H                    -0.102057434356    -0.051637419140     2.433630549975
H                     1.604074521257    -2.145294281211     4.579470788606
H                     2.428868558341    -0.624991703342     4.706240952162
H                     0.654560675929    -0.633362440131     4.488915163802
