73
0 1 C33H35NO3S
C                    -7.425637345518     2.980273058688    -3.805961627512
C                    -6.073272462812     3.261118638822    -3.580316564847
C                    -8.400350493199     3.675378477565    -3.082857061411
C                     3.578129671230    -9.045599206001     4.321191594905
C                     4.283119845231    -9.572512538354     3.235903413527
C                    -5.702045029086     4.218383316296    -2.635477010614
C                    -8.024877301374     4.639755323209    -2.143784633881
C                    -4.841668301423     6.607766565631     2.364147375545
C                    -4.165496970146     7.886185637821     0.443632767048
C                    -3.515662778060     4.069325647989     0.624487820802
C                    -5.754963485709     3.211493775866     0.475029210798
C                    -4.312132895991     7.576878658293     3.211742875455
C                    -3.619797698644     8.863967494730     1.280027876745
C                    -3.029386694124     2.788849050136     0.908510654995
C                    -5.291912518581     1.935237228683     0.767309389687
C                     3.135768194221    -7.725376668782     4.253007439400
C                     4.511886810018    -8.745699981258     2.132942068007
C                    -4.797710566553     6.747806530383     0.964320959239
C                    -4.875334788404     4.307850667000     0.383080616946
C                    -6.670239898888     4.916645679410    -1.892561954782
C                    -3.698547697385     8.713670810902     2.668868780537
C                    -3.921897025266     1.710739067661     0.979059391239
C                     3.411599148230    -6.975101530549     3.099039517476
C                    -5.359569957549     5.685271370949     0.082642795639
C                    -6.260959977538     5.951823123192    -0.900284182496
C                    -6.536518558745     7.988921091062    -2.416358502158
C                     2.935784664911    -5.555499820090     2.964766118499
C                    -6.913411310771     7.307549651754    -1.089676304021
C                    -0.605081902925    -1.763489902111     2.057939263055
C                    -2.055565162417    -1.351480786339     1.782728171355
C                    -0.471031276971    -3.261784005080     2.359083615315
C                    -2.182364753517     0.136356536817     1.490531205583
C                     0.976670939316    -3.666428281147     2.627433501136
N                     4.089939444599    -7.476414841107     2.054902870679
O                     0.660105257156    -6.118918093064     1.559231478205
O                    -3.184617886649     9.638444256353     3.547545657377
O                    -3.563187410752     0.418845286276     1.256977949344
S                     1.074219016530    -5.493852437207     2.877660686774
H                    -7.716158735154     2.231613429686    -4.538517774856
H                    -5.306536389007     2.732342639730    -4.141167000114
H                    -9.454326729844     3.465690489098    -3.248455782720
H                     3.376481948385    -9.651162464392     5.201008483501
H                     4.647404664458   -10.595769381740     3.239362359197
H                    -4.651130791702     4.427244528872    -2.459044084430
H                    -8.794804858812     5.163554452969    -1.583053797955
H                    -5.303715075417     5.722305245359     2.792098711511
H                    -4.084615016967     8.004385421901    -0.632707604500
H                    -2.815626993944     4.899600876162     0.585176372969
H                    -6.817126850527     3.365387314238     0.315315823797
H                    -4.360799106804     7.469519053498     4.291489375496
H                    -3.128262122411     9.735452668065     0.849456129317
H                    -1.967118107710     2.650975769722     1.075626850165
H                    -5.974569122954     1.093498450470     0.840297908045
H                     2.578716595147    -7.281062554325     5.073945420359
H                     5.058754197878    -9.118995846991     1.268465021311
H                    -6.801768090541     7.360877395199    -3.272155724948
H                    -5.459921255785     8.182655106307    -2.469361912891
H                    -7.058188184157     8.946276199629    -2.521812650945
H                     3.220717578070    -4.943877826601     3.827544575142
H                     3.323694304368    -5.122078945516     2.040576244383
H                    -6.676391277039     7.963556288536    -0.250270276538
H                    -8.002629807712     7.170978401284    -1.075256076860
H                     0.019688456173    -1.513168866895     1.190252476112
H                    -0.210343813659    -1.181574477867     2.902017798305
H                    -2.450860411785    -1.914989633285     0.930027968775
H                    -2.686944357490    -1.595612400855     2.644926824404
H                    -1.093732330921    -3.519128174401     3.225203291574
H                    -0.846994121760    -3.845671609286     1.512334470852
H                    -1.590262345170     0.410020727111     0.605994643654
H                    -1.818599025384     0.730274060039     2.340830261278
H                     1.618502003437    -3.429309428862     1.772089650922
H                     1.376939422568    -3.184878707512     3.527237444730
H                    -2.796191024093    10.370690258226     3.043251740305
