34
0 1 C12H19NO2
C                    -1.250648074428    -2.569159257839     2.699776719637
C                    -1.456911868291    -3.904846623323     3.071723352818
C                     0.722744169962    -2.489359551433     4.062471644213
C                    -0.159450534096    -1.841280867701     3.181515378872
C                    -0.565640468002    -4.543865570954     3.939548165053
C                     0.536059160295    -3.814449656430     4.443917892052
C                    -1.582025749512    -8.044482052296     4.370234018964
C                    -0.162098409856     2.033611960076     3.522221077611
C                     1.013217822522    -4.744382082260     6.575038045256
C                     0.044972897848    -0.387942453736     2.819652228023
C                    -1.723997809053    -6.643961725913     3.799179618296
C                    -0.447548493195     0.582516273216     3.911392513669
N                    -1.899304402711     0.408413600046     4.089772314561
O                     1.475087724325    -4.409049394912     5.259646324460
O                    -0.664419046276    -5.849403895669     4.340860773152
H                    -1.954698757792    -2.093459976398     2.021823511105
H                    -2.309375819707    -4.439040989587     2.667464407721
H                     1.590539850991    -1.969478772538     4.462071766065
H                    -0.612544751541    -8.473183396415     4.101007863307
H                    -1.662282818490    -8.027775832503     5.461209341909
H                    -2.371764759782    -8.691254758422     3.974458408983
H                    -0.683714376699     2.286965910975     2.593296813745
H                     0.911384150750     2.197355433711     3.379001795010
H                    -0.504734155469     2.725400697285     4.300860548261
H                     1.875409347554    -5.157762052762     7.102659099211
H                     0.212414129536    -5.488576619793     6.538083277547
H                     0.661585979660    -3.845958862552     7.098937110133
H                     1.109632724949    -0.195667374769     2.642883337812
H                    -0.490266646324    -0.154080909438     1.892997435876
H                    -2.694118365309    -6.206780078864     4.071859898818
H                    -1.650710660120    -6.658014889301     2.703610349231
H                     0.115033584535     0.354061898699     4.834103062308
H                    -2.224839686217     1.012925102857     4.842949137819
H                    -2.092751233485    -0.549075713153     4.381670792636
