
  -OEChem-05262117483D

 44 46  0     1  0  0  0  0  0999 V2000
   -1.6946   -0.5137   -0.8723 C   0  0  0  0  0  0  0  0  0  0  0  0
    2.8410   -3.3497    0.4137 C   0  0  0  0  0  0  0  0  0  0  0  0
    1.3091   -3.7019    2.2483 C   0  0  0  0  0  0  0  0  0  0  0  0
   -2.7359    0.4118   -0.9611 C   0  0  0  0  0  0  0  0  0  0  0  0
    3.3531   -4.6338    0.5866 C   0  0  0  0  0  0  0  0  0  0  0  0
    1.8084   -4.9934    2.4339 C   0  0  0  0  0  0  0  0  0  0  0  0
   -1.2150    2.1056   -0.1225 C   0  0  0  0  0  0  0  0  0  0  0  0
   -0.4326   -0.1618   -0.3798 C   0  0  0  0  0  0  0  0  0  0  0  0
    1.8140   -2.8679    1.2421 C   0  0  0  0  0  0  0  0  0  0  0  0
   -0.1783    1.1808   -0.0141 C   0  0  0  0  0  0  0  0  0  0  0  0
   -2.4935    1.7353   -0.5725 C   0  0  0  0  0  0  0  0  0  0  0  0
    2.8241   -5.4469    1.5929 C   0  0  0  0  0  0  0  0  0  0  0  0
    0.5639   -1.2728   -0.2692 C   0  0  0  0  0  0  0  0  0  0  0  0
    1.2023    1.6808    0.3661 C   0  0  0  0  0  0  0  0  0  0  0  0
    1.8622    1.0131    1.5815 C   0  0  0  0  0  0  0  0  0  0  0  0
    2.3774   -0.4071    1.3362 C   0  0  0  0  0  0  0  0  0  0  0  0
    1.2731   -1.4642    1.0863 C   0  0  2  0  0  0  0  0  0  0  0  0
   -4.7260    2.4240   -1.0863 C   0  0  0  0  0  0  0  0  0  0  0  0
    2.4301   -8.0821    0.6672 C   0  0  0  0  0  0  0  0  0  0  0  0
    0.7232   -2.0612   -1.1913 O   0  0  0  0  0  0  0  0  0  0  0  0
    4.8363   -7.1533    1.2853 O   0  0  0  0  0  0  0  0  0  0  0  0
    3.1427   -7.5597    3.1687 O   0  0  0  0  0  0  0  0  0  0  0  0
   -3.4193    2.7372   -0.6081 O   0  0  0  0  0  0  0  0  0  0  0  0
    3.4578   -7.1151    1.8007 S   0  0  0  0  0  0  0  0  0  0  0  0
   -1.8629   -1.5413   -1.1814 H   0  0  0  0  0  0  0  0  0  0  0  0
    3.2388   -2.7206   -0.3754 H   0  0  0  0  0  0  0  0  0  0  0  0
    0.5201   -3.3375    2.9023 H   0  0  0  0  0  0  0  0  0  0  0  0
   -3.7047    0.0948   -1.3294 H   0  0  0  0  0  0  0  0  0  0  0  0
    4.1627   -5.0022   -0.0363 H   0  0  0  0  0  0  0  0  0  0  0  0
    1.4358   -5.6337    3.2277 H   0  0  0  0  0  0  0  0  0  0  0  0
   -1.0494    3.1505    0.1257 H   0  0  0  0  0  0  0  0  0  0  0  0
    1.8680    1.5666   -0.5004 H   0  0  0  0  0  0  0  0  0  0  0  0
    1.1333    2.7563    0.5539 H   0  0  0  0  0  0  0  0  0  0  0  0
    2.7158    1.6309    1.8840 H   0  0  0  0  0  0  0  0  0  0  0  0
    1.1630    1.0135    2.4271 H   0  0  0  0  0  0  0  0  0  0  0  0
    3.0821   -0.4066    0.4959 H   0  0  0  0  0  0  0  0  0  0  0  0
    2.9442   -0.7345    2.2141 H   0  0  0  0  0  0  0  0  0  0  0  0
    0.5042   -1.3048    1.8520 H   0  0  0  0  0  0  0  0  0  0  0  0
   -5.2924    3.3544   -1.0342 H   0  0  0  0  0  0  0  0  0  0  0  0
   -5.2097    1.6676   -0.4566 H   0  0  0  0  0  0  0  0  0  0  0  0
   -4.6961    2.0732   -2.1248 H   0  0  0  0  0  0  0  0  0  0  0  0
    2.7763   -9.1148    0.7470 H   0  0  0  0  0  0  0  0  0  0  0  0
    1.3880   -7.9997    0.9786 H   0  0  0  0  0  0  0  0  0  0  0  0
    2.5718   -7.7057   -0.3467 H   0  0  0  0  0  0  0  0  0  0  0  0
  1  4  1  0  0  0  0
  1  8  2  0  0  0  0
  1 25  1  0  0  0  0
  2  5  2  0  0  0  0
  2  9  1  0  0  0  0
  2 26  1  0  0  0  0
  3  6  1  0  0  0  0
  3  9  2  0  0  0  0
  3 27  1  0  0  0  0
  4 11  2  0  0  0  0
  4 28  1  0  0  0  0
  5 12  1  0  0  0  0
  5 29  1  0  0  0  0
  6 12  2  0  0  0  0
  6 30  1  0  0  0  0
  7 10  2  0  0  0  0
  7 11  1  0  0  0  0
  7 31  1  0  0  0  0
  8 10  1  0  0  0  0
  8 13  1  0  0  0  0
  9 17  1  0  0  0  0
 10 14  1  0  0  0  0
 11 23  1  0  0  0  0
 12 24  1  0  0  0  0
 13 17  1  0  0  0  0
 13 20  2  0  0  0  0
 14 15  1  0  0  0  0
 14 32  1  0  0  0  0
 14 33  1  0  0  0  0
 15 16  1  0  0  0  0
 15 34  1  0  0  0  0
 15 35  1  0  0  0  0
 16 17  1  0  0  0  0
 16 36  1  0  0  0  0
 16 37  1  0  0  0  0
 17 38  1  0  0  0  0
 18 23  1  0  0  0  0
 18 39  1  0  0  0  0
 18 40  1  0  0  0  0
 18 41  1  0  0  0  0
 19 24  1  0  0  0  0
 19 42  1  0  0  0  0
 19 43  1  0  0  0  0
 19 44  1  0  0  0  0
 21 24  2  0  0  0  0
 22 24  2  0  0  0  0
M  END
$$$$
