
  -OEChem-05262117483D

 27 28  0     1  0  0  0  0  0999 V2000
   -2.0434    1.5863    1.1900 C   0  0  0  0  0  0  0  0  0  0  0  0
   -1.6216    2.4143    0.1431 C   0  0  0  0  0  0  0  0  0  0  0  0
   -1.5029    0.3052    1.3066 C   0  0  0  0  0  0  0  0  0  0  0  0
   -0.6776    1.9514   -0.7717 C   0  0  0  0  0  0  0  0  0  0  0  0
   -0.5367   -0.1750    0.4096 C   0  0  0  0  0  0  0  0  0  0  0  0
   -0.1279    0.6635   -0.6444 C   0  0  0  0  0  0  0  0  0  0  0  0
    0.2785   -2.2486   -0.7568 C   0  0  0  0  0  0  0  0  0  0  0  0
    1.3644   -1.5790   -1.5941 C   0  0  0  0  0  0  0  0  0  0  0  0
    0.0444   -1.5607    0.5981 C   0  0  1  0  0  0  0  0  0  0  0  0
    1.3336   -1.5293    1.4507 C   0  0  0  0  0  0  0  0  0  0  0  0
    1.1200   -1.0332    2.8736 C   0  0  0  0  0  0  0  0  0  0  0  0
    0.1517   -1.8820    3.5110 O   0  0  0  0  0  0  0  0  0  0  0  0
    1.0690    0.2141   -1.8861 S   0  0  0  0  0  0  0  0  0  0  0  0
   -2.7877    1.9337    1.9016 H   0  0  0  0  0  0  0  0  0  0  0  0
   -2.0336    3.4140    0.0304 H   0  0  0  0  0  0  0  0  0  0  0  0
   -1.8214   -0.3501    2.1145 H   0  0  0  0  0  0  0  0  0  0  0  0
   -0.3655    2.5882   -1.5964 H   0  0  0  0  0  0  0  0  0  0  0  0
   -0.6619   -2.2640   -1.3183 H   0  0  0  0  0  0  0  0  0  0  0  0
    0.5755   -3.2915   -0.5907 H   0  0  0  0  0  0  0  0  0  0  0  0
    2.3440   -1.6912   -1.1238 H   0  0  0  0  0  0  0  0  0  0  0  0
    1.4175   -2.0322   -2.5875 H   0  0  0  0  0  0  0  0  0  0  0  0
   -0.6882   -2.1565    1.1492 H   0  0  0  0  0  0  0  0  0  0  0  0
    2.0822   -0.8787    0.9843 H   0  0  0  0  0  0  0  0  0  0  0  0
    1.7563   -2.5413    1.4906 H   0  0  0  0  0  0  0  0  0  0  0  0
    2.0754   -1.0669    3.4167 H   0  0  0  0  0  0  0  0  0  0  0  0
    0.7694    0.0073    2.8615 H   0  0  0  0  0  0  0  0  0  0  0  0
    0.0158   -1.5592    4.4146 H   0  0  0  0  0  0  0  0  0  0  0  0
  1  2  1  0  0  0  0
  1  3  2  0  0  0  0
  1 14  1  0  0  0  0
  2  4  2  0  0  0  0
  2 15  1  0  0  0  0
  3  5  1  0  0  0  0
  3 16  1  0  0  0  0
  4  6  1  0  0  0  0
  4 17  1  0  0  0  0
  5  6  2  0  0  0  0
  5  9  1  0  0  0  0
  6 13  1  0  0  0  0
  7  8  1  0  0  0  0
  7  9  1  0  0  0  0
  7 18  1  0  0  0  0
  7 19  1  0  0  0  0
  8 13  1  0  0  0  0
  8 20  1  0  0  0  0
  8 21  1  0  0  0  0
  9 10  1  0  0  0  0
  9 22  1  0  0  0  0
 10 11  1  0  0  0  0
 10 23  1  0  0  0  0
 10 24  1  0  0  0  0
 11 12  1  0  0  0  0
 11 25  1  0  0  0  0
 11 26  1  0  0  0  0
 12 27  1  0  0  0  0
M  END
$$$$
