25
0 1 C11FH11O2
C                     3.146542723782    -1.000289922722    -0.493364576718
C                     1.465608451240     1.236319834142    -0.975549475220
C                     3.632616820777     0.157041544805    -1.123806911166
C                     2.810166705354     1.259330094420    -1.357935880459
C                     0.956520813069     0.089545563095    -0.350469632122
C                     1.820486653412    -1.013213991279    -0.120372866171
C                     4.996290125223     0.423109507366    -1.619451760111
C                     3.576163883728     2.390199621602    -2.014241634659
C                     4.983908383930     1.807069100647    -2.296898466675
C                     6.155166911915     2.678873732972    -1.835954508572
C                    -1.235874605604     1.003008919899    -0.139223798865
O                     5.972018404130    -0.308409071637    -1.525857319299
O                    -0.321980630845    -0.073525289262     0.069530112449
F                     1.296406297715    -2.102710533801     0.485959794718
H                     3.786150878486    -1.857846717947    -0.306907187336
H                     0.828534621450     2.095026610822    -1.158632698413
H                     3.078889973324     2.741390580471    -2.924640293398
H                     3.638014153154     3.250077382781    -1.336360642941
H                     5.091938641463     1.612956300354    -3.371530617145
H                     6.074656097173     2.903720246060    -0.766486773129
H                     6.177194373694     3.627456189367    -2.382475454695
H                     7.102153634431     2.158101369854    -2.001101979306
H                    -2.189191811590     0.661717162690     0.264347125898
H                    -1.348231505972     1.225054778474    -1.206897946361
H                    -0.913698105106     1.904713583365     0.394621368649
