
  -OEChem-05262117483D

 70 74  0     1  0  0  0  0  0999 V2000
    2.7698   -6.2621   -5.2454 C   0  0  0  0  0  0  0  0  0  0  0  0
    4.3327   -5.8131   -7.0307 C   0  0  0  0  0  0  0  0  0  0  0  0
    4.0599  -11.1197    1.7150 C   0  0  0  0  0  0  0  0  0  0  0  0
    3.4124  -10.2826    0.8223 C   0  0  0  0  0  0  0  0  0  0  0  0
    3.2528   -5.1629   -4.5316 C   0  0  0  0  0  0  0  0  0  0  0  0
    4.8262   -4.7243   -6.3325 C   0  0  0  0  0  0  0  0  0  0  0  0
    4.0827  -12.9129    0.0972 C   0  0  0  0  0  0  0  0  0  0  0  0
    3.4287  -12.0735   -0.8196 C   0  0  0  0  0  0  0  0  0  0  0  0
    3.2977   -6.6114   -6.4985 C   0  0  0  0  0  0  0  0  0  0  0  0
    4.4078  -12.4497    1.3683 C   0  0  0  0  0  0  0  0  0  0  0  0
    3.0893  -10.7561   -0.4663 C   0  0  0  0  0  0  0  0  0  0  0  0
    4.2907   -4.3876   -5.0729 C   0  0  0  0  0  0  0  0  0  0  0  0
    3.0725  -12.5369   -2.1571 C   0  0  0  0  0  0  0  0  0  0  0  0
    2.8290   -7.7858   -7.2939 C   0  0  0  0  0  0  0  0  0  0  0  0
    4.0374  -10.0567   -5.7907 C   0  0  0  0  0  0  0  0  0  0  0  0
    5.2158    1.1287   -1.7325 C   0  0  0  0  0  0  0  0  0  0  0  0
    5.4546   -0.0600   -0.7911 C   0  0  0  0  0  0  0  0  0  0  0  0
    5.5945    0.7776   -3.1779 C   0  0  0  0  0  0  0  0  0  0  0  0
    1.4531   -9.9601   -7.5198 C   0  0  0  0  0  0  0  0  0  0  0  0
    4.7226   -1.3194   -1.2768 C   0  0  0  0  0  0  0  0  0  0  0  0
    4.8611   -0.4809   -3.6615 C   0  0  0  0  0  0  0  0  0  0  0  0
    1.1852  -11.1708   -6.5872 C   0  0  0  0  0  0  0  0  0  0  0  0
    1.9555   -8.8298   -6.6038 C   0  0  1  0  0  0  0  0  0  0  0  0
    2.6375   -9.5793   -5.4132 C   0  0  1  0  0  0  0  0  0  0  0  0
    5.1049   -1.6746   -2.7239 C   0  0  0  0  0  0  0  0  0  0  0  0
    1.6267  -10.7210   -5.1719 C   0  0  2  0  0  0  0  0  0  0  0  0
    5.1124  -13.3296    2.3719 C   0  0  0  0  0  0  0  0  0  0  0  0
    2.0779  -11.8982   -4.3179 C   0  0  0  0  0  0  0  0  0  0  0  0
    4.3472   -2.9158   -3.1739 C   0  0  0  0  0  0  0  0  0  0  0  0
    2.4374   -9.8908   -1.3411 N   0  0  0  0  0  0  0  0  0  0  0  0
    2.1432  -10.2818   -2.5172 N   0  0  0  0  0  0  0  0  0  0  0  0
    2.4651  -11.5365   -2.9367 N   0  0  0  0  0  0  0  0  0  0  0  0
    3.2558  -13.6649   -2.6054 O   0  0  0  0  0  0  0  0  0  0  0  0
    3.1698   -7.9237   -8.4633 O   0  0  0  0  0  0  0  0  0  0  0  0
    4.2937  -11.1394   -6.2698 O   0  0  0  0  0  0  0  0  0  0  0  0
    5.0432   -9.1664   -5.5609 O   0  0  0  0  0  0  0  0  0  0  0  0
    4.8407   -3.3069   -4.4654 O   0  0  0  0  0  0  0  0  0  0  0  0
    1.9582   -6.8341   -4.8075 H   0  0  0  0  0  0  0  0  0  0  0  0
    4.7421   -6.0823   -7.9992 H   0  0  0  0  0  0  0  0  0  0  0  0
    4.3094  -10.7520    2.7080 H   0  0  0  0  0  0  0  0  0  0  0  0
    3.1432   -9.2642    1.0863 H   0  0  0  0  0  0  0  0  0  0  0  0
    2.8169   -4.9232   -3.5692 H   0  0  0  0  0  0  0  0  0  0  0  0
    5.6304   -4.1137   -6.7323 H   0  0  0  0  0  0  0  0  0  0  0  0
    4.3266  -13.9241   -0.2150 H   0  0  0  0  0  0  0  0  0  0  0  0
    5.7845    2.0014   -1.3908 H   0  0  0  0  0  0  0  0  0  0  0  0
    4.1543    1.4110   -1.6955 H   0  0  0  0  0  0  0  0  0  0  0  0
    6.5318   -0.2689   -0.7379 H   0  0  0  0  0  0  0  0  0  0  0  0
    5.1330    0.1886    0.2268 H   0  0  0  0  0  0  0  0  0  0  0  0
    5.3722    1.6186   -3.8447 H   0  0  0  0  0  0  0  0  0  0  0  0
    6.6786    0.6091   -3.2377 H   0  0  0  0  0  0  0  0  0  0  0  0
    2.2238  -10.1954   -8.2552 H   0  0  0  0  0  0  0  0  0  0  0  0
    0.5655   -9.6466   -8.0750 H   0  0  0  0  0  0  0  0  0  0  0  0
    4.9427   -2.1628   -0.6103 H   0  0  0  0  0  0  0  0  0  0  0  0
    3.6376   -1.1489   -1.2219 H   0  0  0  0  0  0  0  0  0  0  0  0
    3.7806   -0.2782   -3.7008 H   0  0  0  0  0  0  0  0  0  0  0  0
    5.1709   -0.7389   -4.6790 H   0  0  0  0  0  0  0  0  0  0  0  0
    0.1332  -11.4710   -6.5845 H   0  0  0  0  0  0  0  0  0  0  0  0
    1.7736  -12.0320   -6.9115 H   0  0  0  0  0  0  0  0  0  0  0  0
    1.0958   -8.3067   -6.1665 H   0  0  0  0  0  0  0  0  0  0  0  0
    2.7108   -8.9441   -4.5298 H   0  0  0  0  0  0  0  0  0  0  0  0
    6.1762   -1.9191   -2.7462 H   0  0  0  0  0  0  0  0  0  0  0  0
    0.7744  -10.2448   -4.6766 H   0  0  0  0  0  0  0  0  0  0  0  0
    4.4964  -13.4735    3.2668 H   0  0  0  0  0  0  0  0  0  0  0  0
    5.3360  -14.3138    1.9537 H   0  0  0  0  0  0  0  0  0  0  0  0
    6.0555  -12.8766    2.6968 H   0  0  0  0  0  0  0  0  0  0  0  0
    2.9327  -12.4026   -4.7674 H   0  0  0  0  0  0  0  0  0  0  0  0
    1.2702  -12.6353   -4.2522 H   0  0  0  0  0  0  0  0  0  0  0  0
    3.2713   -2.7045   -3.2419 H   0  0  0  0  0  0  0  0  0  0  0  0
    4.4960   -3.7407   -2.4646 H   0  0  0  0  0  0  0  0  0  0  0  0
    4.6807   -8.3200   -5.2419 H   0  0  0  0  0  0  0  0  0  0  0  0
  1  5  1  0  0  0  0
  1  9  2  0  0  0  0
  1 38  1  0  0  0  0
  2  6  2  0  0  0  0
  2  9  1  0  0  0  0
  2 39  1  0  0  0  0
  3  4  2  0  0  0  0
  3 10  1  0  0  0  0
  3 40  1  0  0  0  0
  4 11  1  0  0  0  0
  4 41  1  0  0  0  0
  5 12  2  0  0  0  0
  5 42  1  0  0  0  0
  6 12  1  0  0  0  0
  6 43  1  0  0  0  0
  7  8  1  0  0  0  0
  7 10  2  0  0  0  0
  7 44  1  0  0  0  0
  8 11  2  0  0  0  0
  8 13  1  0  0  0  0
  9 14  1  0  0  0  0
 10 27  1  0  0  0  0
 11 30  1  0  0  0  0
 12 37  1  0  0  0  0
 13 32  1  0  0  0  0
 13 33  2  0  0  0  0
 14 23  1  0  0  0  0
 14 34  2  0  0  0  0
 15 24  1  0  0  0  0
 15 35  2  0  0  0  0
 15 36  1  0  0  0  0
 16 17  1  0  0  0  0
 16 18  1  0  0  0  0
 16 45  1  0  0  0  0
 16 46  1  0  0  0  0
 17 20  1  0  0  0  0
 17 47  1  0  0  0  0
 17 48  1  0  0  0  0
 18 21  1  0  0  0  0
 18 49  1  0  0  0  0
 18 50  1  0  0  0  0
 19 22  1  0  0  0  0
 19 23  1  0  0  0  0
 19 51  1  0  0  0  0
 19 52  1  0  0  0  0
 20 25  1  0  0  0  0
 20 53  1  0  0  0  0
 20 54  1  0  0  0  0
 21 25  1  0  0  0  0
 21 55  1  0  0  0  0
 21 56  1  0  0  0  0
 22 26  1  0  0  0  0
 22 57  1  0  0  0  0
 22 58  1  0  0  0  0
 23 24  1  0  0  0  0
 23 59  1  0  0  0  0
 24 26  1  0  0  0  0
 24 60  1  0  0  0  0
 25 29  1  0  0  0  0
 25 61  1  0  0  0  0
 26 28  1  0  0  0  0
 26 62  1  0  0  0  0
 27 63  1  0  0  0  0
 27 64  1  0  0  0  0
 27 65  1  0  0  0  0
 28 32  1  0  0  0  0
 28 66  1  0  0  0  0
 28 67  1  0  0  0  0
 29 37  1  0  0  0  0
 29 68  1  0  0  0  0
 29 69  1  0  0  0  0
 30 31  2  0  0  0  0
 31 32  1  0  0  0  0
 36 70  1  0  0  0  0
M  END
$$$$
