34
0 1 C12H19NO2
C                    -0.678284357046    -2.543611920926     1.918905952111
C                    -0.686061912641    -3.941997879823     1.987605843725
C                     0.929586640273    -2.455733356005     3.697622261695
C                     0.122780961153    -1.776514043371     2.770637866231
C                     0.114731985275    -4.608988399253     2.922213005158
C                     0.935439848233    -3.846309818170     3.782739527014
C                    -0.473674866395    -8.223431332535     2.668916565239
C                     1.054202952037     1.757462695392     1.437081391539
C                     2.822070980634    -5.200224364586     4.267468609001
C                     0.161836064962    -0.269263007557     2.659265304269
C                    -0.698586928664    -6.774348471739     2.272212164585
C                     1.095735346040     0.232112920540     1.539686196218
N                     2.475016652938    -0.192689800440     1.834085756295
O                     1.703921995162    -4.447837602903     4.756273858373
O                     0.160309055328    -5.968158326259     3.083959014742
H                    -1.316569113631    -2.048956342318     1.189770961893
H                    -1.331463906914    -4.500291886444     1.318827462046
H                     1.569523948494    -1.904411962939     4.381449321390
H                     0.565910665886    -8.515894072270     2.493804449498
H                    -0.701066250899    -8.371729276996     3.728367013126
H                    -1.122296417152    -8.877926755622     2.077654426802
H                     1.391821166341     2.210095316848     2.375299642382
H                     0.039165061541     2.108669132695     1.222442415797
H                     1.708909659709     2.116843475946     0.634277943165
H                     3.346367034254    -5.572596424494     5.150094110935
H                     3.495867137043    -4.554237565994     3.689462105685
H                     2.495902817059    -6.042400968147     3.650041398633
H                    -0.846179374068     0.113300164037     2.461687647395
H                     0.500498298276     0.168855526577     3.604387629636
H                    -1.743954367568    -6.480916872032     2.436823245424
H                    -0.462209294899    -6.618221191693     1.210832505925
H                     0.725201256170    -0.189942947374     0.588525424408
H                     3.090314808758     0.104619059522     1.077957722316
H                     2.518529286273    -1.210870537891     1.859846388666
