44
0 1 C19H20O4S
C                     0.122950557157    -0.796144816824     1.931795264309
C                     2.604701826201    -2.488301197011    -2.075119832007
C                     3.601026041989    -0.447531305519    -2.893554222666
C                    -1.002153928280    -0.749013854935     2.750991484938
C                     3.663383554229    -3.226961863864    -2.597505465937
C                     4.671965260501    -1.171042872397    -3.424033653783
C                    -2.106368926363     0.594105936768     1.056971432575
C                     0.153439207986    -0.183533214325     0.669402625575
C                     2.561602247430    -1.091508199105    -2.213234173807
C                    -0.986801280290     0.536876876671     0.231001246223
C                    -2.132789294546    -0.047553758605     2.306012215894
C                     4.694120349239    -2.555788410254    -3.261958511849
C                     1.417763973259    -0.346347590364    -0.110775867032
C                    -1.002716316652     1.281092020365    -1.083590676138
C                    -1.006915845829     0.357102281071    -2.316113457414
C                     0.041173849984    -0.763177023681    -2.251542476278
C                     1.393993232412    -0.301988797378    -1.657549254256
C                    -3.367088052751    -0.533014047078     4.297705038095
C                     7.235284232887    -3.515292893773    -2.506252247983
O                     2.474984748844    -0.577031145048     0.466689092202
O                     5.641887830395    -4.879741638628    -4.129711228980
O                     6.713665006312    -2.709327765027    -4.979218016431
O                    -3.292779417172     0.077361215485     3.009577395043
S                     6.085145077419    -3.493980810791    -3.903460946338
H                     1.011336803918    -1.325190463456     2.262325520300
H                     1.804302773860    -3.004508623505    -1.551549296219
H                     3.577182115933     0.633014484948    -3.012213147353
H                    -0.987167513254    -1.249220364897     3.712459903839
H                     3.691413245562    -4.309075833953    -2.510741708061
H                     5.469910909707    -0.676929081292    -3.970157177238
H                    -2.987186404396     1.153336618803     0.753475475000
H                    -1.879095834133     1.934278899338    -1.122425187135
H                    -0.131884439043     1.944530554188    -1.130082603627
H                    -2.000235515125    -0.089096990157    -2.436332237765
H                    -0.828206759125     0.975033416312    -3.204315291208
H                    -0.342774892760    -1.600446249462    -1.659487720338
H                     0.210112658470    -1.152000234676    -3.259762437008
H                     1.551489165812     0.749080213757    -1.931806149484
H                    -4.363996390219    -0.305463263816     4.676354081658
H                    -2.614634339568    -0.117266410733     4.977989875502
H                    -3.242244819215    -1.620127080192     4.230134045516
H                     8.108956114626    -4.080097875628    -2.838651240375
H                     7.510299756565    -2.488951418217    -2.259817172695
H                     6.755030063897    -4.010018159729    -1.661035912937
