43
0 1 C16ClH18N5O2S
C                     8.774177213634     0.694329338164    -3.742190323101
C                     7.602789545241     0.604058929292    -2.989617973679
C                     8.427721570575    -1.603759634357    -4.377195107040
C                     9.189255731855    -0.433158534971    -4.447978035951
C                     6.898011280255    -0.603568752442    -2.975108812997
C                     5.272395600493     1.609973508337     0.334068969834
C                     4.264016632594     1.254953984099    -1.650354566191
C                     1.977702239310     2.460121859655     0.058345010166
C                     5.585429903205     2.318668891207     1.613078085197
C                     4.383651693439     3.158386884530     2.080152074443
C                     3.813253409011     3.991682698556     0.921902383912
C                    -0.393120362783     2.190302332301    -0.388035853514
C                    -1.413528031398     2.851786863398    -1.306430062400
C                     1.007535835141     3.386110666407    -2.067402883078
C                     3.330871270288     3.129290165562    -0.262970164462
C                     5.602597279770    -0.792212204632    -2.206765194078
N                     7.307538549616    -1.685229789173    -3.654909315670
N                     5.857421247917     0.546939636425    -0.144525964012
N                     4.320264566392     2.098545290016    -0.537867581078
N                     5.237537454059     0.326648370726    -1.372163497698
N                     0.912104604355     2.781457016014    -0.725135299523
O                     3.512658041065     1.350769709754    -2.623274311138
O                     1.875261601276     1.711195916930     1.033270304990
S                    -0.560660338938     2.977033615724    -2.922132506721
Cl                   10.650584975706    -0.397404025844    -5.413951573285
H                     9.351075270613     1.613564600141    -3.779166257899
H                     7.247951851585     1.455471421465    -2.419603564983
H                     8.736881724594    -2.495263496904    -4.919336048099
H                     5.884293845652     1.583934163621     2.364431411413
H                     6.450628070270     2.972658410297     1.442430886296
H                     3.603513084919     2.504178381327     2.473156266953
H                     4.701817718611     3.827998863194     2.885367380249
H                     2.976992255233     4.606757097085     1.267179046604
H                     4.583929773369     4.676658855980     0.547342520202
H                    -0.607574650386     2.370904603393     0.668227624622
H                    -0.360775067252     1.107412821259    -0.547761078209
H                    -2.311326202860     2.242369014702    -1.424490810460
H                    -1.697966502539     3.844416781950    -0.944958343933
H                     1.121167444032     4.472902536579    -1.994214700867
H                     1.829652653589     2.946967793363    -2.635512851786
H                     3.251481792639     3.754157369381    -1.153334666140
H                     4.784074098467    -0.941992522630    -2.916119429034
H                     5.680013122219    -1.689815173205    -1.587891520139
