45
0 1 C18F3H16N7O
C                    -2.046971583812     5.642223683295     1.155059799722
C                     0.223811209626     4.722472410037     1.262402449679
C                    -2.339348797926     4.585028504012     0.274985122447
C                    -0.748806607972     5.677965656214     1.629913651775
C                    -3.462927390293     4.086954996258    -0.467648940285
C                    -7.256334997580     5.570333265859    -0.623562422155
C                    -1.288899326303     3.681764006048    -0.033224893890
C                    -6.261374847180     6.198699728069     0.163200088016
C                    -4.821571272817     4.636967210197    -0.514546778446
C                    -8.165393144608     7.459822399706     0.472257031311
C                    -0.702950354607    -0.967506346750    -0.945340489256
C                    -0.959258574869     0.272838091750     0.851349477751
C                    -1.502371228165     0.330492112897    -0.611898229284
C                    -8.561802666553     6.318114788781    -0.496218836882
C                    -0.506474926237    -1.162500158306     0.563260017238
C                    -9.028015181759     6.914155572059    -1.837849523914
C                    -9.667375078266     5.457300309854     0.143966464947
C                    -1.160649921940     1.567296329399    -1.431807881338
N                    -0.033412910553     3.714660873569     0.429446954809
N                    -3.116522892212     2.993238196688    -1.154085372806
N                    -6.987345384137     4.495434203695    -1.327894961177
N                    -5.026873535814     5.759395254888     0.243393973234
N                    -5.726748264846     4.007983669149    -1.274450296027
N                    -1.813391715252     2.758047486239    -0.905140383549
N                    -6.806924552035     7.299337821589     0.794751392685
O                    -8.874474879759     8.348481611947     0.897056000424
F                    -0.372623524919     6.660908081032     2.486845277043
F                     0.751948624119    -1.511527623776     0.980657860964
F                    -1.367136298322    -2.103091541393     1.086236011847
H                    -2.785436804354     6.379402839170     1.445907681113
H                     1.228946591103     4.801369504167     1.670909375418
H                    -1.227660129553    -1.771210470612    -1.464527003525
H                     0.250674001708    -0.761486276035    -1.439258759965
H                    -0.105942753981     0.937189948396     1.007131014574
H                    -1.677469437129     0.387714775242     1.664769332243
H                    -2.580408581068     0.157140802574    -0.644660553499
H                    -9.911620254211     7.537550324415    -1.678156922994
H                    -9.275537224080     6.103917189167    -2.528541768899
H                    -8.246987915365     7.528862292970    -2.295736959740
H                   -10.556025955966     6.068795115600     0.320754506081
H                    -9.341843287330     5.032998359853     1.098721471873
H                    -9.921338419057     4.633690327946    -0.528322319594
H                    -1.479155239664     1.446876678671    -2.470457600764
H                    -0.085064374056     1.760748547197    -1.412010822126
H                    -6.306526204750     7.924099787937     1.418280942351
