
  -OEChem-05262117483D

 45 49  0     0  0  0  0  0  0999 V2000
   -1.9333    5.7331    0.6967 C   0  0  0  0  0  0  0  0  0  0  0  0
    0.4027    4.9847    0.7138 C   0  0  0  0  0  0  0  0  0  0  0  0
   -2.1943    4.6119   -0.1110 C   0  0  0  0  0  0  0  0  0  0  0  0
   -0.6167    5.8867    1.0904 C   0  0  0  0  0  0  0  0  0  0  0  0
   -3.3132    4.0050   -0.7757 C   0  0  0  0  0  0  0  0  0  0  0  0
   -7.1959    5.2424   -0.8477 C   0  0  0  0  0  0  0  0  0  0  0  0
   -1.0997    3.7659   -0.4272 C   0  0  0  0  0  0  0  0  0  0  0  0
   -6.2169    5.9603   -0.1196 C   0  0  0  0  0  0  0  0  0  0  0  0
   -4.7053    4.4648   -0.7902 C   0  0  0  0  0  0  0  0  0  0  0  0
   -8.1849    7.1138    0.2094 C   0  0  0  0  0  0  0  0  0  0  0  0
    0.2678    1.0682   -4.1660 C   0  0  0  0  0  0  0  0  0  0  0  0
   -1.4023    2.4878   -4.3365 C   0  0  0  0  0  0  0  0  0  0  0  0
   -0.3377    2.1688   -3.2400 C   0  0  0  0  0  0  0  0  0  0  0  0
   -8.5405    5.9140   -0.7029 C   0  0  0  0  0  0  0  0  0  0  0  0
   -0.5536    1.6683   -5.3142 C   0  0  0  0  0  0  0  0  0  0  0  0
   -9.0846    6.4292   -2.0487 C   0  0  0  0  0  0  0  0  0  0  0  0
   -9.5703    5.0134    0.0053 C   0  0  0  0  0  0  0  0  0  0  0  0
   -0.8517    1.7046   -1.8829 C   0  0  0  0  0  0  0  0  0  0  0  0
    0.1750    3.9156   -0.0484 N   0  0  0  0  0  0  0  0  0  0  0  0
   -2.9242    2.9027   -1.4249 N   0  0  0  0  0  0  0  0  0  0  0  0
   -6.8832    4.1605   -1.5224 N   0  0  0  0  0  0  0  0  0  0  0  0
   -4.9554    5.6008   -0.0666 N   0  0  0  0  0  0  0  0  0  0  0  0
   -5.5934    3.7537   -1.4960 N   0  0  0  0  0  0  0  0  0  0  0  0
   -1.6028    2.7512   -1.2046 N   0  0  0  0  0  0  0  0  0  0  0  0
   -6.8091    7.0492    0.4898 N   0  0  0  0  0  0  0  0  0  0  0  0
   -8.9338    7.9729    0.6266 O   0  0  0  0  0  0  0  0  0  0  0  0
   -0.2667    6.9413    1.8697 F   0  0  0  0  0  0  0  0  0  0  0  0
   -1.2172    0.7839   -6.1241 F   0  0  0  0  0  0  0  0  0  0  0  0
    0.2105    2.4614   -6.1434 F   0  0  0  0  0  0  0  0  0  0  0  0
   -2.7064    6.4324    0.9911 H   0  0  0  0  0  0  0  0  0  0  0  0
    1.4210    5.1603    1.0539 H   0  0  0  0  0  0  0  0  0  0  0  0
    1.3497    1.0587   -4.3085 H   0  0  0  0  0  0  0  0  0  0  0  0
   -0.0865    0.0645   -3.9157 H   0  0  0  0  0  0  0  0  0  0  0  0
   -2.3653    2.0121   -4.1379 H   0  0  0  0  0  0  0  0  0  0  0  0
   -1.5565    3.5339   -4.6049 H   0  0  0  0  0  0  0  0  0  0  0  0
    0.3584    3.0002   -3.1048 H   0  0  0  0  0  0  0  0  0  0  0  0
   -9.9988    7.0047   -1.8818 H   0  0  0  0  0  0  0  0  0  0  0  0
   -9.3045    5.5797   -2.7005 H   0  0  0  0  0  0  0  0  0  0  0  0
   -8.3573    7.0711   -2.5552 H   0  0  0  0  0  0  0  0  0  0  0  0
  -10.4888    5.5767    0.1896 H   0  0  0  0  0  0  0  0  0  0  0  0
   -9.1894    4.6466    0.9633 H   0  0  0  0  0  0  0  0  0  0  0  0
   -9.7944    4.1508   -0.6275 H   0  0  0  0  0  0  0  0  0  0  0  0
   -0.0194    1.4223   -1.2328 H   0  0  0  0  0  0  0  0  0  0  0  0
   -1.5240    0.8500   -1.9903 H   0  0  0  0  0  0  0  0  0  0  0  0
   -6.3287    7.7266    1.0728 H   0  0  0  0  0  0  0  0  0  0  0  0
  1  3  1  0  0  0  0
  1  4  2  0  0  0  0
  1 30  1  0  0  0  0
  2  4  1  0  0  0  0
  2 19  2  0  0  0  0
  2 31  1  0  0  0  0
  3  5  1  0  0  0  0
  3  7  2  0  0  0  0
  4 27  1  0  0  0  0
  5  9  1  0  0  0  0
  5 20  2  0  0  0  0
  6  8  1  0  0  0  0
  6 14  1  0  0  0  0
  6 21  2  0  0  0  0
  7 19  1  0  0  0  0
  7 24  1  0  0  0  0
  8 22  2  0  0  0  0
  8 25  1  0  0  0  0
  9 22  1  0  0  0  0
  9 23  2  0  0  0  0
 10 14  1  0  0  0  0
 10 25  1  0  0  0  0
 10 26  2  0  0  0  0
 11 13  1  0  0  0  0
 11 15  1  0  0  0  0
 11 32  1  0  0  0  0
 11 33  1  0  0  0  0
 12 13  1  0  0  0  0
 12 15  1  0  0  0  0
 12 34  1  0  0  0  0
 12 35  1  0  0  0  0
 13 18  1  0  0  0  0
 13 36  1  0  0  0  0
 14 16  1  0  0  0  0
 14 17  1  0  0  0  0
 15 28  1  0  0  0  0
 15 29  1  0  0  0  0
 16 37  1  0  0  0  0
 16 38  1  0  0  0  0
 16 39  1  0  0  0  0
 17 40  1  0  0  0  0
 17 41  1  0  0  0  0
 17 42  1  0  0  0  0
 18 24  1  0  0  0  0
 18 43  1  0  0  0  0
 18 44  1  0  0  0  0
 20 24  1  0  0  0  0
 21 23  1  0  0  0  0
 25 45  1  0  0  0  0
M  END
$$$$
