
  -OEChem-05262117483D

 43 46  0     1  0  0  0  0  0999 V2000
    3.4525   -3.1270    0.4501 C   0  0  0  0  0  0  0  0  0  0  0  0
    4.1844   -2.0812   -0.1126 C   0  0  0  0  0  0  0  0  0  0  0  0
    4.8239   -4.6483   -0.8181 C   0  0  0  0  0  0  0  0  0  0  0  0
    3.7815   -4.4313    0.0877 C   0  0  0  0  0  0  0  0  0  0  0  0
    5.2117   -2.3855   -1.0135 C   0  0  0  0  0  0  0  0  0  0  0  0
    5.6799    1.4737    0.3537 C   0  0  0  0  0  0  0  0  0  0  0  0
    4.7696    0.8171   -1.5981 C   0  0  0  0  0  0  0  0  0  0  0  0
    2.3855    1.6823   -0.0747 C   0  0  0  0  0  0  0  0  0  0  0  0
    5.8541    2.3234    1.5691 C   0  0  0  0  0  0  0  0  0  0  0  0
    4.5075    2.9510    1.9751 C   0  0  0  0  0  0  0  0  0  0  0  0
    3.8235    3.6098    0.7668 C   0  0  0  0  0  0  0  0  0  0  0  0
    0.1115    0.9357   -0.4787 C   0  0  0  0  0  0  0  0  0  0  0  0
   -1.0664    1.4419   -1.3010 C   0  0  0  0  0  0  0  0  0  0  0  0
    1.1814    2.4736   -2.1210 C   0  0  0  0  0  0  0  0  0  0  0  0
    3.5628    2.6281   -0.3939 C   0  0  1  0  0  0  0  0  0  0  0  0
    6.0493   -1.3205   -1.7048 C   0  0  0  0  0  0  0  0  0  0  0  0
    5.5231   -3.6450   -1.3555 N   0  0  0  0  0  0  0  0  0  0  0  0
    6.3496    0.4067    0.0244 N   0  0  0  0  0  0  0  0  0  0  0  0
    4.7446    1.8073   -0.6102 N   0  0  0  0  0  0  0  0  0  0  0  0
    5.8185    0.0170   -1.2070 N   0  0  0  0  0  0  0  0  0  0  0  0
    1.2455    1.8163   -0.8013 N   0  0  0  0  0  0  0  0  0  0  0  0
    4.0023    0.7099   -2.5555 O   0  0  0  0  0  0  0  0  0  0  0  0
    2.4886    0.8667    0.8487 O   0  0  0  0  0  0  0  0  0  0  0  0
   -0.3416    1.8522   -2.9319 S   0  0  0  0  0  0  0  0  0  0  0  0
    2.9057   -5.7958    0.7562 Cl  0  0  0  0  0  0  0  0  0  0  0  0
    2.6486   -2.9282    1.1523 H   0  0  0  0  0  0  0  0  0  0  0  0
    3.9417   -1.0604    0.1599 H   0  0  0  0  0  0  0  0  0  0  0  0
    5.0969   -5.6598   -1.1124 H   0  0  0  0  0  0  0  0  0  0  0  0
    6.2783    1.7144    2.3704 H   0  0  0  0  0  0  0  0  0  0  0  0
    6.5788    3.1169    1.3443 H   0  0  0  0  0  0  0  0  0  0  0  0
    3.8543    2.1812    2.3912 H   0  0  0  0  0  0  0  0  0  0  0  0
    4.6763    3.7053    2.7501 H   0  0  0  0  0  0  0  0  0  0  0  0
    2.8711    4.0609    1.0621 H   0  0  0  0  0  0  0  0  0  0  0  0
    4.4569    4.4188    0.3835 H   0  0  0  0  0  0  0  0  0  0  0  0
   -0.0817    0.9807    0.5956 H   0  0  0  0  0  0  0  0  0  0  0  0
    0.3597   -0.0989   -0.7395 H   0  0  0  0  0  0  0  0  0  0  0  0
   -1.8291    0.6731   -1.4372 H   0  0  0  0  0  0  0  0  0  0  0  0
   -1.5233    2.3267   -0.8484 H   0  0  0  0  0  0  0  0  0  0  0  0
    1.1315    3.5611   -2.0082 H   0  0  0  0  0  0  0  0  0  0  0  0
    2.0358    2.1874   -2.7381 H   0  0  0  0  0  0  0  0  0  0  0  0
    3.3741    3.1923   -1.3071 H   0  0  0  0  0  0  0  0  0  0  0  0
    7.1084   -1.5593   -1.5903 H   0  0  0  0  0  0  0  0  0  0  0  0
    5.8153   -1.3193   -2.7725 H   0  0  0  0  0  0  0  0  0  0  0  0
  1  2  1  0  0  0  0
  1  4  2  0  0  0  0
  1 26  1  0  0  0  0
  2  5  2  0  0  0  0
  2 27  1  0  0  0  0
  3  4  1  0  0  0  0
  3 17  2  0  0  0  0
  3 28  1  0  0  0  0
  4 25  1  0  0  0  0
  5 16  1  0  0  0  0
  5 17  1  0  0  0  0
  6  9  1  0  0  0  0
  6 18  2  0  0  0  0
  6 19  1  0  0  0  0
  7 19  1  0  0  0  0
  7 20  1  0  0  0  0
  7 22  2  0  0  0  0
  8 15  1  0  0  0  0
  8 21  1  0  0  0  0
  8 23  2  0  0  0  0
  9 10  1  0  0  0  0
  9 29  1  0  0  0  0
  9 30  1  0  0  0  0
 10 11  1  0  0  0  0
 10 31  1  0  0  0  0
 10 32  1  0  0  0  0
 11 15  1  0  0  0  0
 11 33  1  0  0  0  0
 11 34  1  0  0  0  0
 12 13  1  0  0  0  0
 12 21  1  0  0  0  0
 12 35  1  0  0  0  0
 12 36  1  0  0  0  0
 13 24  1  0  0  0  0
 13 37  1  0  0  0  0
 13 38  1  0  0  0  0
 14 21  1  0  0  0  0
 14 24  1  0  0  0  0
 14 39  1  0  0  0  0
 14 40  1  0  0  0  0
 15 19  1  0  0  0  0
 15 41  1  0  0  0  0
 16 20  1  0  0  0  0
 16 42  1  0  0  0  0
 16 43  1  0  0  0  0
 18 20  1  0  0  0  0
M  END
$$$$
