
  -OEChem-05262117483D

 61 63  0     1  0  0  0  0  0999 V2000
    6.4989   -2.6051   -5.4062 C   0  0  0  0  0  0  0  0  0  0  0  0
    8.9069   -2.3860   -5.5832 C   0  0  0  0  0  0  0  0  0  0  0  0
    6.4404   -2.9619   -6.7590 C   0  0  0  0  0  0  0  0  0  0  0  0
    8.8478   -2.7404   -6.9276 C   0  0  0  0  0  0  0  0  0  0  0  0
    7.7352   -2.3156   -4.8110 C   0  0  0  0  0  0  0  0  0  0  0  0
    7.6094   -3.0281   -7.5117 C   0  0  0  0  0  0  0  0  0  0  0  0
    3.6927    3.3021    0.7377 C   0  0  0  0  0  0  0  0  0  0  0  0
    3.1150    3.5106    2.1414 C   0  0  0  0  0  0  0  0  0  0  0  0
    3.1203    2.0425    0.0854 C   0  0  0  0  0  0  0  0  0  0  0  0
    2.6833    1.0538    2.2462 C   0  0  0  0  0  0  0  0  0  0  0  0
    3.5455   -2.2210   -1.2884 C   0  0  0  0  0  0  0  0  0  0  0  0
    3.6532   -0.7234   -0.9745 C   0  0  1  0  0  0  0  0  0  0  0  0
    3.2563    2.2533    3.0254 C   0  0  0  0  0  0  0  0  0  0  0  0
    5.8926   -1.3746   -0.3583 C   0  0  2  0  0  0  0  0  0  0  0  0
    4.7307    1.9902    3.3807 C   0  0  0  0  0  0  0  0  0  0  0  0
    2.4473    2.4382    4.3179 C   0  0  0  0  0  0  0  0  0  0  0  0
    6.1988   -0.9919    1.0923 C   0  0  0  0  0  0  0  0  0  0  0  0
    7.8859   -0.1202   -1.3195 C   0  0  0  0  0  0  0  0  0  0  0  0
    8.1405   -2.5505   -0.7034 C   0  0  0  0  0  0  0  0  0  0  0  0
    2.9059   -0.3731    0.3265 C   0  0  0  0  0  0  0  0  0  0  0  0
    6.7366   -1.8825   -2.6757 C   0  0  0  0  0  0  0  0  0  0  0  0
    7.1724   -1.4880   -1.2528 C   0  0  0  0  0  0  0  0  0  0  0  0
    3.3251    0.8742    0.9434 N   0  0  1  0  0  0  0  0  0  0  0  0
    5.0430   -0.4018   -0.9685 O   0  0  0  0  0  0  0  0  0  0  0  0
    7.9029   -1.9605   -3.5053 O   0  0  0  0  0  0  0  0  0  0  0  0
    4.8927   -2.9848   -0.3228 S   0  0  0  0  0  0  0  0  0  0  0  0
    7.5321   -3.4783   -9.2114 Cl  0  0  0  0  0  0  0  0  0  0  0  0
    5.5786   -2.5600   -4.8364 H   0  0  0  0  0  0  0  0  0  0  0  0
    9.8579   -2.1595   -5.1103 H   0  0  0  0  0  0  0  0  0  0  0  0
    5.4835   -3.1872   -7.2196 H   0  0  0  0  0  0  0  0  0  0  0  0
    9.7553   -2.7943   -7.5208 H   0  0  0  0  0  0  0  0  0  0  0  0
    3.4699    4.1688    0.1046 H   0  0  0  0  0  0  0  0  0  0  0  0
    4.7829    3.2105    0.7826 H   0  0  0  0  0  0  0  0  0  0  0  0
    3.5939    4.3671    2.6316 H   0  0  0  0  0  0  0  0  0  0  0  0
    2.0475    3.7560    2.0527 H   0  0  0  0  0  0  0  0  0  0  0  0
    2.0408    2.1902   -0.1285 H   0  0  0  0  0  0  0  0  0  0  0  0
    3.6239    1.8715   -0.8688 H   0  0  0  0  0  0  0  0  0  0  0  0
    2.8320    0.1379    2.8308 H   0  0  0  0  0  0  0  0  0  0  0  0
    1.5876    1.1886    2.1343 H   0  0  0  0  0  0  0  0  0  0  0  0
    2.5897   -2.6415   -0.9657 H   0  0  0  0  0  0  0  0  0  0  0  0
    3.6766   -2.4108   -2.3572 H   0  0  0  0  0  0  0  0  0  0  0  0
    3.2404   -0.1413   -1.8038 H   0  0  0  0  0  0  0  0  0  0  0  0
    4.8165    1.1298    4.0549 H   0  0  0  0  0  0  0  0  0  0  0  0
    5.1684    2.8574    3.8887 H   0  0  0  0  0  0  0  0  0  0  0  0
    5.3254    1.7715    2.4917 H   0  0  0  0  0  0  0  0  0  0  0  0
    2.5154    1.5516    4.9595 H   0  0  0  0  0  0  0  0  0  0  0  0
    1.3875    2.6189    4.1039 H   0  0  0  0  0  0  0  0  0  0  0  0
    2.8230    3.2930    4.8916 H   0  0  0  0  0  0  0  0  0  0  0  0
    5.2700   -0.8102    1.6292 H   0  0  0  0  0  0  0  0  0  0  0  0
    6.7859   -0.0714    1.1292 H   0  0  0  0  0  0  0  0  0  0  0  0
    6.7501   -1.7856    1.6020 H   0  0  0  0  0  0  0  0  0  0  0  0
    8.6876   -0.1634   -2.0604 H   0  0  0  0  0  0  0  0  0  0  0  0
    7.1905    0.6728   -1.6068 H   0  0  0  0  0  0  0  0  0  0  0  0
    8.3356    0.1446   -0.3592 H   0  0  0  0  0  0  0  0  0  0  0  0
    8.9889   -2.6601   -1.3829 H   0  0  0  0  0  0  0  0  0  0  0  0
    7.6550   -3.5274   -0.6113 H   0  0  0  0  0  0  0  0  0  0  0  0
    8.5320   -2.2649    0.2764 H   0  0  0  0  0  0  0  0  0  0  0  0
    3.0627   -1.1767    1.0532 H   0  0  0  0  0  0  0  0  0  0  0  0
    1.8237   -0.3751    0.0785 H   0  0  0  0  0  0  0  0  0  0  0  0
    6.0514   -1.1299   -3.0787 H   0  0  0  0  0  0  0  0  0  0  0  0
    6.2381   -2.8573   -2.6604 H   0  0  0  0  0  0  0  0  0  0  0  0
  1  3  1  0  0  0  0
  1  5  2  0  0  0  0
  1 28  1  0  0  0  0
  2  4  2  0  0  0  0
  2  5  1  0  0  0  0
  2 29  1  0  0  0  0
  3  6  2  0  0  0  0
  3 30  1  0  0  0  0
  4  6  1  0  0  0  0
  4 31  1  0  0  0  0
  5 25  1  0  0  0  0
  6 27  1  0  0  0  0
  7  8  1  0  0  0  0
  7  9  1  0  0  0  0
  7 32  1  0  0  0  0
  7 33  1  0  0  0  0
  8 13  1  0  0  0  0
  8 34  1  0  0  0  0
  8 35  1  0  0  0  0
  9 23  1  0  0  0  0
  9 36  1  0  0  0  0
  9 37  1  0  0  0  0
 10 13  1  0  0  0  0
 10 23  1  0  0  0  0
 10 38  1  0  0  0  0
 10 39  1  0  0  0  0
 11 12  1  0  0  0  0
 11 26  1  0  0  0  0
 11 40  1  0  0  0  0
 11 41  1  0  0  0  0
 12 20  1  0  0  0  0
 12 24  1  0  0  0  0
 12 42  1  0  0  0  0
 13 15  1  0  0  0  0
 13 16  1  0  0  0  0
 14 17  1  0  0  0  0
 14 22  1  0  0  0  0
 14 24  1  0  0  0  0
 14 26  1  0  0  0  0
 15 43  1  0  0  0  0
 15 44  1  0  0  0  0
 15 45  1  0  0  0  0
 16 46  1  0  0  0  0
 16 47  1  0  0  0  0
 16 48  1  0  0  0  0
 17 49  1  0  0  0  0
 17 50  1  0  0  0  0
 17 51  1  0  0  0  0
 18 22  1  0  0  0  0
 18 52  1  0  0  0  0
 18 53  1  0  0  0  0
 18 54  1  0  0  0  0
 19 22  1  0  0  0  0
 19 55  1  0  0  0  0
 19 56  1  0  0  0  0
 19 57  1  0  0  0  0
 20 23  1  0  0  0  0
 20 58  1  0  0  0  0
 20 59  1  0  0  0  0
 21 22  1  0  0  0  0
 21 25  1  0  0  0  0
 21 60  1  0  0  0  0
 21 61  1  0  0  0  0
M  END
$$$$
