56
1 1 C21H31N2OS
C                     0.955656957731     2.512571105429     1.997996873269
C                     0.980557174417     1.917874426974     0.713847785574
C                     0.406793598101     1.874232441562     3.114144605782
C                    -0.062731084893    -0.008842244268     1.639109121831
C                     0.461972932606     0.638620313146     0.520109494577
C                    -0.617933378953    -1.318241668166     1.725101810301
C                    -0.115043099141     0.590024498777     2.917527050998
C                    -1.010308977729    -1.498248059260     3.034728870360
C                    -0.538104112708    -2.189211999701     0.506404185828
C                    -0.029734795557     0.873044171732    -1.956634980164
C                    -0.259565676418    -1.236338376512    -3.268528680844
C                     0.379590841412    -0.094808008201    -0.812633925791
C                    -0.798815129697     0.175654480048    -3.092590990445
C                    -0.629300094855    -1.269203308188    -0.731629124122
C                    -1.118718512445    -4.661431977539    -3.617477743418
C                    -1.884472486264    -3.660370191646     5.858785847773
C                    -1.419349028341     1.296523743305    -7.085832047094
C                    -1.678568437652    -2.641935803682     3.730310395265
C                    -0.708276306269     0.961375886974    -4.405901245601
C                     0.288191157789    -4.140764693140    -3.297022603469
C                     0.362522373359    -3.302844748727    -2.019534682083
N                    -0.729419179547    -0.335483153595     3.746094100427
N                    -0.555807461118    -2.094772409965    -2.048504472606
O                    -1.225269936636    -2.668308831672     5.074585195607
S                    -1.852691780483     0.253567886661    -5.652557175401
H                     1.372004437612     3.508500380389     2.117772414789
H                     1.406013826134     2.480876433279    -0.112608121957
H                     0.391005918819     2.365053438057     4.083072036764
H                     0.420552449000    -2.719452793063     0.512603174053
H                    -1.334561429842    -2.942271266241     0.468813929206
H                    -0.647489556035     1.675403963224    -1.546061696793
H                     0.871700850091     1.344529138784    -2.361134166423
H                    -0.693523284853    -1.736428774410    -4.133101101149
H                     0.826040439919    -1.219229574572    -3.389076053784
H                     1.367260713176    -0.521164663351    -1.038383141115
H                    -1.862035615953     0.111473809438    -2.827688186141
H                    -1.636206039778    -0.843829107572    -0.741378219376
H                    -1.550675656394    -5.200955295900    -2.767212353977
H                    -1.812407281595    -3.861661778228    -3.905576411615
H                    -1.084300403321    -5.354212498676    -4.461609291641
H                    -1.473774147735    -3.591098434095     6.866971295566
H                    -1.697423074586    -4.667061295913     5.460452465036
H                    -2.968440693299    -3.483118839988     5.893358439600
H                    -2.050652048355     0.972683731911    -7.915649441728
H                    -0.370839276951     1.165534418098    -7.364377891864
H                    -1.624708569479     2.348718155614    -6.875255294919
H                    -2.774558624853    -2.516487831721     3.708171356472
H                    -1.444312524038    -3.585033994468     3.212914923600
H                     0.317743964012     0.941621040228    -4.792197381409
H                    -0.977332347328     2.005246537554    -4.216612604681
H                     0.702322925063    -3.596888415962    -4.150337106706
H                     0.959870425436    -4.989091336035    -3.128541644397
H                     0.057410012244    -3.912250981982    -1.170926924378
H                     1.370560450590    -2.925925786553    -1.834992242148
H                    -0.803395327792    -0.292995700563     4.754957291932
H                    -1.500024904039    -2.467666503192    -2.181815546949
