
  -OEChem-05262117483D

 56 59  0     1  0  0  0  0  0999 V2000
    0.1580    2.5840    2.3141 C   0  0  0  0  0  0  0  0  0  0  0  0
    0.0809    2.4253    0.9063 C   0  0  0  0  0  0  0  0  0  0  0  0
    0.2254    1.5015    3.1947 C   0  0  0  0  0  0  0  0  0  0  0  0
    0.1365    0.0645    1.2326 C   0  0  0  0  0  0  0  0  0  0  0  0
    0.0734    1.1508    0.3524 C   0  0  0  0  0  0  0  0  0  0  0  0
    0.1058   -1.3283    0.9163 C   0  0  0  0  0  0  0  0  0  0  0  0
    0.2070    0.2180    2.6297 C   0  0  0  0  0  0  0  0  0  0  0  0
    0.1471   -2.0048    2.1171 C   0  0  0  0  0  0  0  0  0  0  0  0
   -0.0509   -1.7546   -0.5222 C   0  0  0  0  0  0  0  0  0  0  0  0
   -0.4146    1.7707   -2.1298 C   0  0  0  0  0  0  0  0  0  0  0  0
   -0.0410   -0.2551   -3.6276 C   0  0  0  0  0  0  0  0  0  0  0  0
    0.0665    0.7437   -1.1095 C   0  0  2  0  0  0  0  0  0  0  0  0
   -0.0831    1.2837   -3.5656 C   0  0  2  0  0  0  0  0  0  0  0  0
   -0.7529   -0.5743   -1.2217 C   0  0  1  0  0  0  0  0  0  0  0  0
   -3.1102   -4.1431   -2.7299 C   0  0  0  0  0  0  0  0  0  0  0  0
   -0.4292   -5.5800    1.5316 C   0  0  0  0  0  0  0  0  0  0  0  0
    2.8506    3.9851   -4.8218 C   0  0  0  0  0  0  0  0  0  0  0  0
    0.1437   -3.4711    2.4214 C   0  0  0  0  0  0  0  0  0  0  0  0
    1.2573    1.8285   -4.0814 C   0  0  0  0  0  0  0  0  0  0  0  0
   -2.7696   -2.6926   -2.3662 C   0  0  0  0  0  0  0  0  0  0  0  0
   -1.4748   -2.2553   -3.0477 C   0  0  0  0  0  0  0  0  0  0  0  0
    0.2222   -1.0687    3.1516 N   0  0  0  0  0  0  0  0  0  0  0  0
   -1.0945   -0.8305   -2.7104 N   0  3  2  0  0  0  0  0  0  0  0  0
   -0.4412   -4.1679    1.3319 O   0  0  0  0  0  0  0  0  0  0  0  0
    1.1071    3.6197   -4.4275 S   0  0  0  0  0  0  0  0  0  0  0  0
    0.1652    3.5899    2.7235 H   0  0  0  0  0  0  0  0  0  0  0  0
    0.0338    3.3127    0.2815 H   0  0  0  0  0  0  0  0  0  0  0  0
    0.2827    1.6637    4.2675 H   0  0  0  0  0  0  0  0  0  0  0  0
    0.9225   -1.9443   -0.9957 H   0  0  0  0  0  0  0  0  0  0  0  0
   -0.6262   -2.6773   -0.5711 H   0  0  0  0  0  0  0  0  0  0  0  0
   -1.4903    1.9503   -2.0084 H   0  0  0  0  0  0  0  0  0  0  0  0
    0.0693    2.7352   -1.9654 H   0  0  0  0  0  0  0  0  0  0  0  0
   -0.2430   -0.6169   -4.6370 H   0  0  0  0  0  0  0  0  0  0  0  0
    0.9176   -0.6657   -3.3056 H   0  0  0  0  0  0  0  0  0  0  0  0
    1.1079    0.4951   -1.3583 H   0  0  0  0  0  0  0  0  0  0  0  0
   -0.8690    1.6235   -4.2510 H   0  0  0  0  0  0  0  0  0  0  0  0
   -1.7256   -0.4192   -0.7484 H   0  0  0  0  0  0  0  0  0  0  0  0
   -3.2237   -4.2711   -3.8111 H   0  0  0  0  0  0  0  0  0  0  0  0
   -2.3293   -4.8288   -2.3857 H   0  0  0  0  0  0  0  0  0  0  0  0
   -4.0490   -4.4421   -2.2576 H   0  0  0  0  0  0  0  0  0  0  0  0
   -0.8930   -6.0306    0.6522 H   0  0  0  0  0  0  0  0  0  0  0  0
   -1.0049   -5.8589    2.4246 H   0  0  0  0  0  0  0  0  0  0  0  0
    0.5970   -5.9586    1.6343 H   0  0  0  0  0  0  0  0  0  0  0  0
    2.9035    5.0502   -5.0564 H   0  0  0  0  0  0  0  0  0  0  0  0
    3.1852    3.4159   -5.6927 H   0  0  0  0  0  0  0  0  0  0  0  0
    3.4986    3.7794   -3.9659 H   0  0  0  0  0  0  0  0  0  0  0  0
    1.1721   -3.8311    2.5916 H   0  0  0  0  0  0  0  0  0  0  0  0
   -0.4230   -3.6626    3.3477 H   0  0  0  0  0  0  0  0  0  0  0  0
    1.5525    1.3081   -4.9999 H   0  0  0  0  0  0  0  0  0  0  0  0
    2.0416    1.6641   -3.3320 H   0  0  0  0  0  0  0  0  0  0  0  0
   -2.6861   -2.5991   -1.2802 H   0  0  0  0  0  0  0  0  0  0  0  0
   -3.5859   -2.0307   -2.6842 H   0  0  0  0  0  0  0  0  0  0  0  0
   -0.6292   -2.8892   -2.7802 H   0  0  0  0  0  0  0  0  0  0  0  0
   -1.5914   -2.2901   -4.1340 H   0  0  0  0  0  0  0  0  0  0  0  0
    0.2433   -1.3015    4.1355 H   0  0  0  0  0  0  0  0  0  0  0  0
   -1.9382   -0.2765   -2.8849 H   0  0  0  0  0  0  0  0  0  0  0  0
  1  2  1  0  0  0  0
  1  3  2  0  0  0  0
  1 26  1  0  0  0  0
  2  5  2  0  0  0  0
  2 27  1  0  0  0  0
  3  7  1  0  0  0  0
  3 28  1  0  0  0  0
  4  5  1  0  0  0  0
  4  6  1  0  0  0  0
  4  7  2  0  0  0  0
  5 12  1  0  0  0  0
  6  8  2  0  0  0  0
  6  9  1  0  0  0  0
  7 22  1  0  0  0  0
  8 18  1  0  0  0  0
  8 22  1  0  0  0  0
  9 14  1  0  0  0  0
  9 29  1  0  0  0  0
  9 30  1  0  0  0  0
 10 12  1  0  0  0  0
 10 13  1  0  0  0  0
 10 31  1  0  0  0  0
 10 32  1  0  0  0  0
 11 13  1  0  0  0  0
 11 23  1  0  0  0  0
 11 33  1  0  0  0  0
 11 34  1  0  0  0  0
 12 14  1  0  0  0  0
 12 35  1  0  0  0  0
 13 19  1  0  0  0  0
 13 36  1  0  0  0  0
 14 23  1  0  0  0  0
 14 37  1  0  0  0  0
 15 20  1  0  0  0  0
 15 38  1  0  0  0  0
 15 39  1  0  0  0  0
 15 40  1  0  0  0  0
 16 24  1  0  0  0  0
 16 41  1  0  0  0  0
 16 42  1  0  0  0  0
 16 43  1  0  0  0  0
 17 25  1  0  0  0  0
 17 44  1  0  0  0  0
 17 45  1  0  0  0  0
 17 46  1  0  0  0  0
 18 24  1  0  0  0  0
 18 47  1  0  0  0  0
 18 48  1  0  0  0  0
 19 25  1  0  0  0  0
 19 49  1  0  0  0  0
 19 50  1  0  0  0  0
 20 21  1  0  0  0  0
 20 51  1  0  0  0  0
 20 52  1  0  0  0  0
 21 23  1  0  0  0  0
 21 53  1  0  0  0  0
 21 54  1  0  0  0  0
 22 55  1  0  0  0  0
 23 56  1  0  0  0  0
M  CHG  1  23   1
M  END
$$$$
