43
0 1 C16ClH18N5O2S
C                     3.452504398445    -3.126967569742     0.450082394767
C                     4.184367995698    -2.081167840682    -0.112642825398
C                     4.823853550626    -4.648305609826    -0.818110137322
C                     3.781509433421    -4.431343403252     0.087674646483
C                     5.211724586606    -2.385510153704    -1.013466562270
C                     5.679921537519     1.473658765936     0.353658210572
C                     4.769595757066     0.817123105405    -1.598074350202
C                     2.385486488899     1.682329411215    -0.074704735304
C                     5.854062898834     2.323421913287     1.569095658918
C                     4.507547530432     2.950992276010     1.975118743249
C                     3.823465973541     3.609834455957     0.766842729472
C                     0.111503279317     0.935662414876    -0.478701488969
C                    -1.066375895878     1.441927866314    -1.300956898929
C                     1.181426318832     2.473618196323    -2.121035501390
C                     3.562805228387     2.628089321037    -0.393925839290
C                     6.049287542781    -1.320537619913    -1.704760354742
N                     5.523073264107    -3.644950592156    -1.355455087112
N                     6.349582877833     0.406689583028     0.024372701091
N                     4.744637923566     1.807275675555    -0.610225600665
N                     5.818462269148     0.016989684149    -1.206983815947
N                     1.245486389955     1.816301311476    -0.801322392489
O                     4.002332458714     0.709902272042    -2.555515767572
O                     2.488569182934     0.866659929149     0.848657495070
S                    -0.341591245051     1.852249753467    -2.931909108606
Cl                    2.905718742005    -5.795756735567     0.756156614840
H                     2.648621322726    -2.928195263565     1.152339061552
H                     3.941718950515    -1.060400045808     0.159894455567
H                     5.096914351897    -5.659812009748    -1.112440729733
H                     6.278315074427     1.714357084001     2.370407404361
H                     6.578843115157     3.116944350109     1.344339386420
H                     3.854268516416     2.181198388736     2.391153765155
H                     4.676272022148     3.705264744807     2.750056767480
H                     2.871079389182     4.060891420518     1.062051613174
H                     4.456910478474     4.418821816297     0.383546737401
H                    -0.081663457959     0.980684272199     0.595620198523
H                     0.359694878979    -0.098875084322    -0.739522230853
H                    -1.829067500013     0.673098637345    -1.437194667212
H                    -1.523254423602     2.326739304054    -0.848436029116
H                     1.131509567018     3.561076760988    -2.008157287385
H                     2.035756403097     2.187383332597    -2.738079783252
H                     3.374095565544     3.192295369541    -1.307125814013
H                     7.108435909857    -1.559270044640    -1.590293862965
H                     5.815329550645    -1.319267631650    -2.772513757109
