15   
torsion grid (-165,)
C        1.8716009336   -1.0773066230   -0.1320049936
C        3.0666071803   -1.0442940351    0.5962055589
C        0.6459102248   -1.0968393049    0.5383833647
C        3.0408367895   -1.0293299151    1.9905656188
C        0.6075964141   -1.0850381307    1.9355477729
C        1.8057280981   -1.0534809511    2.6608942727
O        2.3121749795    0.3504507628    5.0401339221
P        1.8490840760   -0.9289314897    4.4640429892
Cl      -0.0259702686   -1.5073796120    5.1114255047
Cl       3.0208912114   -2.5358101323    5.0508410946
H        1.8974157146   -1.0895395139   -1.2182723735
H        4.0213479758   -1.0289849500    0.0783392094
H       -0.2842244977   -1.1232926573   -0.0221435696
H        3.9726143302   -1.0027673444    2.5482468062
H       -0.3482037785   -1.1069784188    2.4477546336
15   
torsion grid (-150,)
C        1.8625094219   -1.0796415981   -0.1151172736
C        3.0701732112   -1.1530156335    0.5865947893
C        0.6518228374   -1.0086615647    0.5807179979
C        3.0720875796   -1.1565290426    1.9825093419
C        0.6421748607   -1.0120085806    1.9771738653
C        1.8544753234   -1.0950066282    2.6782615128
O        2.0332271045    0.4296957083    5.0349051041
P        1.8753174533   -0.9306163094    4.4796360645
Cl       0.1520241669   -1.8783530839    5.1227490528
Cl       3.3531500448   -2.2379305940    5.1064386540
H        1.8651087150   -1.0799278668   -1.2017360884
H        4.0128383265   -1.2083213510    0.0495916051
H       -0.2880986829   -0.9515351310    0.0391258720
H        4.0136389040   -1.2183272637    2.5191946947
H       -0.3024790079   -0.9618413820    2.5090459128
15   
torsion grid (-135,)
C        1.8531895779   -1.0571711086   -0.1046753449
C        3.0632126198   -1.2244016741    0.5742997731
C        0.6621383446   -0.9018251068    0.6132936311
C        3.0901588804   -1.2392110151    1.9712728796
C        0.6778185943   -0.9143292819    2.0082203073
C        1.8940339925   -1.0954205209    2.6878368709
O        1.7412690455    0.4265729085    5.0441633258
P        1.8823561718   -0.9357140498    4.4890440796
Cl       0.3673117603   -2.2081313214    5.1029894364
Cl       3.5792788074   -1.9184553852    5.1417720790
H        1.8368916002   -1.0481672086   -1.1911394982
H        3.9897878504   -1.3439713469    0.0200335691
H       -0.2798639512   -0.7690647580    0.0888536503
H        4.0333400410   -1.3737582964    2.4901707868
H       -0.2505414375   -0.7938470563    2.5586843939
15   
torsion grid (-120,)
C        1.8421807237   -1.0681388850   -0.1097296933
C        3.0458988887   -1.3044847851    0.5590469570
C        0.6715413155   -0.8235757737    0.6180640110
C        3.0869433637   -1.3026737026    1.9563200774
C        0.7019641584   -0.8140762004    2.0121686337
C        1.9121127123   -1.0675173333    2.6816704456
O        1.4698648218    0.3900580550    5.0320634086
P        1.8729370744   -0.9208274205    4.4818754244
Cl       0.6078220186   -2.4475944259    5.0851115275
Cl       3.7145197519   -1.5761029822    5.1479170700
H        1.8147805631   -1.0721522724   -1.1960212438
H        3.9569615615   -1.4897171324   -0.0028443614
H       -0.2647772013   -0.6347276357    0.1006898265
H        4.0244739069   -1.4901505195    2.4683489429
H       -0.2072171725   -0.6144976304    2.5723283175
15   
torsion grid (-105,)
C        1.8615040456   -1.0663206922   -0.0920272210
C        3.0339470964   -1.3874117302    0.5976530128
C        0.6964979436   -0.7436728868    0.6136787322
C        3.0486335105   -1.3956257201    1.9951519070
C        0.7008888043   -0.7435433546    2.0083946374
C        1.8773410290   -1.0861888658    2.6979546067
O        1.1281624196    0.2093794720    5.0557821658
P        1.7772990228   -0.9950107237    4.4974458254
Cl       0.7878095214   -2.7356378391    5.0365258651
Cl       3.6885967082   -1.3220778901    5.2025464637
H        1.8556732004   -1.0617032457   -1.1786656261
H        3.9409457845   -1.6295373372    0.0510123705
H       -0.2129879784   -0.4837586638    0.0794948741
H        3.9612063935   -1.6472251462    2.5248083870
H       -0.1973994939   -0.4744310987    2.5566498971
15   
torsion grid (-90,)
C        1.8628634195   -1.0613260522   -0.0980597737
C        3.0058607677   -1.4619303003    0.6016451179
C        0.7157689542   -0.6630747440    0.5968407602
C        3.0067015146   -1.4735895142    1.9980033719
C        0.7058143582   -0.6661972232    1.9926291382
C        1.8510509304   -1.0867379131    2.6897722188
O        0.8867244748    0.0376242014    5.0495402503
P        1.7353187828   -1.0338007341    4.4878700438
Cl       1.0734547440   -2.9239412295    5.0223768929
Cl       3.6780280575   -1.0272974339    5.1865608162
H        1.8685457458   -1.0529508719   -1.1847072249
H        3.8998407415   -1.7616303591    0.0621733517
H       -0.1683519680   -0.3406558062    0.0541450973
H        3.8959646564   -1.7834149501    2.5371270737
H       -0.1740567216   -0.3370524200    2.5374910343
15   
torsion grid (-75,)
C        1.8648280567   -1.0631352160   -0.0869127367
C        2.9767449239   -1.5384796724    0.6188347873
C        0.7463389346   -0.5805452718    0.5993903130
C        2.9722032127   -1.5379767996    2.0140754250
C        0.7326562688   -0.5730908924    1.9963290269
C        1.8448118747   -1.0623246569    2.6989705771
O        0.7211944150   -0.0989782864    5.0574303254
P        1.7311845406   -1.0200793325    4.4958515564
Cl       1.4189100906   -2.9919605286    5.0500637091
Cl       3.6539115515   -0.6778319583    5.1683384114
H        1.8739254797   -1.0647275706   -1.1735758262
H        3.8478619666   -1.9053213407    0.0833784014
H       -0.1123376177   -0.2036003431    0.0509671747
H        3.8363566424   -1.9040056903    2.5600179806
H       -0.1236724208   -0.1862352132    2.5403163582
15   
torsion grid (-60,)
C        1.8753169885   -1.0548737950   -0.0607399140
C        2.9411034537   -1.6155089262    0.6552546365
C        0.7893099409   -0.4918676572    0.6153624818
C        2.9232521464   -1.6160990629    2.0495793992
C        0.7600812468   -0.4859823509    2.0128447333
C        1.8291718366   -1.0521720890    2.7224194453
O        0.5718884081   -0.2590417763    5.0759560528
P        1.7161991029   -1.0093879171    4.5181559214
Cl       1.7671018548   -2.9940330801    5.1044375595
Cl       3.5614248147   -0.3305048382    5.1613735469
H        1.8949973862   -1.0561893590   -1.1473054966
H        3.7851412367   -2.0497215354    0.1269261776
H       -0.0347761986   -0.0548408219    0.0585316573
H        3.7505210671   -2.0488016237    2.6048883494
H       -0.0741272712   -0.0474387249    2.5518717111
15   
torsion grid (-45,)
C        1.8836435738   -1.0352910211   -0.0741169641
C        2.9006772774   -1.6819220049    0.6401592517
C        0.8317751302   -0.4138317085    0.6048210871
C        2.8701426258   -1.7076568824    2.0339826021
C        0.7885053980   -0.4326011057    2.0017687881
C        1.8135921440   -1.0781373540    2.7086690513
O        0.4344239367   -0.5146260935    5.0611487455
P        1.6904119465   -1.0579719418    4.5039679483
Cl       2.1119773223   -2.9943320035    5.0974404429
Cl       3.3840662837   -0.0507206707    5.1410727130
H        1.9121081239   -1.0196697407   -1.1603756733
H        3.7153597510   -2.1675373773    0.1105549673
H        0.0415871305    0.0837602537    0.0497456400
H        3.6576266883   -2.2112241717    2.5873039926
H       -0.0263335700    0.0400696250    2.5416651430
15   
torsion grid (-30,)
C        1.7618912598   -1.0618306253    0.1507963653
C        2.6401812836   -1.2665686109    1.2215443467
C        0.6694794563   -0.2001570669    0.2900969895
C        2.4334539982   -0.6067662223    2.4336034092
C        0.4501801221    0.4635994272    1.4994025801
C        1.3428931641    0.2647761757    2.5644543380
O       -0.4169093930    1.6241687682    4.2438155447
P        0.9778577521    1.1644243068    4.0813910878
Cl       1.6704351425   -0.0293210034    5.6191424260
Cl       2.3529491578    2.7158758388    4.1113688322
H        1.9265392775   -1.5799925013   -0.7901329959
H        3.4834525828   -1.9429833679    1.1145730944
H       -0.0168072297   -0.0484446844   -0.5382255910
H        3.1146364657   -0.7684939581    3.2633408590
H       -0.4048825002    1.1210839136    1.6240578633
15   
torsion grid (-15,)
C        7.8323368764    1.2565280469    2.9368401525
C        6.9735926706    0.2215143935    2.5530473858
C        9.0008123411    1.5072578470    2.2092251609
C        7.2730448259   -0.5621638851    1.4365180145
C        9.3134040413    0.7274885927    1.0947119819
C        8.4364857044   -0.2979519339    0.7016832901
O       10.4012288311   -1.4658440548   -0.8977431961
P        8.9478954820   -1.2530547291   -0.7392532319
Cl       7.8242042279   -2.9859670243   -0.7054198153
Cl       8.1076880835   -0.2464575709   -2.3465499383
H        7.5948728570    1.8626868740    3.8069422779
H        6.0717767340    0.0193609291    3.1239436472
H        9.6746070454    2.3031171641    2.5137309818
H        6.6046078149   -1.3647854900    1.1430035387
H       10.2304048623    0.9039895377    0.5402328561
15   
torsion grid (0,)
C        1.7633934087   -1.0625700081    0.1235802349
C        2.5631727907   -1.4100251618    1.2156818195
C        0.7958612320   -0.0591756795    0.2524172689
C        2.4072327604   -0.7540744139    2.4399931916
C        0.6276411905    0.5987442657    1.4705405876
C        1.4481190339    0.2592830714    2.5609087279
O       -0.3215414336    1.1990241485    4.5122184659
P        1.0959004020    1.1318714876    4.1009681318
Cl       2.3582249698    0.3272048022    5.5229577913
Cl       1.9269275818    3.0106304160    3.8097096232
H        1.8893197909   -1.5755999718   -0.8260428870
H        3.3089011928   -2.1940753007    1.1196510335
H        0.1664177161    0.2059284006   -0.5923167584
H        3.0327034408   -1.0270065851    3.2830466336
H       -0.1354261346    1.3648526571    1.5749825548
15   
torsion grid (15,)
C        1.7579384086   -1.0618422470    0.0973309977
C        2.5056252586   -1.4835603897    1.1997116725
C        0.8527457834   -0.0018337390    0.2267952138
C        2.3573865505   -0.8477012205    2.4356735160
C        0.6934212611    0.6362831554    1.4564478480
C        1.4583780050    0.2192002391    2.5598547869
O       -0.2724620100    0.8564987120    4.6711663365
P        1.0953929716    1.0214862731    4.1374622804
Cl       2.5835915359    0.4159282322    5.4358868695
Cl       1.5862087091    3.0097124250    3.8151919794
H        1.8779765426   -1.5582817039   -0.8617829301
H        3.2055644330   -2.3086705068    1.1030810770
H        0.2670945836    0.3253482020   -0.6276084354
H        2.9437931444   -1.1784898459    3.2859908344
H       -0.0157397718    1.4534671530    1.5538053151
15   
torsion grid (30,)
C        1.7624629061   -1.0687049282    0.1052902677
C        2.4502804501   -1.5253572254    1.2330771936
C        0.9270364986    0.0498044221    0.1990333639
C        2.3089319171   -0.8675931181    2.4575720936
C        0.7781242980    0.7136757373    1.4171591275
C        1.4802848273    0.2598339714    2.5459463360
O       -0.1355520729    0.6771965096    4.8085308904
P        1.1288632964    1.0438633556    4.1373841871
Cl       2.8065672391    0.7031543803    5.2972953051
Cl       1.2739209340    3.0734662101    3.7491512471
H        1.8772854595   -1.5820333352   -0.8455325803
H        3.0989053434   -2.3940195764    1.1640401421
H        0.3894837862    0.4064089038   -0.6749877717
H        2.8500700746   -1.2261653550    3.3269022653
H        0.1293708072    1.5820912557    1.4815118620
15   
torsion grid (45,)
C        1.7836206284   -1.0779270653    0.1048101662
C        2.3854158842   -1.5666153098    1.2691698519
C        1.0031074181    0.0808215147    0.1552977711
C        2.2102984281   -0.9006323802    2.4831609676
C        0.8215159269    0.7560043705    1.3644565752
C        1.4334471487    0.2680350407    2.5283103536
O       -0.0081278237    0.4378828080    4.9373534052
P        1.0864592393    1.0230598702    4.1353394937
Cl       2.9077750034    1.0030771881    5.1208366971
Cl       0.8220502014    3.0360845339    3.7402522016
H        1.9246242539   -1.5977178849   -0.8389663026
H        2.9927582179   -2.4666090319    1.2348788963
H        0.5340107887    0.4637547893   -0.7465463935
H        2.6846354471   -1.2847396110    3.3809704081
H        0.2181736164    1.6575150721    1.3923103294
15   
torsion grid (60,)
C        1.7795168878   -1.0679379108    0.1092286631
C        2.2961802098   -1.6149842102    1.2896607546
C        1.0823547658    0.1423871619    0.1446620864
C        2.1153590663   -0.9555596735    2.5051132208
C        0.8987267152    0.8140825389    1.3566430756
C        1.4164891678    0.2636934281    2.5360481378
O        0.2986759965    0.2530147375    5.1082398085
P        1.1501524186    1.0049079574    4.1630335743
Cl       3.0631363307    1.3090999889    4.8994859372
Cl       0.4971096775    2.9315977021    3.8066058411
H        1.9221957846   -1.5847298571   -0.8359332408
H        2.8387492658   -2.5557561770    1.2651720662
H        0.6806575835    0.5695608859   -0.7697870993
H        2.5160427312   -1.3860840603    3.4184099670
H        0.3622705491    1.7565358319    1.3747428795
15   
torsion grid (75,)
C        1.8109315544   -1.0877166367    0.0892494056
C        2.2043532164   -1.6857730788    1.2922266186
C        1.1945729891    0.1666249101    0.0964645535
C        1.9809075871   -1.0323768105    2.5039229105
C        0.9708229930    0.8330938947    1.3043883507
C        1.3576985634    0.2280295373    2.5067287247
O        0.5736315161    0.1391481729    5.1880120156
P        1.1526174110    0.9918269702    4.1290171753
Cl       3.0579385730    1.6490376453    4.6159634594
Cl       0.1267091152    2.7544742048    3.8156766236
H        1.9855783431   -1.6002208744   -0.8529044039
H        2.6825032877   -2.6611858104    1.2881420881
H        0.8891651396    0.6314786755   -0.8366614335
H        2.2761789649   -1.5005036386    3.4386896267
H        0.5003257661    1.8104205446    1.3035781907
15   
torsion grid (90,)
C        1.8162098869   -1.0880495015    0.0954454847
C        2.1285494291   -1.7228368000    1.3024011262
C        1.2874019802    0.2070128962    0.0986955583
C        1.9129239616   -1.0672624874    2.5158172535
C        1.0718552106    0.8748710592    1.3058864396
C        1.3776833599    0.2317982369    2.5129021751
O        0.8762864502    0.1135086562    5.2519350700
P        1.2086995970    1.0134770483    4.1279945867
Cl       3.0089615010    1.9995497620    4.4172261974
Cl      -0.1190849788    2.5733759546    3.8702503261
H        1.9828930251   -1.6027386208   -0.8470202974
H        2.5364782489   -2.7296730125    1.3011001576
H        1.0430139239    0.6996023612   -0.8381483634
H        2.1405585645   -1.5604019617    3.4562801546
H        0.6663672477    1.8813989845    1.3037947771
15   
torsion grid (105,)
C        1.8507026629   -1.0251265988   -0.1094378289
C        2.9526185919   -0.5214403523    0.5883917838
C        0.7789718308   -1.6008803315    0.5837841391
C        2.9897443947   -0.5889240721    1.9833555330
C        0.8029085389   -1.6717451520    1.9768810890
C        1.9125693332   -1.1687295402    2.6712861514
O        3.3627800118   -0.9595518294    5.0396097041
P        2.0126055890   -1.1462541946    4.4687691272
Cl       0.6800888021    0.3308926378    5.0480423226
Cl       1.0564732677   -2.8657440137    5.0998005181
H        1.8260701283   -0.9715330584   -1.1945558292
H        3.7850039516   -0.0776449353    0.0495858105
H       -0.0750093786   -1.9942522550    0.0396826115
H        3.8441084306   -0.2094276408    2.5356518405
H       -0.0293146786   -2.1173845713    2.5134280403
15   
torsion grid (120,)
C        1.8611711755   -1.0477617146   -0.1109249436
C        2.9909036729   -0.6007848461    0.5799991195
C        0.7504554398   -1.5357513778    0.5898625457
C        3.0184503572   -0.6385275563    1.9770503043
C        0.7658420095   -1.5778347855    1.9835870477
C        1.9031346833   -1.1293981580    2.6714235267
O        3.3149148791   -0.7386855848    5.0384499180
P        2.0082252106   -1.1271003396    4.4681497570
Cl       0.4433839098    0.0749182117    5.0942432617
Cl       1.3600034123   -3.0032645699    5.0512753012
H        1.8437669614   -1.0179509974   -1.1971254745
H        3.8517582182   -0.2236150699    0.0351540871
H       -0.1257210878   -1.8834306934    0.0499529608
H        3.8901780350   -0.2979483178    2.5273551443
H       -0.0951886780   -1.9566210245    2.5268670964
15   
torsion grid (135,)
C        1.8731480436   -1.0671455259   -0.1286403572
C        3.0238208413   -0.6767175600    0.5620504713
C        0.7282489466   -1.4664980902    0.5731561053
C        3.0385423723   -0.6829033332    1.9597594254
C        0.7310599178   -1.4773379041    1.9675545403
C        1.8879491098   -1.0821262436    2.6553550529
O        3.2238881790   -0.5102153784    5.0309862579
P        1.9956684617   -1.0928528069    4.4518289467
Cl       0.2467039239   -0.2015585143    5.1048170819
Cl       1.6816918614   -3.0671305285    4.9917318911
H        1.8652850379   -1.0602444122   -1.2153318037
H        3.9103726961   -0.3661605990    0.0163863401
H       -0.1650199210   -1.7684542589    0.0337515549
H        3.9238183230   -0.3784966034    2.5096824337
H       -0.1567363781   -1.7865661805    2.5116992878
15   
torsion grid (150,)
C        1.8811914927   -1.0887244895   -0.1321361738
C        3.0495678085   -0.7624049645    0.5632186522
C        0.7066387848   -1.3955214564    0.5653932958
C        3.0515361777   -0.7415987742    1.9599967161
C        0.6967621411   -1.3807787196    1.9605056804
C        1.8698922281   -1.0480324113    2.6529043603
O        3.1069806362   -0.3101156568    5.0394323941
P        1.9878280736   -1.0733112499    4.4493600985
Cl       0.1186714589   -0.5214486648    5.1365582486
Cl       2.0303050190   -3.0875545273    4.9372608620
H        1.8836413729   -1.1027394043   -1.2187531892
H        3.9596256311   -0.5216413182    0.0210541018
H       -0.2008319443   -1.6464394635    0.0235210284
H        3.9504479941   -0.4801846153    2.5101641532
H       -0.2141445685   -1.6208745702    2.5003277747
15   
torsion grid (165,)
C        1.8762738816   -1.1000235289   -0.1281456827
C        3.0604534454   -0.8501672989    0.5739238266
C        0.6772331320   -1.3016009986    0.5632503099
C        3.0512051467   -0.8004341471    1.9687149731
C        0.6554781757   -1.2600928220    1.9589574134
C        1.8427403417   -1.0016132287    2.6569574109
O        2.9267480232   -0.0469101875    5.0453219887
P        1.9587704870   -0.9943813777    4.4555524968
Cl       0.0236884904   -0.7931440648    5.1508246078
Cl       2.3708680195   -2.9680301332    4.9465880061
H        1.8875225668   -1.1360911815   -1.2141777133
H        3.9913081263   -0.6906377351    0.0371328726
H       -0.2425246774   -1.4932047681    0.0179223709
H        3.9648128767   -0.5931914961    2.5182956154
H       -0.2755175080   -1.4218221055    2.4922410870
15   
torsion grid (180,)
C        1.8766301096   -1.0997765280   -0.1402242200
C        3.0714627530   -0.9463173406    0.5729350283
C        0.6620685292   -1.2133352741    0.5415570724
C        3.0540031014   -0.9045667421    1.9667507793
C        0.6331086806   -1.1786141246    1.9385614864
C        1.8294081247   -1.0181691920    2.6485711825
O        2.6868602832    0.1463069114    5.0464983198
P        1.9309186303   -0.9743804000    4.4503994893
Cl      -0.0055260018   -1.1611514767    5.1429492196
Cl       2.7350900275   -2.8227630084    4.9429154733
H        1.8938760404   -1.1311487512   -1.2262896207
H        4.0165278989   -0.8568810745    0.0448062714
H       -0.2659336512   -1.3324854594   -0.0104153487
H        3.9805793983   -0.7758461050    2.5191326791
H       -0.3116766454   -1.2765108221    2.4621418279
