8
0 1 Br2C2ClF3
C                     0.286148983557     0.048349064327     0.660054990613
C                    -0.405833712975    -0.031430713266    -0.741992329529
F                     0.375498724625    -1.180427856687     1.195771910838
F                     1.533956826309     0.530538513753     0.496475911171
F                    -0.513013730900     1.223678954769    -1.230523544483
Cl                    0.612761333190    -0.990987484785    -1.844894671790
Br                   -0.674283353992     1.232626923351     1.888405019079
Br                   -2.195444707097    -0.816383797216    -0.596608442256
