
  -OEChem-05262117483D

  8  7  0     1  0  0  0  0  0999 V2000
   -6.3655    0.0359    5.3221 C   0  0  0  0  0  0  0  0  0  0  0  0
   -5.5413    0.7594    4.2001 C   0  0  1  0  0  0  0  0  0  0  0  0
   -5.4943   -0.5122    6.1924 F   0  0  0  0  0  0  0  0  0  0  0  0
   -7.0838    0.9598    5.9865 F   0  0  0  0  0  0  0  0  0  0  0  0
   -4.7682    1.6754    4.8349 F   0  0  0  0  0  0  0  0  0  0  0  0
   -4.4863   -0.3823    3.3461 Cl  0  0  0  0  0  0  0  0  0  0  0  0
   -7.5610   -1.3555    4.6502 Br  0  0  0  0  0  0  0  0  0  0  0  0
   -6.7276    1.7139    2.9664 Br  0  0  0  0  0  0  0  0  0  0  0  0
  1  2  1  0  0  0  0
  1  3  1  0  0  0  0
  1  4  1  0  0  0  0
  1  7  1  0  0  0  0
  2  5  1  0  0  0  0
  2  6  1  0  0  0  0
  2  8  1  0  0  0  0
M  END
$$$$
