30
0 1 C12FH10NO4S2
C                    -1.524152807753    -3.298924667451     6.298591531149
C                     4.938614275515    -0.305865337952     0.185527196389
C                    -0.764462924303    -2.285811510889     6.896944675961
C                    -1.236971833383    -3.731730902694     4.999523302728
C                     5.225163137123    -1.641456985863     0.491165628445
C                     4.682391221033     0.619225222235     1.203462776623
C                     0.291584675989    -1.698426040029     6.199496557821
C                    -0.183193318511    -3.155664468869     4.286133430069
C                     5.254446179387    -2.064883322209     1.820028359489
C                     4.702786356328     0.214902797040     2.538755513494
C                     0.558818765203    -2.146520749941     4.902798556460
C                     4.989159986194    -1.123947524134     2.818872257857
N                     3.264699755635    -2.335541944699     4.759704022095
O                     1.801917100117    -1.737001534656     2.593054953301
O                     2.136334728940    -0.038302111097     4.475021711388
O                     5.795208582062    -2.846094318930     4.672195823012
O                     4.986947686780    -0.533634211019     5.416643164374
F                     3.230255388738    -3.591567009931     4.097549579108
S                     1.904870119276    -1.401558926619     4.009165612908
S                     4.954785243143    -1.669671312416     4.509915423821
H                    -2.344509058913    -3.752367046459     6.848342463840
H                     4.915171195905     0.015415852915    -0.852335408979
H                    -0.994115197272    -1.953712710145     7.905197413927
H                    -1.831479182816    -4.516609923003     4.541077997702
H                     5.425518916142    -2.353142611564    -0.304445846543
H                     4.460495569408     1.654014170568     0.959505822337
H                     0.892239720500    -0.909236019364     6.640434886807
H                     0.058616335197    -3.469363936751     3.276020189698
H                     5.477527060961    -3.093597400832     2.082323103326
H                     4.488603647761     0.907279280792     3.345342679468
