8
0 1 C2H2N4
C                     0.414339818586     0.310367588244    -2.049465013911
C                     0.753627375319    -0.394001792095    -0.797792976289
N                     1.721122297133    -3.123086155445    -2.476986314017
N                     0.160102607422     0.843263067877    -3.050776682575
N                     0.515333760210    -1.848859537333    -0.859489704947
N                     1.181377041850    -2.451002913916    -1.727355083906
H                     1.794072471310    -0.164279366104    -0.537566156447
H                     0.115628522597    -0.020392357115     0.004490523725
