32
0 1 C13H17NO
C                     0.097822556142    -0.088454182724    -4.271425065918
C                     0.886064497624    -1.036830222964    -4.925382580370
C                    -0.678532525283    -0.474907134907    -3.175504931195
C                     0.880853239830    -2.361495652667    -4.477867155459
C                    -0.678795134765    -1.795461154022    -2.715186264759
C                     0.108019266522    -2.760316317655    -3.379531056889
C                    -3.764055364518    -1.343721667279    -1.817000174651
C                    -0.803594552429    -0.715859807289     0.309845062791
C                    -0.625036879201    -2.156608343980    -0.191392205001
C                    -2.279474984216    -0.417010380173     0.007970128474
C                    -1.477462243013    -2.192687101151    -1.481468733636
C                     0.109475758002    -4.210001800167    -2.946858073760
C                    -4.843884797212    -0.372136041581    -1.368309066148
N                    -2.564829545777    -1.255904799128    -1.164441561322
O                    -3.951382811195    -2.158910037301    -2.722411608060
H                     0.079848803468     0.942889652631    -4.614746000766
H                     1.492778420109    -0.753687690937    -5.781820234587
H                    -1.311585486706     0.257381973741    -2.682524992224
H                     1.484493425903    -3.103681216546    -4.996004893414
H                    -0.566504222796    -0.594783675189     1.369918251711
H                    -0.159578489146    -0.040753016515    -0.261323259147
H                     0.419605459922    -2.414392069060    -0.376495170604
H                    -1.032018425171    -2.866490422620     0.537601727739
H                    -2.919170437284    -0.700238929956     0.854713330276
H                    -2.454345514685     0.643210380396    -0.203438273314
H                    -1.916097640404    -3.178679200694    -1.644244929538
H                     0.412662337412    -4.331165119505    -1.901100107366
H                    -0.888053251417    -4.653653030208    -3.046407964861
H                     0.796755762497    -4.797947817863    -3.560737616606
H                    -4.532520466650     0.664903142880    -1.534203698061
H                    -5.066619464596    -0.481770050027    -0.301655754408
H                    -5.745680532077    -0.571375907574    -1.947067101646
