
  -OEChem-05262117483D

 16 16  0     0  0  0  0  0  0999 V2000
    1.3600   -0.4242   -1.7196 C   0  0  0  0  0  0  0  0  0  0  0  0
    0.3162   -0.6291   -0.7745 C   0  0  0  0  0  0  0  0  0  0  0  0
    1.4393   -1.6131   -2.4244 C   0  0  0  0  0  0  0  0  0  0  0  0
    0.2165   -3.7876   -2.2037 C   0  0  0  0  0  0  0  0  0  0  0  0
   -0.8951   -4.4505   -1.4321 C   0  0  0  0  0  0  0  0  0  0  0  0
   -0.2312   -1.8284   -0.8503 N   0  0  0  0  0  0  0  0  0  0  0  0
    0.4687   -2.4513   -1.8791 N   0  0  0  0  0  0  0  0  0  0  0  0
    2.2074   -1.9768   -3.5045 N   0  0  0  0  0  0  0  0  0  0  0  0
    0.8810   -4.3564   -3.0647 O   0  0  0  0  0  0  0  0  0  0  0  0
    1.9538    0.4657   -1.8776 H   0  0  0  0  0  0  0  0  0  0  0  0
   -0.0534    0.0743   -0.0367 H   0  0  0  0  0  0  0  0  0  0  0  0
   -1.8278   -3.8933   -1.5483 H   0  0  0  0  0  0  0  0  0  0  0  0
   -0.6648   -4.4563   -0.3638 H   0  0  0  0  0  0  0  0  0  0  0  0
   -1.0049   -5.4687   -1.8049 H   0  0  0  0  0  0  0  0  0  0  0  0
    2.2454   -2.9745   -3.6889 H   0  0  0  0  0  0  0  0  0  0  0  0
    3.0821   -1.4765   -3.5945 H   0  0  0  0  0  0  0  0  0  0  0  0
  1  2  1  0  0  0  0
  1  3  2  0  0  0  0
  1 10  1  0  0  0  0
  2  6  2  0  0  0  0
  2 11  1  0  0  0  0
  3  7  1  0  0  0  0
  3  8  1  0  0  0  0
  4  5  1  0  0  0  0
  4  7  1  0  0  0  0
  4  9  2  0  0  0  0
  5 12  1  0  0  0  0
  5 13  1  0  0  0  0
  5 14  1  0  0  0  0
  6  7  1  0  0  0  0
  8 15  1  0  0  0  0
  8 16  1  0  0  0  0
M  END
$$$$
