15   
torsion grid (-165,)
C       -0.6625669339    0.5031844415   -1.5751566673
C       -3.3609789756    2.4262069953   -3.2183628435
C       -3.9314646146    1.0642045594   -2.8377115771
C       -2.4475271297    1.2715101363   -2.9440159843
C       -0.0037659498    0.7083407401   -0.2321791817
O       -0.3068948987   -0.2946458144   -2.4196451597
O       -1.7180262425    1.3482483040   -1.7206752007
H       -3.4544994428    2.7705831023   -4.2439964085
H       -3.4070534027    3.2056978064   -2.4642592590
H       -4.3419106444    0.9672493238   -1.8373903384
H       -4.4188485124    0.4611500502   -3.5981593550
H       -1.8932533862    0.8034174917   -3.7480460810
H        0.3466734437    1.7405976932   -0.1412964820
H        0.8351359436    0.0204396918   -0.1313333539
H       -0.7274076766    0.5358278212    0.5698229504
15   
torsion grid (-150,)
C       -0.6130016171    0.5367972444   -1.6045452610
C       -3.3032875373    2.4007001742   -3.2501717919
C       -3.9847337771    1.1066469571   -2.8211400679
C       -2.4891215374    1.1844689999   -2.9220555570
C        0.0000311672    0.6950163373   -0.2337221206
O       -0.1399682029   -0.1134483243   -2.5157162854
O       -1.7792620978    1.2303973975   -1.6849441956
H       -3.3628635231    2.7102148278   -4.2894800322
H       -3.2872252113    3.2107752101   -2.5277159289
H       -4.4072300962    1.0819186116   -1.8214785856
H       -4.5167267217    0.5175556956   -3.5624408197
H       -1.9627871638    0.6465415610   -3.7003507472
H        0.1951040220    1.7521576937   -0.0311080285
H        0.9299572451    0.1292890242   -0.1854686104
H       -0.6954706508    0.3372410375    0.5310246100
15   
torsion grid (-135,)
C       -0.5835488060    0.5896309235   -1.6201189827
C       -3.2391636955    2.3695412987   -3.2729239926
C       -4.0242511272    1.1523060995   -2.8005083863
C       -2.5286796530    1.1015680207   -2.8937624503
C        0.0005065169    0.6880911027   -0.2311998913
O       -0.0245346910    0.1091469920   -2.5862022063
O       -1.8375176514    1.1139279405   -1.6454219305
H       -3.2687063638    2.6438560952   -4.3233944257
H       -3.1584307760    3.2015578413   -2.5803201720
H       -4.4515820378    1.1991025244   -1.8037118905
H       -4.6005322617    0.5821093026   -3.5231620714
H       -2.0410656881    0.5007006264   -3.6510114663
H        0.0438458258    1.7352623822    0.0823178537
H        1.0012535273    0.2572452290   -0.2277976626
H       -0.6373929603    0.1581995661    0.4820960140
15   
torsion grid (-120,)
C       -0.5746973404    0.6555941065   -1.6320653477
C       -3.1687220642    2.3298351662   -3.2954781686
C       -4.0523278724    1.1991647216   -2.7841625057
C       -2.5676393829    1.0196112871   -2.8696345430
C       -0.0018972463    0.6841925343   -0.2353811010
O        0.0377914065    0.3634088343   -2.6397386901
O       -1.8912207510    0.9971255998   -1.6138464439
H       -3.1732035333    2.5689869418   -4.3548415208
H       -3.0183547330    3.1754473451   -2.6315025531
H       -4.4758608183    1.3147119971   -1.7913679620
H       -4.6734469512    0.6552008266   -3.4895389110
H       -2.1307478570    0.3595569650   -3.6089156330
H       -0.1029945171    1.6874288799    0.1890474818
H        1.0491256870    0.3989640932   -0.2688815339
H       -0.5556722035   -0.0026384295    0.4112010986
15   
torsion grid (-105,)
C       -0.5880945663    0.7200896412   -1.6381412049
C       -3.0925486403    2.2800206943   -3.3101576820
C       -4.0704063249    1.2430482956   -2.7713095978
C       -2.6076145541    0.9347466570   -2.8491536408
C       -0.0079522504    0.6836725818   -0.2448367318
O        0.0448891192    0.6209182665   -2.6697486193
O       -1.9403315868    0.8708879459   -1.5907109925
H       -3.0749514593    2.4905919426   -4.3752536269
H       -2.8695681584    3.1267740719   -2.6684009367
H       -4.4829778236    1.4190689173   -1.7828108235
H       -4.7355056125    0.7365886061   -3.4642847750
H       -2.2310141211    0.2241098305   -3.5759138750
H       -0.2412059168    1.6143646810    0.2808233083
H        1.0718753495    0.5511346280   -0.3046924799
H       -0.4545553159   -0.1355530590    0.3260264254
15   
torsion grid (-90,)
C       -0.6127751646    0.7815252974   -1.6419275560
C       -3.0145577324    2.2249717814   -3.3194858938
C       -4.0757388797    1.2870055805   -2.7567729128
C       -2.6456640653    0.8520305027   -2.8377755145
C       -0.0204498718    0.6910069788   -0.2563142747
O        0.0153383618    0.8714156087   -2.6766987528
O       -1.9739277383    0.7384476688   -1.5859107596
H       -2.9835017212    2.4133812859   -4.3882095615
H       -2.7136124605    3.0609331332   -2.6957736532
H       -4.4637005416    1.5139081547   -1.7686465265
H       -4.7873213651    0.8277404020   -3.4362933002
H       -2.3400309748    0.1022339574   -3.5599951488
H       -0.3753056258    1.5249317114    0.3565713141
H        1.0667759560    0.7152301838   -0.3238056690
H       -0.3447657272   -0.2334701571    0.2301768784
15   
torsion grid (-75,)
C       -0.6398599997    0.8356541212   -1.6439464427
C       -2.9465224021    2.1633724990   -3.3326682818
C       -4.0700533885    1.3255263335   -2.7336082729
C       -2.6814832173    0.7732346084   -2.8380858835
C       -0.0411606280    0.6908725875   -0.2654671933
O       -0.0295071214    1.1100624278   -2.6558644986
O       -1.9841409134    0.6035916611   -1.6072051883
H       -2.9197212398    2.3320374706   -4.4045852976
H       -2.5641662390    2.9818225808   -2.7312389391
H       -4.4145640456    1.5965195248   -1.7404330370
H       -4.8323291512    0.9151517414   -3.3890865278
H       -2.4603710984   -0.0062976062   -3.5610050535
H       -0.4995716866    1.4116740377    0.4181405344
H        1.0342162733    0.8586686149   -0.3169075680
H       -0.2458112014   -0.3087384717    0.1287411064
15   
torsion grid (-60,)
C       -0.6587393207    0.8995767329   -1.6362451499
C       -2.8936186923    2.1089530468   -3.3642106758
C       -4.0481553465    1.3692287091   -2.6992739533
C       -2.7062470555    0.7156155796   -2.8467376873
C       -0.0647595146    0.6885871946   -0.2637049299
O       -0.0733236968    1.3536826131   -2.5962318497
O       -1.9626532521    0.4932302634   -1.6519865550
H       -2.8971056138    2.2481860165   -4.4406477072
H       -2.4310807899    2.9145162687   -2.8045836179
H       -4.3274958351    1.6865226711   -1.6992524257
H       -4.8661803484    0.9971666039   -3.3090297331
H       -2.5820211069   -0.0908576343   -3.5639354058
H       -0.6151850306    1.2780074221    0.4756530695
H        0.9833274133    0.9864512206   -0.2717712782
H       -0.1535796652   -0.3625856472    0.0253640395
15   
torsion grid (-45,)
C       -0.6742773635    0.9749295938   -1.6090686802
C       -2.8664415373    2.0620457527   -3.4205866812
C       -4.0162402626    1.4148610988   -2.6584040200
C       -2.7205274656    0.6818400080   -2.8557456896
C       -0.0864820811    0.6744891230   -0.2497864929
O       -0.1244225656    1.6042146205   -2.4875560156
O       -1.9177253722    0.4187923087   -1.7079698947
H       -2.9272663794    2.1521381410   -4.5007712019
H       -2.3349925981    2.8686492022   -2.9306273637
H       -4.2141227506    1.7888869547   -1.6583961335
H       -4.8902889852    1.0618174259   -3.1979278378
H       -2.6958693536   -0.1544644909   -3.5487357405
H       -0.7111295618    1.1162364268    0.5323363713
H        0.9231424970    1.0804236588   -0.1932720859
H       -0.0668614933   -0.4058663696   -0.0803443623
15   
torsion grid (-30,)
C       -0.7017668010    1.0667410754   -1.5561220543
C       -2.8617659044    2.0139902768   -3.5143961841
C       -3.9786946588    1.4705706214   -2.6330730970
C       -2.7282223633    0.6684904603   -2.8631344384
C       -0.0936444915    0.6379574161   -0.2398826986
O       -0.2163323332    1.8779495532   -2.3159551912
O       -1.8691159790    0.3914961073   -1.7588241949
H       -2.9979006942    2.0216893667   -4.5919246636
H       -2.2718444264    2.8335527026   -3.1272943008
H       -4.0883673025    1.9230105483   -1.6518824906
H       -4.9035937739    1.1199558845   -3.0819971782
H       -2.7957170897   -0.2091109197   -3.4992211505
H       -0.7711053842    0.8865343379    0.5824239850
H        0.8616253784    1.1433577749   -0.1006719916
H        0.0497128034   -0.4462499189   -0.2284559062
15   
torsion grid (-15,)
C       -0.7616942569    1.1690280852   -1.4600765463
C       -2.8412470262    1.9509284519   -3.6286615941
C       -3.9283618757    1.5486694913   -2.6428252120
C       -2.7297134633    0.6650910520   -2.8549709211
C       -0.0625223445    0.5882567082   -0.2509580515
O       -0.4077414720    2.1689770378   -2.0503212906
O       -1.8399120263    0.4005286497   -1.7698027644
H       -3.0420570100    1.8504011371   -4.6918398479
H       -2.1991410132    2.7760838127   -3.3575184919
H       -3.9596681454    2.1018301526   -1.7086077943
H       -4.8933238687    1.2058072623   -3.0050789165
H       -2.8782271088   -0.2617818588   -3.3997098452
H       -0.7452832255    0.5737801372    0.6036689710
H        0.8141479169    1.1913941973   -0.0164280144
H        0.2348557976   -0.4453561685   -0.4495504354
15   
torsion grid (0,)
C       -0.8482823879    1.2185110390   -1.3646843912
C       -2.7845439343    1.8763842988   -3.7084795941
C       -3.8636538885    1.6303034722   -2.6641065234
C       -2.7383420997    0.6476994457   -2.8366453905
C       -0.0137368763    0.5542375482   -0.2923948961
O       -0.6676160386    2.3449171666   -1.7831151229
O       -1.8326538159    0.3756783707   -1.7643460751
H       -3.0269732354    1.6994667163   -4.7531729878
H       -2.0873942364    2.6791773010   -3.5206741097
H       -3.8217655758    2.2616358593   -1.7816531844
H       -4.8623708197    1.3332114434   -2.9709851110
H       -2.9693585654   -0.3031997366   -3.3044097825
H       -0.6482614615    0.2658732945    0.5506041233
H        0.7601818983    1.2443923118    0.0424186837
H        0.4432328897   -0.3585136935   -0.6856166917
15   
torsion grid (15,)
C       -0.9535722231    1.2218597923   -1.2901561236
C       -2.7637264565    1.7989962301   -3.7414590887
C       -3.8286605783    1.6672370790   -2.6602419747
C       -2.7718053975    0.6095003537   -2.8158657591
C       -0.0154916436    0.5562110374   -0.3089345989
O       -0.9341728348    2.4032393616   -1.5774852435
O       -1.8314566963    0.3140043388   -1.7789721237
H       -3.0402081744    1.5943639675   -4.7725675386
H       -2.0218668423    2.5713630905   -3.6007529640
H       -3.7260753868    2.3430367910   -1.8177867397
H       -4.8497927870    1.4147624697   -2.9315132504
H       -3.0740055803   -0.3430118574   -3.2363321711
H       -0.5877576728    0.0996054885    0.5038409245
H        0.6737181475    1.2986374577    0.0924910097
H        0.5421215895   -0.2427156834   -0.8061757183
15   
torsion grid (30,)
C       -1.0056820581    1.2143909573   -1.2419366954
C       -2.7395762670    1.7501921357   -3.7645469919
C       -3.7803367896    1.7036833980   -2.6487926175
C       -2.7784962348    0.5939151788   -2.8024522584
C       -0.0093675343    0.5619102958   -0.3111484325
O       -1.1034868965    2.4126032148   -1.4273489189
O       -1.7804605750    0.2724720319   -1.8287556964
H       -3.0486789855    1.5387495802   -4.7847378771
H       -1.9597612906    2.4916237025   -3.6566030027
H       -3.6315812404    2.4100472548   -1.8410533702
H       -4.8157575953    1.4784552033   -2.8887989492
H       -3.1419919418   -0.3532974421   -3.1842835652
H       -0.5358757107   -0.0139224818    0.4555629024
H        0.6046447848    1.3307459404    0.1570462940
H        0.6232094625   -0.1352804930   -0.8680975551
15   
torsion grid (45,)
C       -1.0408545525    1.2112350608   -1.2048793544
C       -2.7438969714    1.7125512251   -3.8018520908
C       -3.7493576109    1.7338420443   -2.6497144185
C       -2.7804437011    0.5945084534   -2.7996765826
C       -0.0125127734    0.5605386243   -0.3084503898
O       -1.2316959499    2.4095305468   -1.2905278271
O       -1.7137656649    0.2674672657   -1.9039354971
H       -3.0858915057    1.4894438230   -4.8086555026
H       -1.9380784225    2.4327350585   -3.7308142177
H       -3.5692374920    2.4716719098   -1.8795708169
H       -4.7934933086    1.5117271642   -2.8529934671
H       -3.1876297783   -0.3525024932   -3.1355383055
H       -0.5069583898   -0.1071975829    0.4031819232
H        0.5393992859    1.3321389759    0.2275953596
H        0.6747228612   -0.0465996180   -0.9046084540
15   
torsion grid (60,)
C       -1.0781822163    1.2171059734   -1.1387712039
C       -2.7631424712    1.6803492664   -3.8405276472
C       -3.7264734787    1.7854396324   -2.6571582277
C       -2.7872364579    0.6174377741   -2.7818125738
C       -0.0118487466    0.5509806266   -0.2994393497
O       -1.3580736156    2.3997610954   -1.0969353153
O       -1.6595400844    0.3085134380   -1.9576675406
H       -3.1406763454    1.4274731086   -4.8271231806
H       -1.9308606074    2.3758141204   -3.8247745206
H       -3.5162154207    2.5584164173   -1.9323004952
H       -4.7782366125    1.5643191848   -2.8188966230
H       -3.2298461309   -0.3348905050   -3.0523825760
H       -0.4624335052   -0.2194645172    0.3331996882
H        0.4806421693    1.2997054307    0.3204210415
H        0.7203399061    0.0578278690   -0.9451503942
15   
torsion grid (75,)
C       -1.1344486699    1.2118699898   -1.0403388512
C       -2.7691951783    1.6204531139   -3.8978407256
C       -3.6902668851    1.8495279085   -2.7033916709
C       -2.7964324316    0.6392739308   -2.7613011417
C        0.0159456416    0.5485439599   -0.3167183263
O       -1.5328761079    2.3387267101   -0.8215697481
O       -1.6318089401    0.3679185517   -1.9785253346
H       -3.1804262888    1.3141440050   -4.8553365593
H       -1.9032625223    2.2730237629   -3.9553029544
H       -3.4346234236    2.6586671878   -2.0356663156
H       -4.7530366335    1.6554423634   -2.8220316564
H       -3.2770109941   -0.3158591691   -2.9448802819
H       -0.3341746285   -0.3543098487    0.1921872785
H        0.4366866349    1.2449560011    0.4080752498
H        0.7839358689    0.2435960595   -1.0333040360
15   
torsion grid (90,)
C       -1.1335899142    0.5248861292   -1.2371997703
C       -3.5349624101    2.2848361882   -2.8847433147
C       -3.5169062051    0.7983617382   -3.1978730375
C       -2.2331861325    1.5847937141   -3.1710982620
C        0.0227165068    0.8122812969   -0.3052555121
O       -1.8554281481   -0.4482877805   -1.1649379210
O       -1.2318873580    1.5240894354   -2.1547381707
H       -3.9139228815    2.9911086980   -3.6179397830
H       -3.7142600256    2.5594098256   -1.8492785214
H       -3.7192778807    0.1105449076   -2.3899116717
H       -3.8537498032    0.4711694182   -4.1778247103
H       -1.7447836882    1.7874978546   -4.1187464087
H        0.9471445127    0.9295937119   -0.8777592065
H        0.1243210771   -0.0059202449    0.4071864137
H       -0.1532227070    1.7512098043    0.2279935725
15   
torsion grid (105,)
C       -1.0411643708    0.4634923314   -1.3668730922
C       -3.5002732859    2.3499540574   -2.9230804342
C       -3.5481185998    0.8419175358   -3.0559935984
C       -2.2373519993    1.5690648624   -3.1840562207
C       -0.0500884770    0.8074480917   -0.2782864457
O       -1.5620856504   -0.6212123494   -1.5183418164
O       -1.2453556344    1.5554803688   -2.1586545627
H       -3.8902979692    2.9762380373   -3.7205287475
H       -3.6099988535    2.7614234859   -1.9240503134
H       -3.7223779101    0.2592191117   -2.1613994746
H       -3.9554146593    0.4062521591   -3.9637744887
H       -1.7713653327    1.6344773025   -4.1623313223
H        0.8786506071    1.1792672817   -0.7203455557
H        0.1501612384   -0.0791888627    0.3226439277
H       -0.4526028754    1.6043766670    0.3540503718
15   
torsion grid (120,)
C       -0.9666747898    0.4583807361   -1.4442130731
C       -3.4901074756    2.3840487405   -2.9932848622
C       -3.5654437336    0.8712298573   -2.9628333019
C       -2.2433757429    1.5568468680   -3.1635858657
C       -0.0679651480    0.7734446455   -0.2712580526
O       -1.3364124129   -0.6500356829   -1.7679104222
O       -1.2948698697    1.6105024470   -2.1005823305
H       -3.8673162648    2.9226334777   -3.8579636244
H       -3.5938945829    2.9072270342   -2.0475068604
H       -3.7412644959    0.3938915362   -2.0061703763
H       -3.9855259055    0.3423518531   -3.8128882592
H       -1.7634081243    1.5012404905   -4.1360545111
H        0.8231680920    1.3064894870   -0.6149438376
H        0.2191655464   -0.1530575876    0.2251953911
H       -0.5891212898    1.4290371757    0.4327119931
15   
torsion grid (135,)
C       -0.9048541707    0.4629060789   -1.4884576093
C       -3.4846602685    2.4067643581   -3.0618653144
C       -3.6137516084    0.9018537820   -2.9094685437
C       -2.2664069662    1.5295795741   -3.1205904352
C       -0.0592054266    0.7398987232   -0.2683262906
O       -1.1355715461   -0.6326214735   -1.9548021950
O       -1.3753823869    1.6325215499   -2.0131327975
H       -3.8178698615    2.8782909044   -3.9817551400
H       -3.6039181937    3.0106280304   -2.1675628689
H       -3.8284218388    0.5158791565   -1.9186216005
H       -4.0290765796    0.3166787347   -3.7239657641
H       -1.7525039472    1.3725462510   -4.0642042300
H        0.7721170994    1.4003391643   -0.5315964682
H        0.3228686508   -0.1996397490    0.1298438208
H       -0.6559557740    1.2533816067    0.4913682366
15   
torsion grid (150,)
C       -0.8448246110    0.4692612557   -1.5124491538
C       -3.4708171851    2.4244220301   -3.1175575567
C       -3.6885370591    0.9373818692   -2.8808673718
C       -2.3035057072    1.4854800383   -3.0677670341
C       -0.0406590227    0.7219285558   -0.2599751539
O       -0.9308335899   -0.5903793657   -2.0974049586
O       -1.4687913587    1.6118132769   -1.9197012071
H       -3.7402843394    2.8511210046   -4.0790636515
H       -3.6004682779    3.0877138411   -2.2680094595
H       -3.9630666828    0.6296800098   -1.8768150726
H       -4.1027885454    0.3259766228   -3.6765221152
H       -1.7560298026    1.2416193015   -3.9727377456
H        0.7038442273    1.5018385117   -0.4446718227
H        0.4536294079   -0.1994758228    0.0464928272
H       -0.6962193717    1.0789260861    0.5398068061
15   
torsion grid (165,)
C       -0.7845437914    0.4697674531   -1.5277100352
C       -3.4451977542    2.4315491149   -3.1575805748
C       -3.7754028591    0.9723376307   -2.8657757223
C       -2.3504248129    1.4208059730   -3.0161283871
C       -0.0213335274    0.7124454491   -0.2480507605
O       -0.7207467053   -0.5322451739   -2.2101964282
O       -1.5627547521    1.5451500903   -1.8344799664
H       -3.6469771017    2.8295088710   -4.1475032093
H       -3.5678660976    3.1390932344   -2.3435256107
H       -4.1111955937    0.7337835224   -1.8614113432
H       -4.1997489561    0.3563436044   -3.6527116120
H       -1.7813456891    1.1018088335   -3.8825909166
H        0.6132262194    1.5972859293   -0.3533026799
H        0.5910127339   -0.1593454324   -0.0195558202
H       -0.7185522559    0.9056255069    0.5725128054
15   
torsion grid (180,)
C       -0.7200783357    0.4766546777   -1.5518789906
C       -3.4051017965    2.4331075600   -3.1918580841
C       -3.8579335691    1.0156456346   -2.8563632179
C       -2.3980769690    1.3470936749   -2.9783940782
C       -0.0060947347    0.7091096564   -0.2421227653
O       -0.5061266052   -0.4405146827   -2.3188304787
O       -1.6439996637    1.4512617875   -1.7725654734
H       -3.5467071308    2.8064375803   -4.2016252386
H       -3.4979104944    3.1784017980   -2.4080925684
H       -4.2401774072    0.8462522109   -1.8545478689
H       -4.3084093889    0.4046448765   -3.6329119648
H       -1.8282395410    0.9528196116   -3.8114941434
H        0.4930070301    1.6824158272   -0.2557508571
H        0.7257687835   -0.0821422571   -0.0825605738
H       -0.7277071041    0.7224447590    0.5799538544
