31   
torsion grid (-75,)
C        1.9720075417    0.0531778379   -0.0906423554
C        0.7699588450    0.7746958571   -0.1445810271
C        8.2744606570    4.0375494481    1.8669143649
C        8.5170632844    4.8326077296    0.7118620753
C        3.1765892211    0.7240933339   -0.2911803695
C        0.7817188081    2.1452968611   -0.3880146159
C        7.2802991034    3.0176575157    1.8527497895
C        8.0297842406    4.3201244948   -0.5241482448
C        3.2136730837    2.1054104328   -0.5375576504
C        2.0005095921    2.8153971799   -0.5783327105
C        6.5403806531    3.1957524110    0.6557364222
C        4.2874962656    4.1634360509   -1.4560505770
C        3.1559686846    4.8977381552   -0.7568257916
C        4.5296917426    2.8135683831   -0.7688856715
N        7.3404651448    3.1614267733   -0.4377802824
N        5.2156290251    2.9860315859    0.5281328948
O        1.9214660478    4.1600600703   -0.8232197322
H        1.9643764107   -1.0167431787    0.0962393968
H       -0.1789323407    0.2658744054    0.0042410730
H        8.8389566713    4.2371688187    2.7751184159
H        9.1631528828    5.7032048974    0.7588185266
H        4.1163952715    0.1756900772   -0.2679749216
H       -0.1383178172    2.7208814407   -0.4327875111
H        6.9335787707    2.4826928431    2.7312405641
H        8.4724880823    4.5926674834   -1.4821057255
H        4.0209787972    3.9895194963   -2.5045041241
H        5.2006456248    4.7623534333   -1.4337950646
H        3.4060680776    5.0727874235    0.2983062246
H        2.9391959131    5.8591839063   -1.2256069403
H        5.1831037831    2.2034492430   -1.3967492580
H        4.6946294072    2.7621256331    1.3688762621
31   
torsion grid (-60,)
C        1.9879104148    0.0593892139   -0.0375737682
C        0.7702579911    0.7533452717   -0.0986449849
C        8.3467350504    3.9700549529    1.8997528696
C        8.7157999260    4.7633747663    0.7878584746
C        3.1754026021    0.7549053761   -0.2576417795
C        0.7493478538    2.1189962567   -0.3686120151
C        7.2166211123    3.1365966431    1.8223563511
C        8.1331478029    4.4264689799   -0.4506523632
C        3.1802429274    2.1316727573   -0.5298134726
C        1.9512742771    2.8135364366   -0.5784280429
C        6.4845602655    3.3564659489    0.6258466750
C        4.2029444692    4.1902802723   -1.4992504555
C        3.0602676900    4.9159729729   -0.8100308016
C        4.4799886126    2.8649383493   -0.7780329604
N        7.2312392536    3.4237141024   -0.4997001139
N        5.1546622189    3.0906524831    0.5142234842
O        1.8406004286    4.1502544605   -0.8498343497
H        2.0055801077   -1.0068422980    0.1690280800
H       -0.1662732186    0.2264238573    0.0650113299
H        8.9324824639    4.0151246852    2.8148776877
H        9.5033034191    5.5065137326    0.8598278877
H        4.1275879296    0.2281528190   -0.2308451047
H       -0.1840054513    2.6722474361   -0.4196213305
H        6.8112513740    2.6000419908    2.6753906271
H        8.5778081151    4.7439755674   -1.3934523217
H        3.9341209692    3.9839948150   -2.5413415044
H        5.1032423631    4.8082496679   -1.4985016287
H        3.3139194470    5.1187188559    0.2388529738
H        2.8184221373    5.8609953921   -1.2996934002
H        5.1415431875    2.2528598463   -1.3972549912
H        4.6810788452    2.7514440781    1.3431834195
31   
torsion grid (-45,)
C        2.0498784051    0.0376317150   -0.0477152096
C        0.8123842821    0.6946117278   -0.1175543362
C        8.3829052198    3.9170794474    1.8999691822
C        8.8723367827    4.6205730511    0.7799913307
C        3.2177102425    0.7660756741   -0.2675037715
C        0.7531728878    2.0574412616   -0.3961222646
C        7.1666939156    3.2331049168    1.8161053817
C        8.2367728999    4.3885003274   -0.4477407522
C        3.1840173886    2.1405937305   -0.5482665536
C        1.9354677996    2.7852174497   -0.6055663694
C        6.4664116900    3.4288997488    0.5995525399
C        4.1500950053    4.2211946720   -1.5269199233
C        2.9848821076    4.9167883807   -0.8448301574
C        4.4636071305    2.9095509953   -0.7955011503
N        7.1768677333    3.5654917241   -0.5380427174
N        5.1245527320    3.1664018322    0.4967710864
O        1.7871154990    4.1162490289   -0.8856551064
H        2.0979406272   -1.0264321893    0.1652736655
H       -0.1089970411    0.1414306640    0.0457060439
H        8.9491681041    3.9098560986    2.8283539870
H        9.7617377265    5.2392985880    0.8433418829
H        4.1846437979    0.2670685005   -0.2346081238
H       -0.1956241218    2.5831176204   -0.4540361989
H        6.7047452914    2.7655995724    2.6813730855
H        8.7031598661    4.6920080581   -1.3843761527
H        3.8910037562    4.0018342385   -2.5689246798
H        5.0324244198    4.8646290634   -1.5260603559
H        3.2296650027    5.1289895767    0.2041110464
H        2.7172569951    5.8526818798   -1.3387103915
H        5.1417686122    2.3119512222   -1.4122373196
H        4.6799755563    2.7634283117    1.3124385140
31   
torsion grid (-30,)
C        2.0642678049    0.0535440109    0.0025660380
C        0.8137316577    0.6846652157   -0.0727196790
C        8.3870183779    3.8840765376    1.9682958457
C        8.9681770550    4.4719255271    0.8299858701
C        3.2177310400    0.8057301612   -0.2136928026
C        0.7280735814    2.0457023482   -0.3532896062
C        7.1055705216    3.3525236234    1.8832853095
C        8.2900890065    4.3250926469   -0.3806239584
C        3.1577945926    2.1788905090   -0.4963270090
C        1.8962058871    2.7971433174   -0.5590587349
C        6.4211629167    3.5067554676    0.6511629900
C        4.0842583523    4.2759849383   -1.4761355670
C        2.9032870338    4.9490801287   -0.7988685496
C        4.4226233445    2.9735577063   -0.7393650529
N        7.1078710914    3.6930127669   -0.4912439816
N        5.0713661091    3.2495442302    0.5546176066
O        1.7216143027    4.1242796477   -0.8413655788
H        2.1334123919   -1.0091189369    0.2168535180
H       -0.0967777062    0.1129003961    0.0876241844
H        8.9318203255    3.8450117719    2.9084421703
H        9.9384073660    4.9565729591    0.8703891287
H        4.1944496813    0.3263304915   -0.1769219640
H       -0.2309805542    2.5519538255   -0.4155043891
H        6.5982476772    2.9457686532    2.7546409293
H        8.7645455037    4.6100311149   -1.3191606278
H        3.8327404420    4.0487603631   -2.5184016927
H        4.9534147794    4.9371154478   -1.4741230587
H        3.1411142474    5.1672101931    0.2503227861
H        2.6177950504    5.8784081187   -1.2951902077
H        5.1144132736    2.3881892776   -1.3536467395
H        4.6452515315    2.8077462903    1.3595354786
31   
torsion grid (-15,)
C        2.1115846806    0.0426839815   -0.0124319289
C        0.8488011144    0.6492690565   -0.0851966075
C        8.3904938113    3.8822304101    1.9802525380
C        9.0401110250    4.3288475335    0.8168545008
C        3.2498592303    0.8192501539   -0.2229316703
C        0.7360908396    2.0100178771   -0.3574845951
C        7.0679403267    3.4709394340    1.9070934231
C        8.3364819641    4.2450891771   -0.3821072612
C        3.1628041981    2.1925660028   -0.4975485059
C        1.8891543276    2.7859228732   -0.5575866068
C        6.4077488804    3.5539943298    0.6558656669
C        4.0476610026    4.3134682174   -1.4641494389
C        2.8534809046    4.9588506116   -0.7833611788
C        4.4118400470    3.0138619677   -0.7344881453
N        7.0772706888    3.7882223425   -0.4858388274
N        5.0548706781    3.2945505044    0.5603858393
O        1.6882411071    4.1110403279   -0.8315046798
H        2.2017757151   -1.0196722261    0.1955392406
H       -0.0502375412    0.0584503611    0.0707780628
H        8.9154544563    3.8568648475    2.9320702881
H       10.0630197612    4.6911302003    0.8368536098
H        4.2360085867    0.3594275481   -0.1877236699
H       -0.2328418692    2.4974096902   -0.4173543843
H        6.5264037536    3.1501390334    2.7938297363
H        8.8219110520    4.4983517167   -1.3240948733
H        3.8009879393    4.0877049836   -2.5079740626
H        4.9037452898    4.9914310550   -1.4575201665
H        3.0868157691    5.1747712239    0.2672964562
H        2.5496246837    5.8854871419   -1.2738103058
H        5.1149211242    2.4464121095   -1.3532416720
H        4.6358110938    2.8387551254    1.3605594508
31   
torsion grid (0,)
C        2.1491484679    0.0319314918   -0.0309379389
C        0.8761961187    0.6171703111   -0.1012762758
C        8.3808220902    3.8823918258    1.9936810445
C        9.0785474153    4.1754751797    0.8098902078
C        3.2740242121    0.8297392832   -0.2338404620
C        0.7407932324    1.9778249982   -0.3635739946
C        7.0276158816    3.5887811984    1.9313781163
C        8.3600573227    4.1527654660   -0.3820165665
C        3.1636708620    2.2032912404   -0.4987395352
C        1.8802380696    2.7754468933   -0.5562732495
C        6.3903317590    3.5923100105    0.6658536939
C        4.0129337377    4.3461398727   -1.4488591289
C        2.8075324689    4.9660714546   -0.7643890081
C        4.3987676013    3.0476921147   -0.7280312669
N        7.0501390702    3.8705565554   -0.4707598667
N        5.0369280469    3.3289379133    0.5682954761
O        1.6568373737    4.0989754757   -0.8202476572
H        2.2574160180   -1.0302044161    0.1694327064
H       -0.0128082926    0.0098816162    0.0489012829
H        8.8926454870    3.8837571441    2.9529861787
H       10.1377689177    4.4121677339    0.8149290679
H        4.2679774558    0.3869426064   -0.1999904003
H       -0.2363143634    2.4488730477   -0.4211440107
H        6.4590675401    3.3603669491    2.8296676114
H        8.8560176472    4.3719319614   -1.3270427001
H        3.7707262788    4.1238421464   -2.4945308424
H        4.8576422538    5.0381356102   -1.4364034603
H        3.0363519467    5.1776443628    0.2881815055
H        2.4883859265    5.8912958243   -1.2477347234
H        5.1118041312    2.4972969394   -1.3510712186
H        4.6200982770    2.8680525638    1.3662621665
31   
torsion grid (15,)
C        2.2026331892    0.0371183464   -0.0468978249
C        0.9206350455    0.6025637216   -0.1157318496
C        8.3911703693    3.8859120201    1.9897909426
C        9.1145487570    4.0165377665    0.7914105096
C        3.3154066335    0.8531640533   -0.2434469633
C        0.7639557086    1.9624357856   -0.3698544130
C        7.0155638154    3.7130040730    1.9426083121
C        8.3880426442    4.0538391091   -0.3962946475
C        3.1836337540    2.2262499253   -0.5009745017
C        1.8913570281    2.7784731606   -0.5562027422
C        6.3968663315    3.6340505383    0.6701245972
C        3.9999488149    4.3905294892   -1.4334974113
C        2.7843860673    4.9846086011   -0.7443062298
C        4.4055821356    3.0910513720   -0.7252221532
N        7.0502418333    3.9527918830   -0.4602362142
N        5.0455473006    3.3672254172    0.5704046536
O        1.6476582415    4.1002431233   -0.8113162829
H        2.3271416704   -1.0242948269    0.1477686351
H        0.0411663182   -0.0195851152    0.0296561805
H        8.9017000318    3.9180709398    2.9492792058
H       10.1947118676    4.1223070814    0.7854902745
H        4.3161380022    0.4259448645   -0.2099674324
H       -0.2202895929    2.4186338360   -0.4255566378
H        6.4303576405    3.5804130110    2.8491412139
H        8.8919204997    4.2354954242   -1.3449945816
H        3.7619016587    4.1751521867   -2.4816078624
H        4.8342848554    5.0948272946   -1.4130818426
H        3.0083359475    5.1887451219    0.3109316551
H        2.4515420851    5.9099819288   -1.2179775587
H        5.1253235037    2.5577783426   -1.3553232765
H        4.6225467650    2.9207241240    1.3729037122
31   
torsion grid (30,)
C        2.2491883189    0.0203741125   -0.0841335619
C        0.9586573203    0.5677720134   -0.1397541052
C        8.3840385689    3.9140915613    1.9807644085
C        9.1147086835    3.8716409115    0.7786985485
C        3.3501193218    0.8537629401   -0.2735339068
C        0.7819788847    1.9287393357   -0.3736731016
C        6.9968296774    3.8496179163    1.9388410749
C        8.3901762516    3.9473634976   -0.4109698767
C        3.1966344920    2.2280511214   -0.5119953383
C        1.8967539633    2.7634147060   -0.5534078038
C        6.3955094512    3.6630049549    0.6673035164
C        3.9774437536    4.4189944540   -1.4154660893
C        2.7569215846    4.9848831805   -0.7116248812
C        4.4048513217    3.1132449083   -0.7311578166
N        7.0474357232    4.0193079105   -0.4557059758
N        5.0556940209    3.3706562197    0.5610895108
O        1.6330152601    4.0855820538   -0.7872360642
H        2.3893767768   -1.0416621431    0.0957529781
H        0.0888077528   -0.0688980817    0.0006046417
H        8.8969514066    3.9941776501    2.9361414159
H       10.1998291026    3.8565879608    0.7705592532
H        4.3570699264    0.4410252847   -0.2482531026
H       -0.2087897971    2.3717769736   -0.4183609514
H        6.3980367255    3.8198947101    2.8455522132
H        8.9020753994    4.0832928576   -1.3630545709
H        3.7368071437    4.2174767107   -2.4657507557
H        4.8026876494    5.1337343103   -1.3876864471
H        2.9821152318    5.1771675382    0.3458769403
H        2.4089126141    5.9127456263   -1.1692013697
H        5.1280174243    2.6016465240   -1.3745378972
H        4.6096761910    2.9793137010    1.3792634625
31   
torsion grid (45,)
C        2.2530600238   -0.0043836441   -0.1964623451
C        0.9656630143    0.5515288155   -0.2446459538
C        8.3517880998    3.9983969885    1.9928809455
C        9.0999714882    3.7397888527    0.8249358590
C        3.3591920983    0.8288401425   -0.3499319505
C        0.7973898001    1.9203160804   -0.4337967587
C        6.9564039790    4.0230219879    1.9345591934
C        8.4105454946    3.7693792223   -0.3943743087
C        3.2152718839    2.2106861431   -0.5470806037
C        1.9185148206    2.7533146812   -0.5778151026
C        6.4144795577    3.6497093614    0.6777745501
C        4.0128291679    4.4385506868   -1.3511124751
C        2.7880070497    4.9736674830   -0.6306011256
C        4.4304497934    3.0942655609   -0.7361811566
N        7.0843664989    3.9930109989   -0.4427713807
N        5.1129986429    3.2547961680    0.5521374211
O        1.6627096410    4.0860399203   -0.7650131775
H        2.3864655809   -1.0721842201   -0.0481795795
H        0.0916076476   -0.0847670407   -0.1316284173
H        8.8605932971    4.1741447794    2.9377794532
H       10.1783923714    3.6222483023    0.8566036493
H        4.3641796083    0.4123296307   -0.3247729623
H       -0.1904919993    2.3705347894   -0.4696634961
H        6.3406791073    4.1145425689    2.8250442056
H        8.9498557888    3.8248755061   -1.3392808708
H        3.7769919060    4.2937544189   -2.4117301052
H        4.8420017205    5.1463061124   -1.2838509331
H        2.9999199711    5.1134858407    0.4390044551
H        2.4504610754    5.9266916333   -1.0419486471
H        5.1424770495    2.6108135790   -1.4104317477
H        4.5720237075    3.1208228514    1.3956969057
31   
torsion grid (60,)
C        2.3281299186   -0.0033697828   -0.2032177150
C        1.0290038948    0.5246585383   -0.2493858233
C        8.3440747776    3.9765018597    1.9774711317
C        9.0394167311    3.5532987208    0.8194365076
C        3.4158195693    0.8543615907   -0.3529136055
C        0.8309157104    1.8902468322   -0.4327085381
C        6.9522795494    4.1634185270    1.9271393721
C        8.3553122975    3.6644768959   -0.4065870963
C        3.2415431080    2.2336578558   -0.5438038504
C        1.9333577390    2.7483668989   -0.5726451143
C        6.4067868747    3.7170785592    0.6933989192
C        3.9911546098    4.4828952758   -1.3366193054
C        2.7540472833    4.9875453762   -0.6148744303
C        4.4363581510    3.1446172048   -0.7295752370
N        7.0802787168    4.1115319920   -0.4132517542
N        5.1156452751    3.3181781077    0.5617426363
O        1.6488222280    4.0758836918   -0.7542147749
H        2.4847363237   -1.0685947942   -0.0594524755
H        0.1690258255   -0.1310072117   -0.1393645322
H        8.8873320761    4.1465044907    2.9040349426
H       10.0897021052    3.2831009061    0.8580586587
H        4.4294937353    0.4592670734   -0.3296870442
H       -0.1665785722    2.3188069088   -0.4670000133
H        6.3437413089    4.3609834855    2.8048170417
H        8.8892584494    3.6742073142   -1.3561968962
H        3.7592320015    4.3374320150   -2.3979091525
H        4.8054955728    5.2071494290   -1.2652286431
H        2.9610924069    5.1280111585    0.4556237034
H        2.3964006982    5.9346099963   -1.0227877566
H        5.1616627116    2.6806571343   -1.4026876964
H        4.5758097254    3.1720794587    1.4053924473
31   
torsion grid (75,)
C        2.4485590974   -0.0008268422   -0.2004880936
C        1.1328607553    0.4829723616   -0.2604432938
C        8.3042753647    3.8878782531    1.9550632747
C        8.8990505207    3.3142074590    0.7965775994
C        3.5081240530    0.8921966634   -0.3439637622
C        0.8897105696    1.8402343950   -0.4510408776
C        6.9470816978    4.3171322579    1.9347585317
C        8.2370662979    3.5497392570   -0.4410615148
C        3.2881061724    2.2640970367   -0.5414937888
C        1.9636974724    2.7345323880   -0.5842554573
C        6.3873871072    3.8336670968    0.7240594356
C        3.9693794642    4.5369397700   -1.3326038412
C        2.7075486944    5.0007705663   -0.6259075713
C        4.4516461253    3.2147656919   -0.7207427603
N        7.0862729465    4.2560826847   -0.3606461272
N        5.1141205827    3.4190544301    0.5794051700
O        1.6364102668    4.0510463102   -0.7739101972
H        2.6396112810   -1.0595555728   -0.0508982029
H        0.2947325552   -0.2011299398   -0.1554604947
H        8.8902817006    3.9683103976    2.8679231220
H        9.8787378880    2.8499286313    0.8435773032
H        4.5342243069    0.5314079751   -0.3101357430
H       -0.1214374288    2.2343388023   -0.4961884293
H        6.3793106610    4.6060688154    2.8134976981
H        8.7620168792    3.5197344829   -1.3955866125
H        3.7538225731    4.3815168612   -2.3957948509
H        4.7592093281    5.2871806274   -1.2538430556
H        2.8966002495    5.1532577891    0.4463399818
H        2.3226366974    5.9333789528   -1.0420115470
H        5.2010628672    2.7747459075   -1.3818796643
H        4.5657854067    3.2771664365    1.4201450153
