37
0 1 C15H20O2
C                     5.886077294563    -4.064452365096     0.512519950353
C                     6.528687873758    -2.019832069092    -0.604680712515
C                     4.824323973291    -4.211659532448    -0.381073516579
C                     5.467682168757    -2.168133955923    -1.492675807356
C                     6.750524437455    -2.962568186246     0.414254880352
C                     4.595526004011    -3.263105588121    -1.385896768171
C                     7.904659547627    -2.759130352149     1.345434439281
C                     0.336409531220    -1.348628732845     0.157924831530
C                     0.902971831215    -0.633821083312    -1.076744800523
C                     0.221599666935    -2.861266538658    -0.077466437082
C                     2.243717331776    -1.243407247402    -1.511212345285
C                     1.563890809460    -3.463032500762    -0.519270050184
C                     2.111123435431    -2.752252286685    -1.767130487859
C                     8.156873492060    -3.790985139852     2.432380601653
C                     3.406359410118    -3.406955115488    -2.310694486981
O                     8.635679990954    -1.779851669874     1.237560416028
O                     3.772663966464    -2.843488264046    -3.578058147639
H                     6.037409154851    -4.817934523604     1.279412750572
H                     7.207341114946    -1.175787962111    -0.681129457153
H                     4.171986624829    -5.077721533683    -0.299668339433
H                     5.310244952860    -1.445376556531    -2.285941370977
H                    -0.641527443405    -0.931246600390     0.425175478698
H                     1.000816057164    -1.167283512824     1.013985743323
H                     0.182194306022    -0.710521605174    -1.903044696029
H                     1.029273276057     0.435441733548    -0.870912582426
H                    -0.130432694283    -3.362123148115     0.831972675204
H                    -0.533544870030    -3.051618973941    -0.852814917616
H                     2.620628520337    -0.741638754484    -2.408803677251
H                     2.986859245878    -1.077283143083    -0.721689503906
H                     2.288266893147    -3.365619173233     0.298641084757
H                     1.448920059427    -4.537161842922    -0.714845760876
H                     1.361142122844    -2.890812650789    -2.565011577445
H                     8.336970245455    -4.780326846469     1.998114387652
H                     7.291451382492    -3.878084808837     3.098205163768
H                     9.029040843612    -3.486746979488     3.012107274868
H                     3.201099507758    -4.481238003707    -2.436312409495
H                     2.984631298693    -2.856920490895    -4.144045083836
