
  -OEChem-05262117483D

 32 33  0     1  0  0  0  0  0999 V2000
   -0.3887    3.8137   -2.5511 C   0  0  0  0  0  0  0  0  0  0  0  0
   -2.5793    2.7791   -2.3208 C   0  0  0  0  0  0  0  0  0  0  0  0
   -0.9672    5.0764   -2.4061 C   0  0  0  0  0  0  0  0  0  0  0  0
   -3.1620    4.0380   -2.1709 C   0  0  0  0  0  0  0  0  0  0  0  0
   -1.1970    2.6773   -2.4943 C   0  0  0  0  0  0  0  0  0  0  0  0
   -2.3472    5.1743   -2.2093 C   0  0  0  0  0  0  0  0  0  0  0  0
   -0.0203   -0.9948   -0.8816 C   0  0  0  0  0  0  0  0  0  0  0  0
    0.2322    1.3575    1.4024 C   0  0  0  0  0  0  0  0  0  0  0  0
    0.2169   -0.0046    2.1097 C   0  0  0  0  0  0  0  0  0  0  0  0
    0.5894    1.3395   -0.0923 C   0  0  0  0  0  0  0  0  0  0  0  0
   -0.7896   -1.0115    1.5314 C   0  0  0  0  0  0  0  0  0  0  0  0
   -0.3869    0.4927   -0.9253 C   0  0  1  0  0  0  0  0  0  0  0  0
   -0.3680   -1.6376    0.2769 N   0  0  0  0  0  0  0  0  0  0  0  0
    0.5646   -1.5590   -1.7963 O   0  0  0  0  0  0  0  0  0  0  0  0
   -1.4306    0.2032   -3.3846 O   0  0  0  0  0  0  0  0  0  0  0  0
    0.9155    1.2593   -3.1889 O   0  0  0  0  0  0  0  0  0  0  0  0
   -0.4476    1.0434   -2.6888 S   0  0  0  0  0  0  0  0  0  0  0  0
   -3.0761    6.7555   -2.0198 Cl  0  0  0  0  0  0  0  0  0  0  0  0
    0.6773    3.7052   -2.7263 H   0  0  0  0  0  0  0  0  0  0  0  0
   -3.1961    1.8852   -2.3317 H   0  0  0  0  0  0  0  0  0  0  0  0
   -0.3578    5.9732   -2.4512 H   0  0  0  0  0  0  0  0  0  0  0  0
   -4.2344    4.1407   -2.0400 H   0  0  0  0  0  0  0  0  0  0  0  0
   -0.7539    1.8276    1.5190 H   0  0  0  0  0  0  0  0  0  0  0  0
    0.9453    2.0128    1.9149 H   0  0  0  0  0  0  0  0  0  0  0  0
    1.2163   -0.4559    2.0892 H   0  0  0  0  0  0  0  0  0  0  0  0
   -0.0356    0.1602    3.1641 H   0  0  0  0  0  0  0  0  0  0  0  0
    0.5717    2.3728   -0.4493 H   0  0  0  0  0  0  0  0  0  0  0  0
    1.6058    0.9690   -0.2565 H   0  0  0  0  0  0  0  0  0  0  0  0
   -0.9436   -1.8267    2.2423 H   0  0  0  0  0  0  0  0  0  0  0  0
   -1.7683   -0.5329    1.3984 H   0  0  0  0  0  0  0  0  0  0  0  0
   -1.4153    0.6428   -0.5802 H   0  0  0  0  0  0  0  0  0  0  0  0
   -0.0124   -2.5867    0.3185 H   0  0  0  0  0  0  0  0  0  0  0  0
  1  3  1  0  0  0  0
  1  5  2  0  0  0  0
  1 19  1  0  0  0  0
  2  4  2  0  0  0  0
  2  5  1  0  0  0  0
  2 20  1  0  0  0  0
  3  6  2  0  0  0  0
  3 21  1  0  0  0  0
  4  6  1  0  0  0  0
  4 22  1  0  0  0  0
  5 17  1  0  0  0  0
  6 18  1  0  0  0  0
  7 12  1  0  0  0  0
  7 13  1  0  0  0  0
  7 14  2  0  0  0  0
  8  9  1  0  0  0  0
  8 10  1  0  0  0  0
  8 23  1  0  0  0  0
  8 24  1  0  0  0  0
  9 11  1  0  0  0  0
  9 25  1  0  0  0  0
  9 26  1  0  0  0  0
 10 12  1  0  0  0  0
 10 27  1  0  0  0  0
 10 28  1  0  0  0  0
 11 13  1  0  0  0  0
 11 29  1  0  0  0  0
 11 30  1  0  0  0  0
 12 17  1  0  0  0  0
 12 31  1  0  0  0  0
 13 32  1  0  0  0  0
 15 17  2  0  0  0  0
 16 17  2  0  0  0  0
M  END
$$$$
