
  -OEChem-05262117483D

 52 53  0     1  0  0  0  0  0999 V2000
   -2.7608    0.1620    1.6538 C   0  0  0  0  0  0  0  0  0  0  0  0
   -2.9107    1.2575    0.7827 C   0  0  0  0  0  0  0  0  0  0  0  0
   -1.6109   -0.6114    1.5839 C   0  0  0  0  0  0  0  0  0  0  0  0
   -1.9170    1.5833   -0.1356 C   0  0  0  0  0  0  0  0  0  0  0  0
   -0.5967   -0.3087    0.6534 C   0  0  0  0  0  0  0  0  0  0  0  0
   -0.7523    0.8058   -0.1952 C   0  0  0  0  0  0  0  0  0  0  0  0
    0.5769   -1.1884    0.5117 C   0  0  0  0  0  0  0  0  0  0  0  0
    1.5256    0.6390   -0.8742 C   0  0  1  0  0  0  0  0  0  0  0  0
    1.4838   -0.8984   -0.6980 C   0  0  0  0  0  0  0  0  0  0  0  0
    3.4166    3.1977   -3.1477 C   0  0  0  0  0  0  0  0  0  0  0  0
   -2.0121   -3.1511   -2.9179 C   0  0  0  0  0  0  0  0  0  0  0  0
    4.8022   -3.2279    1.7237 C   0  0  0  0  0  0  0  0  0  0  0  0
    2.3952    1.1617   -2.0117 C   0  0  0  0  0  0  0  0  0  0  0  0
    0.8271   -1.5525   -1.9464 C   0  0  0  0  0  0  0  0  0  0  0  0
    2.8813   -1.4988   -0.4560 C   0  0  0  0  0  0  0  0  0  0  0  0
    2.5449    2.6885   -1.9954 C   0  0  0  0  0  0  0  0  0  0  0  0
    0.6284   -3.0628   -1.8288 C   0  0  0  0  0  0  0  0  0  0  0  0
    3.6594   -0.8233    0.6715 C   0  0  0  0  0  0  0  0  0  0  0  0
    0.7902   -2.1362    1.2648 O   0  0  0  0  0  0  0  0  0  0  0  0
    0.1564   -3.0858   -4.4611 O   0  0  0  0  0  0  0  0  0  0  0  0
   -0.3295   -5.1969   -3.0985 O   0  0  0  0  0  0  0  0  0  0  0  0
    5.9028   -1.8924   -0.3037 O   0  0  0  0  0  0  0  0  0  0  0  0
    5.9409   -0.8468    2.0314 O   0  0  0  0  0  0  0  0  0  0  0  0
    0.1930    1.1604   -1.1051 O   0  0  0  0  0  0  0  0  0  0  0  0
   -0.3250   -3.7310   -3.2270 S   0  0  0  0  0  0  0  0  0  0  0  0
    5.2545   -1.6354    0.9949 S   0  0  0  0  0  0  0  0  0  0  0  0
   -3.5415   -0.0760    2.3700 H   0  0  0  0  0  0  0  0  0  0  0  0
   -3.8098    1.8663    0.8307 H   0  0  0  0  0  0  0  0  0  0  0  0
   -1.4670   -1.4732    2.2289 H   0  0  0  0  0  0  0  0  0  0  0  0
   -2.0139    2.4355   -0.8014 H   0  0  0  0  0  0  0  0  0  0  0  0
    1.8662    1.0819    0.0732 H   0  0  0  0  0  0  0  0  0  0  0  0
    4.4244    2.7695   -3.1038 H   0  0  0  0  0  0  0  0  0  0  0  0
    3.5155    4.2875   -3.1159 H   0  0  0  0  0  0  0  0  0  0  0  0
    2.9839    2.9301   -4.1183 H   0  0  0  0  0  0  0  0  0  0  0  0
   -2.6154   -3.5665   -3.7272 H   0  0  0  0  0  0  0  0  0  0  0  0
   -2.3521   -3.5370   -1.9557 H   0  0  0  0  0  0  0  0  0  0  0  0
   -2.0432   -2.0616   -2.9484 H   0  0  0  0  0  0  0  0  0  0  0  0
    5.7473   -3.7005    1.9974 H   0  0  0  0  0  0  0  0  0  0  0  0
    4.1912   -3.0542    2.6105 H   0  0  0  0  0  0  0  0  0  0  0  0
    4.2755   -3.8355    0.9879 H   0  0  0  0  0  0  0  0  0  0  0  0
    3.3861    0.7011   -1.9426 H   0  0  0  0  0  0  0  0  0  0  0  0
    1.9657    0.8432   -2.9675 H   0  0  0  0  0  0  0  0  0  0  0  0
    1.4462   -1.3532   -2.8235 H   0  0  0  0  0  0  0  0  0  0  0  0
   -0.1316   -1.0600   -2.1273 H   0  0  0  0  0  0  0  0  0  0  0  0
    3.4708   -1.4647   -1.3750 H   0  0  0  0  0  0  0  0  0  0  0  0
    2.7390   -2.5504   -0.2014 H   0  0  0  0  0  0  0  0  0  0  0  0
    1.5531    3.1492   -2.0458 H   0  0  0  0  0  0  0  0  0  0  0  0
    2.9845    2.9965   -1.0374 H   0  0  0  0  0  0  0  0  0  0  0  0
    1.5696   -3.6159   -1.8849 H   0  0  0  0  0  0  0  0  0  0  0  0
    0.1078   -3.3736   -0.9200 H   0  0  0  0  0  0  0  0  0  0  0  0
    3.9614    0.2005    0.4344 H   0  0  0  0  0  0  0  0  0  0  0  0
    3.1175   -0.8176    1.6200 H   0  0  0  0  0  0  0  0  0  0  0  0
  1  2  1  0  0  0  0
  1  3  2  0  0  0  0
  1 27  1  0  0  0  0
  2  4  2  0  0  0  0
  2 28  1  0  0  0  0
  3  5  1  0  0  0  0
  3 29  1  0  0  0  0
  4  6  1  0  0  0  0
  4 30  1  0  0  0  0
  5  6  2  0  0  0  0
  5  7  1  0  0  0  0
  6 24  1  0  0  0  0
  7  9  1  0  0  0  0
  7 19  2  0  0  0  0
  8  9  1  0  0  0  0
  8 13  1  0  0  0  0
  8 24  1  0  0  0  0
  8 31  1  0  0  0  0
  9 14  1  0  0  0  0
  9 15  1  0  0  0  0
 10 16  1  0  0  0  0
 10 32  1  0  0  0  0
 10 33  1  0  0  0  0
 10 34  1  0  0  0  0
 11 25  1  0  0  0  0
 11 35  1  0  0  0  0
 11 36  1  0  0  0  0
 11 37  1  0  0  0  0
 12 26  1  0  0  0  0
 12 38  1  0  0  0  0
 12 39  1  0  0  0  0
 12 40  1  0  0  0  0
 13 16  1  0  0  0  0
 13 41  1  0  0  0  0
 13 42  1  0  0  0  0
 14 17  1  0  0  0  0
 14 43  1  0  0  0  0
 14 44  1  0  0  0  0
 15 18  1  0  0  0  0
 15 45  1  0  0  0  0
 15 46  1  0  0  0  0
 16 47  1  0  0  0  0
 16 48  1  0  0  0  0
 17 25  1  0  0  0  0
 17 49  1  0  0  0  0
 17 50  1  0  0  0  0
 18 26  1  0  0  0  0
 18 51  1  0  0  0  0
 18 52  1  0  0  0  0
 20 25  2  0  0  0  0
 21 25  2  0  0  0  0
 22 26  2  0  0  0  0
 23 26  2  0  0  0  0
M  END
$$$$
