
  -OEChem-05262117483D

 32 33  0     1  0  0  0  0  0999 V2000
    2.2472   -0.0974   -3.5386 C   0  0  0  0  0  0  0  0  0  0  0  0
    2.4564    2.1552   -2.6280 C   0  0  0  0  0  0  0  0  0  0  0  0
    3.5920   -0.0711   -3.9056 C   0  0  0  0  0  0  0  0  0  0  0  0
    3.8050    2.1797   -2.9873 C   0  0  0  0  0  0  0  0  0  0  0  0
    1.6976    1.0129   -2.8939 C   0  0  0  0  0  0  0  0  0  0  0  0
    4.3581    1.0629   -3.6189 C   0  0  0  0  0  0  0  0  0  0  0  0
    0.1700   -1.1454   -0.6654 C   0  0  0  0  0  0  0  0  0  0  0  0
    0.0233    1.1618    1.6811 C   0  0  0  0  0  0  0  0  0  0  0  0
   -0.1145   -0.2123    2.3503 C   0  0  0  0  0  0  0  0  0  0  0  0
    0.6378    1.1706    0.2720 C   0  0  0  0  0  0  0  0  0  0  0  0
   -0.9960   -1.2083    1.5817 C   0  0  0  0  0  0  0  0  0  0  0  0
   -0.1749    0.3405   -0.7374 C   0  0  1  0  0  0  0  0  0  0  0  0
   -0.3480   -1.8051    0.4113 N   0  0  0  0  0  0  0  0  0  0  0  0
    0.8908   -1.7070   -1.4865 O   0  0  0  0  0  0  0  0  0  0  0  0
   -0.4444    2.4299   -2.3067 O   0  0  0  0  0  0  0  0  0  0  0  0
   -0.7769    0.1204   -3.3535 O   0  0  0  0  0  0  0  0  0  0  0  0
   -0.0437    1.0169   -2.4520 S   0  0  0  0  0  0  0  0  0  0  0  0
    6.0510    1.0894   -4.0723 Cl  0  0  0  0  0  0  0  0  0  0  0  0
    1.6308   -0.9648   -3.7394 H   0  0  0  0  0  0  0  0  0  0  0  0
    1.9910    3.0220   -2.1707 H   0  0  0  0  0  0  0  0  0  0  0  0
    4.0428   -0.9207   -4.4079 H   0  0  0  0  0  0  0  0  0  0  0  0
    4.4144    3.0563   -2.7932 H   0  0  0  0  0  0  0  0  0  0  0  0
   -0.9677    1.6314    1.6275 H   0  0  0  0  0  0  0  0  0  0  0  0
    0.6337    1.8074    2.3222 H   0  0  0  0  0  0  0  0  0  0  0  0
    0.8733   -0.6640    2.5039 H   0  0  0  0  0  0  0  0  0  0  0  0
   -0.5550   -0.0671    3.3440 H   0  0  0  0  0  0  0  0  0  0  0  0
    0.6600    2.2070   -0.0742 H   0  0  0  0  0  0  0  0  0  0  0  0
    1.6705    0.8066    0.2918 H   0  0  0  0  0  0  0  0  0  0  0  0
   -1.2685   -2.0401    2.2355 H   0  0  0  0  0  0  0  0  0  0  0  0
   -1.9374   -0.7308    1.2830 H   0  0  0  0  0  0  0  0  0  0  0  0
   -1.2463    0.4946   -0.5632 H   0  0  0  0  0  0  0  0  0  0  0  0
   -0.0223   -2.7629    0.4836 H   0  0  0  0  0  0  0  0  0  0  0  0
  1  3  1  0  0  0  0
  1  5  2  0  0  0  0
  1 19  1  0  0  0  0
  2  4  2  0  0  0  0
  2  5  1  0  0  0  0
  2 20  1  0  0  0  0
  3  6  2  0  0  0  0
  3 21  1  0  0  0  0
  4  6  1  0  0  0  0
  4 22  1  0  0  0  0
  5 17  1  0  0  0  0
  6 18  1  0  0  0  0
  7 12  1  0  0  0  0
  7 13  1  0  0  0  0
  7 14  2  0  0  0  0
  8  9  1  0  0  0  0
  8 10  1  0  0  0  0
  8 23  1  0  0  0  0
  8 24  1  0  0  0  0
  9 11  1  0  0  0  0
  9 25  1  0  0  0  0
  9 26  1  0  0  0  0
 10 12  1  0  0  0  0
 10 27  1  0  0  0  0
 10 28  1  0  0  0  0
 11 13  1  0  0  0  0
 11 29  1  0  0  0  0
 11 30  1  0  0  0  0
 12 17  1  0  0  0  0
 12 31  1  0  0  0  0
 13 32  1  0  0  0  0
 15 17  2  0  0  0  0
 16 17  2  0  0  0  0
M  END
$$$$
