
  -OEChem-05262117483D

 32 33  0     1  0  0  0  0  0999 V2000
    2.3729   -1.4329   -3.4937 C   0  0  0  0  0  0  0  0  0  0  0  0
    1.0116   -3.1745   -2.4651 C   0  0  0  0  0  0  0  0  0  0  0  0
    2.0441   -1.9204   -4.7581 C   0  0  0  0  0  0  0  0  0  0  0  0
    0.6825   -3.6646   -3.7284 C   0  0  0  0  0  0  0  0  0  0  0  0
    1.8485   -2.0625   -2.3640 C   0  0  0  0  0  0  0  0  0  0  0  0
    1.1992   -3.0295   -4.8610 C   0  0  0  0  0  0  0  0  0  0  0  0
   -0.4067   -0.5201   -0.8870 C   0  0  0  0  0  0  0  0  0  0  0  0
   -0.0668    1.0400    1.5816 C   0  0  0  0  0  0  0  0  0  0  0  0
   -0.8617   -0.0965    2.2524 C   0  0  0  0  0  0  0  0  0  0  0  0
    1.2324    0.5501    0.9188 C   0  0  0  0  0  0  0  0  0  0  0  0
   -0.8405   -1.3983    1.4385 C   0  0  0  0  0  0  0  0  0  0  0  0
    1.0050   -0.0615   -0.4879 C   0  0  1  0  0  0  0  0  0  0  0  0
   -1.1593   -1.1962    0.0233 N   0  0  0  0  0  0  0  0  0  0  0  0
   -0.8134   -0.2744   -2.0232 O   0  0  0  0  0  0  0  0  0  0  0  0
    1.9699   -2.4689    0.2485 O   0  0  0  0  0  0  0  0  0  0  0  0
    3.5559   -0.7564   -0.7983 O   0  0  0  0  0  0  0  0  0  0  0  0
    2.2385   -1.4106   -0.7437 S   0  0  0  0  0  0  0  0  0  0  0  0
    0.7838   -3.6419   -6.4480 Cl  0  0  0  0  0  0  0  0  0  0  0  0
    3.0396   -0.5831   -3.3853 H   0  0  0  0  0  0  0  0  0  0  0  0
    0.6320   -3.6500   -1.5667 H   0  0  0  0  0  0  0  0  0  0  0  0
    2.4394   -1.4508   -5.6528 H   0  0  0  0  0  0  0  0  0  0  0  0
    0.0349   -4.5286   -3.8356 H   0  0  0  0  0  0  0  0  0  0  0  0
   -0.6897    1.5487    0.8371 H   0  0  0  0  0  0  0  0  0  0  0  0
    0.1799    1.7953    2.3347 H   0  0  0  0  0  0  0  0  0  0  0  0
   -0.4295   -0.3181    3.2360 H   0  0  0  0  0  0  0  0  0  0  0  0
   -1.8939    0.2295    2.4236 H   0  0  0  0  0  0  0  0  0  0  0  0
    1.9324    1.3796    0.8001 H   0  0  0  0  0  0  0  0  0  0  0  0
    1.7226   -0.1714    1.5793 H   0  0  0  0  0  0  0  0  0  0  0  0
    0.1339   -1.8843    1.5056 H   0  0  0  0  0  0  0  0  0  0  0  0
   -1.5701   -2.1087    1.8352 H   0  0  0  0  0  0  0  0  0  0  0  0
    1.2671    0.6641   -1.2591 H   0  0  0  0  0  0  0  0  0  0  0  0
   -2.1014   -1.3855   -0.3001 H   0  0  0  0  0  0  0  0  0  0  0  0
  1  3  1  0  0  0  0
  1  5  2  0  0  0  0
  1 19  1  0  0  0  0
  2  4  2  0  0  0  0
  2  5  1  0  0  0  0
  2 20  1  0  0  0  0
  3  6  2  0  0  0  0
  3 21  1  0  0  0  0
  4  6  1  0  0  0  0
  4 22  1  0  0  0  0
  5 17  1  0  0  0  0
  6 18  1  0  0  0  0
  7 12  1  0  0  0  0
  7 13  1  0  0  0  0
  7 14  2  0  0  0  0
  8  9  1  0  0  0  0
  8 10  1  0  0  0  0
  8 23  1  0  0  0  0
  8 24  1  0  0  0  0
  9 11  1  0  0  0  0
  9 25  1  0  0  0  0
  9 26  1  0  0  0  0
 10 12  1  0  0  0  0
 10 27  1  0  0  0  0
 10 28  1  0  0  0  0
 11 13  1  0  0  0  0
 11 29  1  0  0  0  0
 11 30  1  0  0  0  0
 12 17  1  0  0  0  0
 12 31  1  0  0  0  0
 13 32  1  0  0  0  0
 15 17  2  0  0  0  0
 16 17  2  0  0  0  0
M  END
$$$$
