61
0 1 C25FH24N7O3S
C                     0.446529684187     5.400019824316     5.964425885931
C                     0.178840947081     4.984636383602     7.273474147832
C                    -6.145222455019     1.469761777955     2.628272019469
C                    -4.847170511431     1.225364706983     2.191266815977
C                    -0.595652806423     5.496209657092     5.039960458658
C                    -1.126875937900     4.661027590898     7.657520460270
C                    -6.429284358365     2.604764417282     3.426296849461
C                    -3.863515443663     2.148238448583     2.582603481135
C                     0.442695281993     0.112112415204     0.402515152727
C                    -1.914153845507     5.181759942927     5.398707242579
C                    -2.139630190603     4.761875490196     6.710407581907
C                    -2.453305834927     2.348692993237     2.419908635645
C                     0.775096835604     1.163139483753     1.243092492798
C                    -4.280750697692     3.242805799976     3.388672916002
C                    -0.947571775548    -0.151829572622     0.323168601933
C                    -1.460307513784     1.536942137209     1.713604668092
C                     0.026191821838    -1.750835883268    -1.017892383498
C                     2.187561845237     1.631782642182     1.527616055634
C                     1.185271272819    -0.884367786149    -0.467489234603
C                     2.150034153238    -1.789697953814     0.322700571149
C                     1.901104711208    -0.222740763505    -1.663855400866
C                     3.529547366756     6.921116284420     1.189763309990
C                    -3.041208105544     5.239984073142     4.395437507108
C                     3.485334002251     3.195875861925     2.913500065342
C                     3.890546223051     4.316384321577     1.952917457341
N                    -5.521139227237     3.502193508806     3.816470256108
N                    -2.066271142361     3.456963039243     3.055763902614
N                    -0.181010695355     1.861308478840     1.889358712832
N                    -1.911183727285     0.515075585233     0.940428946850
N                    -3.154645236518     3.989546838790     3.639732952485
N                    -1.167569157391    -1.234979756357    -0.509558441844
N                     2.247475516576     2.544401125235     2.527733498336
O                     0.109932395600    -2.708057258170    -1.763154615430
O                     3.173341750010     1.217367003085     0.908296867401
O                     2.191665842052     5.920533044062     3.302423883507
F                    -3.409418546531     4.434216772004     7.082438655896
S                     2.515766409722     5.550116320405     1.857673015527
H                     1.453057844207     5.646098345291     5.642241754697
H                     0.983165827561     4.909756480057     8.000836632524
H                    -6.956647427846     0.798616132607     2.363093958347
H                    -4.595065551044     0.369579216052     1.574099637999
H                    -0.366722881514     5.802270986407     4.023905076805
H                    -1.366761053470     4.334301981466     8.664843836052
H                    -7.449814208707     2.785772233913     3.759240698585
H                     2.514646363821    -2.586368582281    -0.331632484495
H                     1.647785088035    -2.250031431920     1.179749652590
H                     2.992427841167    -1.196896909838     0.681977950476
H                     2.270920845189    -1.000479484582    -2.337890120945
H                     2.735121508016     0.376738798501    -1.296958472967
H                     1.217805717451     0.423588010567    -2.224629904496
H                     2.863437721003     7.774442143800     1.047264147613
H                     3.971051465557     6.627617129951     0.233136238138
H                     4.302727813550     7.170255164207     1.920857568247
H                    -4.008336958439     5.391791854246     4.875323151797
H                    -2.869941457091     6.054907896893     3.685561715094
H                     3.351168380797     3.607289679793     3.915495573840
H                     4.286703819601     2.452618904698     2.939384144173
H                     4.064416957848     3.930195148358     0.944567197306
H                     4.788292667440     4.823869685239     2.320574394841
H                    -2.081590552730    -1.619221594483    -0.720676325343
H                     1.355322438260     2.857166129664     2.907030540560
