61
0 1 C25FH24N7O3S
C                    -2.970783466646     7.899230416992    -0.030877643704
C                    -3.682881914073     9.069033173179     0.251794354531
C                    -6.020841341358     1.534314359599     2.815328395119
C                    -4.757595843589     1.361902719833     2.259779061352
C                    -2.893026807615     6.879771356736     0.921910760787
C                    -4.312165847856     9.223447839976     1.491323330949
C                    -6.391564956046     2.781699209840     3.374742352390
C                    -3.898862798552     2.473620508828     2.283425905939
C                     0.271531463257     0.439456574586    -0.068478314533
C                    -3.511554680122     7.009833637555     2.173411683667
C                    -4.206003702295     8.195596478960     2.420591459459
C                    -2.573385790929     2.814205078903     1.855913189087
C                     0.328890515735     1.822722850469    -0.117606020791
C                    -4.395375746836     3.666773601027     2.869797923065
C                    -0.863776045645    -0.075872634700     0.600184563636
C                    -1.596970931049     1.976859842108     1.151451366781
C                     0.225871561095    -1.934335230252    -0.210330462518
C                     1.402702076396     2.592257462077    -0.856233037265
C                     1.092793253043    -0.715058828788    -0.610254520200
C                     2.457318257626    -0.857126007933     0.100582866183
C                     1.266494926306    -0.690974783282    -2.139576563784
C                     0.644589876591     5.926085049645     1.389978698296
C                    -3.406403559373     5.963402224367     3.267928599179
C                     1.881801263206     4.785123483335    -1.873256675828
C                     2.320544877336     5.844200226276    -0.858921791964
N                    -5.601936834860     3.857139604414     3.415173025899
N                    -2.292266096999     4.080551872633     2.172696812881
N                    -0.605068271321     2.585052703770     0.498014642080
N                    -1.799142290620     0.635564298879     1.209762811236
N                    -3.385941689540     4.594321808350     2.780705642585
N                    -0.868452633369    -1.456359513119     0.515553003621
N                     0.987757127794     3.807094161995    -1.284532169661
O                     0.440444220349    -3.105689518145    -0.454248448194
O                     2.534368073490     2.131369612633    -1.039978303482
O                    -0.345738793150     6.345210498212    -1.085377109608
F                    -4.804898936241     8.359408459876     3.636544299950
S                     0.834991049096     6.788461029977    -0.213725155492
H                    -2.452721602119     7.766245776194    -0.975022663432
H                    -3.748315956781     9.864667048239    -0.485537061503
H                    -6.736812588076     0.718153420074     2.832221361550
H                    -4.436752271692     0.417915114450     1.832784546576
H                    -2.340412639915     5.978508926664     0.682621223585
H                    -4.872590290177    10.117849318174     1.746351894881
H                    -7.381600101772     2.902445484618     3.810887955129
H                     2.930796127221    -1.791748197999    -0.212981534508
H                     2.334649630211    -0.880060066692     1.188484839016
H                     3.088860984332    -0.008760782728    -0.164798155566
H                     1.706189297255    -1.636592550812    -2.468149213352
H                     1.927296294916     0.130707337255    -2.421064612679
H                     0.304584279302    -0.563235982009    -2.646500899059
H                    -0.190141097781     6.408897674030     1.899973796007
H                     1.561176590753     6.052537982047     1.973721487867
H                     0.406691292271     4.872968583090     1.228617908554
H                    -2.495088254579     6.118610656980     3.855024303183
H                    -4.257323805613     6.038792815671     3.945110373173
H                     2.763922993727     4.263351276920    -2.250630407604
H                     1.367170562546     5.265491790557    -2.708038901013
H                     2.970112538736     6.583338131596    -1.337412541401
H                     2.850244470582     5.397393364358    -0.014084818769
H                    -1.588490797455    -2.053556151720     0.906205707234
H                     0.054400687282     4.129539071758    -1.037817286632
