
  -OEChem-05262117483D

 71 75  0     1  0  0  0  0  0999 V2000
   -1.7785    0.8688   -2.1785 C   0  0  0  0  0  0  0  0  0  0  0  0
    4.5969   -0.6660   -5.2088 C   0  0  0  0  0  0  0  0  0  0  0  0
   -0.9724    0.3629   -3.2017 C   0  0  0  0  0  0  0  0  0  0  0  0
   -1.3233    0.9010   -0.8592 C   0  0  0  0  0  0  0  0  0  0  0  0
    3.2308   -0.9575   -5.1265 C   0  0  0  0  0  0  0  0  0  0  0  0
    0.7486   -0.1856   -1.5916 C   0  0  0  0  0  0  0  0  0  0  0  0
    5.1934    0.1881   -4.2812 C   0  0  0  0  0  0  0  0  0  0  0  0
    0.3104   -0.1437   -2.9293 C   0  0  0  0  0  0  0  0  0  0  0  0
   -0.0609    0.3531   -0.5943 C   0  0  0  0  0  0  0  0  0  0  0  0
    4.3467    0.7615   -3.3016 C   0  0  0  0  0  0  0  0  0  0  0  0
    2.4924   -0.3611   -4.1004 C   0  0  0  0  0  0  0  0  0  0  0  0
    7.1064    1.4319   -3.4380 C   0  0  0  0  0  0  0  0  0  0  0  0
    4.7455    2.4245    0.0160 C   0  0  0  0  0  0  0  0  0  0  0  0
    3.0898    3.2374   -1.6475 C   0  0  0  0  0  0  0  0  0  0  0  0
   -0.2408   -2.1000    1.6838 C   0  0  0  0  0  0  0  0  0  0  0  0
   -1.6905   -0.2372    2.4077 C   0  0  0  0  0  0  0  0  0  0  0  0
    3.7035    2.4956    1.1306 C   0  0  0  0  0  0  0  0  0  0  0  0
    2.0039    3.3372   -0.5892 C   0  0  0  0  0  0  0  0  0  0  0  0
   -0.7818   -2.8990    2.8693 C   0  0  0  0  0  0  0  0  0  0  0  0
   -2.1480   -1.1234    3.5662 C   0  0  0  0  0  0  0  0  0  0  0  0
    6.0896    2.3634   -2.7736 C   0  0  1  0  0  0  0  0  0  0  0  0
    4.0278    2.0712   -1.2885 C   0  0  0  0  0  0  0  0  0  0  0  0
    5.8043    3.5411   -3.7273 C   0  0  0  0  0  0  0  0  0  0  0  0
    7.4963   -0.4186   -4.9937 C   0  0  0  0  0  0  0  0  0  0  0  0
    2.8875    4.8676    1.1852 C   0  0  0  0  0  0  0  0  0  0  0  0
    3.0408    0.4940   -3.2292 N   0  0  0  0  0  0  0  0  0  0  0  0
    6.5822    0.4261   -4.2227 N   0  0  0  0  0  0  0  0  0  0  0  0
    4.9018    1.6124   -2.3581 N   0  0  1  0  0  0  0  0  0  0  0  0
   -0.3236   -0.6620    2.0330 N   0  0  0  0  0  0  0  0  0  0  0  0
    1.1159   -0.6291   -3.9643 N   0  0  0  0  0  0  0  0  0  0  0  0
    2.5521    3.4533    0.8281 N   0  3  0  0  0  0  0  0  0  0  0  0
    8.3084    1.6362   -3.3141 O   0  0  0  0  0  0  0  0  0  0  0  0
    1.9415   -0.1793    1.0278 O   0  0  0  0  0  0  0  0  0  0  0  0
    0.3852    1.7262    1.6267 O   0  0  0  0  0  0  0  0  0  0  0  0
   -2.1050   -2.4983    3.2057 O   0  0  0  0  0  0  0  0  0  0  0  0
    0.5759    0.3586    1.0835 S   0  0  0  0  0  0  0  0  0  0  0  0
   -2.7574    1.2725   -2.4199 H   0  0  0  0  0  0  0  0  0  0  0  0
    5.1918   -1.1387   -5.9821 H   0  0  0  0  0  0  0  0  0  0  0  0
   -1.3308    0.3887   -4.2281 H   0  0  0  0  0  0  0  0  0  0  0  0
   -1.9163    1.3592   -0.0759 H   0  0  0  0  0  0  0  0  0  0  0  0
    2.7693   -1.6470   -5.8262 H   0  0  0  0  0  0  0  0  0  0  0  0
    1.7094   -0.6132   -1.3404 H   0  0  0  0  0  0  0  0  0  0  0  0
    5.3090    3.3605   -0.0660 H   0  0  0  0  0  0  0  0  0  0  0  0
    5.4561    1.6398    0.2929 H   0  0  0  0  0  0  0  0  0  0  0  0
    2.5941    3.0400   -2.6004 H   0  0  0  0  0  0  0  0  0  0  0  0
    3.6424    4.1771   -1.7443 H   0  0  0  0  0  0  0  0  0  0  0  0
    0.8034   -2.3593    1.5026 H   0  0  0  0  0  0  0  0  0  0  0  0
   -0.8338   -2.3104    0.7833 H   0  0  0  0  0  0  0  0  0  0  0  0
   -2.3801   -0.3610    1.5619 H   0  0  0  0  0  0  0  0  0  0  0  0
   -1.6633    0.8095    2.7145 H   0  0  0  0  0  0  0  0  0  0  0  0
    3.2498    1.5156    1.2754 H   0  0  0  0  0  0  0  0  0  0  0  0
    4.1344    2.8244    2.0781 H   0  0  0  0  0  0  0  0  0  0  0  0
    1.3440    4.1942   -0.7366 H   0  0  0  0  0  0  0  0  0  0  0  0
    1.3910    2.4398   -0.6065 H   0  0  0  0  0  0  0  0  0  0  0  0
   -0.8306   -3.9584    2.6089 H   0  0  0  0  0  0  0  0  0  0  0  0
   -0.1137   -2.7721    3.7330 H   0  0  0  0  0  0  0  0  0  0  0  0
   -1.5157   -0.9372    4.4462 H   0  0  0  0  0  0  0  0  0  0  0  0
   -3.1862   -0.8960    3.8178 H   0  0  0  0  0  0  0  0  0  0  0  0
    6.5945    2.7316   -1.8803 H   0  0  0  0  0  0  0  0  0  0  0  0
    3.3868    1.2128   -1.0763 H   0  0  0  0  0  0  0  0  0  0  0  0
    5.2535    3.2012   -4.6096 H   0  0  0  0  0  0  0  0  0  0  0  0
    6.7481    3.9850   -4.0551 H   0  0  0  0  0  0  0  0  0  0  0  0
    5.2173    4.3197   -3.2344 H   0  0  0  0  0  0  0  0  0  0  0  0
    7.3766   -0.2405   -6.0674 H   0  0  0  0  0  0  0  0  0  0  0  0
    7.3052   -1.4734   -4.7766 H   0  0  0  0  0  0  0  0  0  0  0  0
    8.5132   -0.1627   -4.7033 H   0  0  0  0  0  0  0  0  0  0  0  0
    3.7026    5.2151    0.5514 H   0  0  0  0  0  0  0  0  0  0  0  0
    2.0069    5.4916    1.0314 H   0  0  0  0  0  0  0  0  0  0  0  0
    3.1899    4.9076    2.2318 H   0  0  0  0  0  0  0  0  0  0  0  0
    0.6374   -0.8418   -4.8307 H   0  0  0  0  0  0  0  0  0  0  0  0
    1.7712    3.1288    1.4240 H   0  0  0  0  0  0  0  0  0  0  0  0
  1  3  1  0  0  0  0
  1  4  2  0  0  0  0
  1 37  1  0  0  0  0
  2  5  2  0  0  0  0
  2  7  1  0  0  0  0
  2 38  1  0  0  0  0
  3  8  2  0  0  0  0
  3 39  1  0  0  0  0
  4  9  1  0  0  0  0
  4 40  1  0  0  0  0
  5 11  1  0  0  0  0
  5 41  1  0  0  0  0
  6  8  1  0  0  0  0
  6  9  2  0  0  0  0
  6 42  1  0  0  0  0
  7 10  2  0  0  0  0
  7 27  1  0  0  0  0
  8 30  1  0  0  0  0
  9 36  1  0  0  0  0
 10 26  1  0  0  0  0
 10 28  1  0  0  0  0
 11 26  2  0  0  0  0
 11 30  1  0  0  0  0
 12 21  1  0  0  0  0
 12 27  1  0  0  0  0
 12 32  2  0  0  0  0
 13 17  1  0  0  0  0
 13 22  1  0  0  0  0
 13 43  1  0  0  0  0
 13 44  1  0  0  0  0
 14 18  1  0  0  0  0
 14 22  1  0  0  0  0
 14 45  1  0  0  0  0
 14 46  1  0  0  0  0
 15 19  1  0  0  0  0
 15 29  1  0  0  0  0
 15 47  1  0  0  0  0
 15 48  1  0  0  0  0
 16 20  1  0  0  0  0
 16 29  1  0  0  0  0
 16 49  1  0  0  0  0
 16 50  1  0  0  0  0
 17 31  1  0  0  0  0
 17 51  1  0  0  0  0
 17 52  1  0  0  0  0
 18 31  1  0  0  0  0
 18 53  1  0  0  0  0
 18 54  1  0  0  0  0
 19 35  1  0  0  0  0
 19 55  1  0  0  0  0
 19 56  1  0  0  0  0
 20 35  1  0  0  0  0
 20 57  1  0  0  0  0
 20 58  1  0  0  0  0
 21 23  1  0  0  0  0
 21 28  1  0  0  0  0
 21 59  1  0  0  0  0
 22 28  1  0  0  0  0
 22 60  1  0  0  0  0
 23 61  1  0  0  0  0
 23 62  1  0  0  0  0
 23 63  1  0  0  0  0
 24 27  1  0  0  0  0
 24 64  1  0  0  0  0
 24 65  1  0  0  0  0
 24 66  1  0  0  0  0
 25 31  1  0  0  0  0
 25 67  1  0  0  0  0
 25 68  1  0  0  0  0
 25 69  1  0  0  0  0
 29 36  1  0  0  0  0
 30 70  1  0  0  0  0
 31 71  1  0  0  0  0
 33 36  2  0  0  0  0
 34 36  2  0  0  0  0
M  CHG  1  31   1
M  END
$$$$
