
  -OEChem-05262117483D

 22 23  0     0  0  0  0  0  0999 V2000
   -0.0692   -3.3831    0.5571 C   0  0  0  0  0  0  0  0  0  0  0  0
    3.4317   -2.9822   -0.7317 C   0  0  0  0  0  0  0  0  0  0  0  0
   -0.5237   -2.0858    0.5119 C   0  0  0  0  0  0  0  0  0  0  0  0
    3.8895   -4.2795   -0.6876 C   0  0  0  0  0  0  0  0  0  0  0  0
    1.6186   -1.3318   -0.3569 C   0  0  0  0  0  0  0  0  0  0  0  0
    1.7448   -5.0408    0.1831 C   0  0  0  0  0  0  0  0  0  0  0  0
    2.1098   -2.6581   -0.3200 C   0  0  0  0  0  0  0  0  0  0  0  0
    1.2548   -3.7127    0.1455 C   0  0  0  0  0  0  0  0  0  0  0  0
    0.3274   -1.0412    0.0493 C   0  0  0  0  0  0  0  0  0  0  0  0
    3.0355   -5.3182   -0.2250 C   0  0  0  0  0  0  0  0  0  0  0  0
   -0.1248    0.3691   -0.0145 C   0  0  0  0  0  0  0  0  0  0  0  0
    0.5487    1.3112   -0.3986 O   0  0  0  0  0  0  0  0  0  0  0  0
    3.4648   -6.6195   -0.1704 O   0  0  0  0  0  0  0  0  0  0  0  0
   -1.4109    0.5373    0.4092 O   0  0  0  0  0  0  0  0  0  0  0  0
   -0.7216   -4.1776    0.9106 H   0  0  0  0  0  0  0  0  0  0  0  0
    4.0844   -2.1881   -1.0853 H   0  0  0  0  0  0  0  0  0  0  0  0
   -1.5329   -1.8445    0.8272 H   0  0  0  0  0  0  0  0  0  0  0  0
    4.9037   -4.5164   -1.0054 H   0  0  0  0  0  0  0  0  0  0  0  0
    2.2547   -0.5235   -0.7070 H   0  0  0  0  0  0  0  0  0  0  0  0
    1.1126   -5.8522    0.5323 H   0  0  0  0  0  0  0  0  0  0  0  0
    4.3817   -6.6689   -0.4836 H   0  0  0  0  0  0  0  0  0  0  0  0
   -1.5932    1.4922    0.3227 H   0  0  0  0  0  0  0  0  0  0  0  0
  1  3  1  0  0  0  0
  1  8  2  0  0  0  0
  1 15  1  0  0  0  0
  2  4  2  0  0  0  0
  2  7  1  0  0  0  0
  2 16  1  0  0  0  0
  3  9  2  0  0  0  0
  3 17  1  0  0  0  0
  4 10  1  0  0  0  0
  4 18  1  0  0  0  0
  5  7  2  0  0  0  0
  5  9  1  0  0  0  0
  5 19  1  0  0  0  0
  6  8  1  0  0  0  0
  6 10  2  0  0  0  0
  6 20  1  0  0  0  0
  7  8  1  0  0  0  0
  9 11  1  0  0  0  0
 10 13  1  0  0  0  0
 11 12  2  0  0  0  0
 11 14  1  0  0  0  0
 13 21  1  0  0  0  0
 14 22  1  0  0  0  0
M  END
$$$$
