16   
torsion grid (-165,)
C        5.0319677342    1.5820527859    0.0752740290
C        5.3415193357    0.4118647463    0.7424112589
C        3.3530581580    0.2730440132   -0.2439691882
C        2.0817723570   -0.3296393919   -0.7324159799
C        0.4120066597   -2.0878158254   -0.3937068127
N        3.8079590346    1.4804332238   -0.5366912555
N        4.2570217524   -0.4141848269    0.5434332642
N        1.6820498206   -1.4600947235   -0.0278889451
O        1.4840359744    0.0828770423   -1.7166898471
H        5.6257269974    2.4845174635    0.0061713733
H        6.2061652619    0.1039034477    1.3134048230
H        0.3082737795   -3.0218089730    0.1635295985
H        0.4198728290   -2.3077750535   -1.4619874368
H       -0.4468089956   -1.4382944642   -0.1869561874
H        4.2166768946   -1.4009129816    0.7645459442
H        1.8880815962   -1.4482095580    0.9648894394
16   
torsion grid (-150,)
C        4.9879128723    1.6113623216    0.1706780771
C        5.3576965705    0.4036862420    0.7304079663
C        3.3945598166    0.2445908711   -0.3003655532
C        2.1386452344   -0.3764599779   -0.8111458990
C        0.3915911672   -2.0375487686   -0.3613955792
N        3.7759482871    1.4996852642   -0.4669466842
N        4.3227278999   -0.4597295377    0.4397063274
N        1.6634754311   -1.4061605829   -0.0130035130
O        1.6074130936   -0.0474961439   -1.8632558744
H        5.5279846250    2.5490714206    0.1967411118
H        6.2347929124    0.0916743283    1.2796245724
H        0.2498759453   -2.9182779527    0.2693615964
H        0.4233760038   -2.3468024349   -1.4069234195
H       -0.4566585877   -1.3545252802   -0.2344244097
H        4.3180510676   -1.4607691066    0.5898961127
H        1.8640779043   -1.3229920770    0.9770066666
16   
torsion grid (-135,)
C        4.9456328224    1.6216750619    0.2674550822
C        5.3907698820    0.3954161425    0.7186534681
C        3.4457453773    0.2042940531   -0.3405225280
C        2.2076265700   -0.4436323627   -0.8725697576
C        0.3790796854   -1.9955454316   -0.3411931797
N        3.7409121494    1.4916667588   -0.3845596289
N        4.4111830151   -0.5022122950    0.3444340106
N        1.6507988077   -1.3610279944   -0.0028496046
O        1.7506231325   -0.2085579939   -1.9837538328
H        5.4243424183    2.5857998819    0.3807349980
H        6.2861633026    0.0904762289    1.2415005561
H        0.1991892637   -2.8218623346    0.3505001968
H        0.4358549167   -2.3843421263   -1.3588156277
H       -0.4575927719   -1.2886042764   -0.2928162761
H        4.4523975740   -1.5096272247    0.4339021065
H        1.8506876236   -1.2242913290    0.9807287738
16   
torsion grid (-120,)
C        4.8545669358    1.6173940022    0.3400001123
C        5.4029017069    0.3950217402    0.6664471048
C        3.4357250678    0.1489168767   -0.3386516638
C        2.2185104333   -0.5440369046   -0.8785180418
C        0.3185710365   -1.9853879586   -0.2771502630
N        3.6334680522    1.4534104780   -0.2780171370
N        4.4742524033   -0.5387550719    0.2466717437
N        1.5827698969   -1.3330723966    0.0515650160
O        1.8450962064   -0.4361983907   -2.0404129499
H        5.2677390884    2.6015934663    0.5189893558
H        6.3385859394    0.1131623238    1.1279006036
H        0.1041486754   -2.7480059227    0.4751431083
H        0.4080663421   -2.4590716563   -1.2557612188
H       -0.5108738283   -1.2696363336   -0.3187103026
H        4.5811682071   -1.5449626828    0.2674053914
H        1.7727860827   -1.1316148322    1.0255377587
16   
torsion grid (-105,)
C        4.8068832838    1.6231225458    0.4309018577
C        5.4732244496    0.4269122191    0.5810156285
C        3.4417182239    0.1098057991   -0.2591197942
C        2.2624768396   -0.6234208479   -0.8437308538
C        0.2596110032   -1.9423468502   -0.2870735393
N        3.5462338306    1.4151698055   -0.0926297179
N        4.5818560564   -0.5386870562    0.1474886328
N        1.5021659291   -1.2756067253    0.0902470091
O        2.0436241705   -0.6684529742   -2.0495936230
H        5.1608678312    2.6178224218    0.6686019321
H        6.4624482377    0.1801979381    0.9390911032
H       -0.0443743914   -2.6137832170    0.5191618660
H        0.4299820778   -2.5223534939   -1.1952925975
H       -0.5436123488   -1.2230654584   -0.4851114962
H        4.7622495615   -1.5311317012    0.0670622213
H        1.6219579030   -0.9916297199    1.0547216439
16   
torsion grid (-90,)
C        4.7989999008    1.6505677084    0.4817186143
C        5.5665324193    0.5069792278    0.4637707413
C        3.4829279571    0.0754595557   -0.1677804088
C        2.3526946115   -0.6885074408   -0.8087452924
C        0.2132023983   -1.8343141316   -0.3705127990
N        3.5082012939    1.3739122006    0.0754409862
N        4.7111763854   -0.4961817996    0.0458144257
N        1.4330526340   -1.1717461445    0.0785593539
O        2.3395119783   -0.9299664658   -2.0129770209
H        5.1009152850    2.6525404066    0.7574755754
H        6.6015887099    0.3175462882    0.7095361265
H       -0.1459725727   -2.5030258984    0.4156245649
H        0.4442283555   -2.4163695255   -1.2632637567
H       -0.5737881286   -1.1130022380   -0.6207956811
H        4.9588631587   -1.4580168023   -0.1475673858
H        1.4484948612   -0.7673042681    1.0071052083
16   
torsion grid (-75,)
C        4.7525645850    1.6384039053    0.5771976734
C        5.6041208648    0.5714474054    0.3818994515
C        3.5089779858    0.0044672092   -0.0735872220
C        2.4153485037   -0.7846522063   -0.7339575183
C        0.1797905671   -1.7698082353   -0.3978234765
N        3.4558573611    1.2816667396    0.2708791966
N        4.7967077536   -0.4639918134   -0.0431654439
N        1.3902797433   -1.1263467640    0.1003718473
O        2.5309288268   -1.1857221836   -1.8915503500
H        5.0005651300    2.6380961969    0.9092747781
H        6.6698295017    0.4550812594    0.5176437247
H       -0.2777959202   -2.3519620980    0.4059847526
H        0.4557018139   -2.4369674758   -1.2150132570
H       -0.5466139187   -1.0394256797   -0.7740778234
H        5.0956417121   -1.3747609504   -0.3677823430
H        1.3385710119   -0.6122459176    0.9722125387
16   
torsion grid (-60,)
C        4.7113625811    1.5903741568    0.6607234970
C        5.6157452206    0.6015729063    0.3271627171
C        3.5371080814   -0.0768055587   -0.0343336745
C        2.4655960239   -0.8932830532   -0.6819454644
C        0.1621492376   -1.7284381861   -0.4158446600
N        3.4245263086    1.1675547539    0.4095095305
N        4.8509413664   -0.4506485705   -0.1271216329
N        1.3677148631   -1.0938777430    0.1031565173
O        2.6541499700   -1.4371068657   -1.7720602764
H        4.9171518644    2.5776724372    1.0533825069
H        6.6936763077    0.5517592040    0.3851287171
H       -0.3710388539   -2.2186434982    0.4027134613
H        0.4573042217   -2.4759772163   -1.1527617890
H       -0.5060102779   -1.0054389525   -0.8995957030
H        5.1762556210   -1.3093652605   -0.5534743069
H        1.2823936413   -0.4760507810    0.9027122334
16   
torsion grid (-45,)
C        4.6793513197    1.5372962906    0.7391671089
C        5.6152032622    0.6280587659    0.2819083698
C        3.5610367666   -0.1427787223   -0.0108016861
C        2.5035081568   -0.9922981165   -0.6243148282
C        0.1553345279   -1.7050576497   -0.4104688469
N        3.4060116363    1.0583559041    0.5317608153
N        4.8834911594   -0.4317392218   -0.2034644686
N        1.3555436550   -1.0620173159    0.1079049077
O        2.7339453578   -1.6558275217   -1.6395746097
H        4.8557109587    2.5050373946    1.1905006551
H        6.6957371439    0.6398119323    0.2730913205
H       -0.4345385553   -2.0994802973    0.4209931331
H        0.4589663771   -2.5276240051   -1.0587415983
H       -0.4631639228   -1.0108245684   -0.9928028697
H        5.2197607252   -1.2453348408   -0.7044198279
H        1.2577171126   -0.3569065544    0.8308385197
16   
torsion grid (-30,)
C        4.6630629382    1.4933743507    0.8182646693
C        5.6104785396    0.6577372053    0.2533157478
C        3.5769982849   -0.1703082964   -0.0072538191
C        2.5293518580   -1.0505450779   -0.5840820042
C        0.1503746722   -1.6705207907   -0.4225351996
N        3.4014733267    0.9772491881    0.6364894385
N        4.8975019418   -0.3931109192   -0.2749903680
N        1.3415918084   -1.0011237146    0.0788877603
O        2.7889276116   -1.8111469133   -1.5231821561
H        4.8251209538    2.4324819952    1.3312832708
H        6.6877803615    0.7175158876    0.1936333703
H       -0.4779970580   -1.9777348225    0.4176762517
H        0.4615966826   -2.5539164182   -0.9811011346
H       -0.4332491494   -1.0232034701   -1.0890184352
H        5.2359657111   -1.1712738490   -0.8287534305
H        1.2426246323   -0.2388915847    0.7414176912
16   
torsion grid (-15,)
C        4.6672531488    1.4154148303    0.7710168050
C        5.6017414103    0.6111950572    0.1410404143
C        3.5719345230   -0.2383076659   -0.0590719606
C        2.5224973332   -1.1632212064   -0.5525048058
C        0.1187071808   -1.7007745406   -0.3892790983
N        3.4075624842    0.8824395709    0.6328227331
N        4.8821297349   -0.4356267426   -0.3855502781
N        1.3064242580   -0.9701811344    0.0213162471
O        2.7959901049   -2.0456218442   -1.3754799655
H        4.8383953056    2.3412099453    1.3049187940
H        6.6736977640    0.6931577094    0.0321542042
H       -0.4560977226   -2.0084308788    0.4894136808
H        0.4375885033   -2.5873967546   -0.9381992659
H       -0.5226886107   -1.0948231498   -1.0408351255
H        5.2078155791   -1.2121588856   -0.9495790624
H        1.2232319503   -0.1570349575    0.6222080211
16   
torsion grid (0,)
C        4.6950160706    1.4358394678    0.7888362251
C        5.6193805771    0.6891680397    0.0777238403
C        3.5961961601   -0.1768896004   -0.1130692923
C        2.5577960346   -1.1330824101   -0.5670936121
C        0.1447328521   -1.6505773647   -0.4322933231
N        3.4404970354    0.8883195545    0.6633737188
N        4.8979561372   -0.3344879684   -0.4898076101
N        1.3119510829   -0.8476545246   -0.1107331972
O        2.8568117340   -2.0878785058   -1.2956215239
H        4.8711131142    2.3277707621    1.3761170583
H        6.6849138224    0.7987145290   -0.0646723672
H       -0.3131328196   -2.0559872574    0.4767542518
H        0.4678464280   -2.4767799838   -1.0663533873
H       -0.6018355986   -1.0574310801   -0.9720722256
H        5.2202277802   -1.0899096162   -1.0838356691
H        1.2279174282   -0.0268291720    0.4791528496
16   
torsion grid (15,)
C        4.6747718447    1.3885807096    0.8097656637
C        5.5848438081    0.6695543982    0.0536620490
C        3.5596438621   -0.1961684048   -0.1222476595
C        2.5285901443   -1.1854088764   -0.5204619949
C        0.1088080401   -1.6670604978   -0.4398633914
N        3.4205691026    0.8363845908    0.7001408627
N        4.8542821783   -0.3391708541   -0.5291833450
N        1.2586470265   -0.8040164242   -0.2252517732
O        2.8469842310   -2.2248620108   -1.1111280881
H        4.8612080148    2.2611223093    1.4224249865
H        6.6457180984    0.7902432605   -0.1126020988
H       -0.2255241333   -2.1337726052    0.4947463679
H        0.3985021542   -2.4519879265   -1.1391948249
H       -0.7186328640   -1.0920291962   -0.8662782449
H        5.1736855383   -1.0941957883   -1.1251070615
H        1.1663992210    0.0408667412    0.3286983452
16   
torsion grid (30,)
C        4.6722006587    1.4608416003    0.8654870324
C        5.5721808318    0.7908936057    0.0553893530
C        3.5629841653   -0.1221023021   -0.0793841178
C        2.5629950319   -1.1690737468   -0.4095089553
C        0.1527706622   -1.6797812692   -0.4094167470
N        3.4304622356    0.8752790529    0.7865089228
N        4.8477093867   -0.2198965587   -0.5321213842
N        1.2717686509   -0.7578008967   -0.2817003014
O        2.9194912799   -2.2687103874   -0.8471315765
H        4.8577231149    2.3180452896    1.4996456998
H        6.6214821459    0.9485406662   -0.1491315143
H       -0.1159499669   -2.1334660266    0.5527659989
H        0.4383878634   -2.4737934303   -1.1002207462
H       -0.7153128374   -1.1488103647   -0.8090264207
H        5.1763681898   -0.9639164133   -1.1364115668
H        1.1396949641    0.1203296272    0.2094022578
16   
torsion grid (45,)
C        4.7158264868    1.4091851982    0.9277691422
C        5.5640774242    0.8060649819    0.0176410035
C        3.5535562403   -0.1174134296   -0.0491424487
C        2.5590469607   -1.1873766411   -0.3365049987
C        0.1483188923   -1.6814115376   -0.4460293420
N        3.4760641735    0.8128179464    0.8941473360
N        4.8091324205   -0.1726340117   -0.5876416160
N        1.2668602296   -0.7527570119   -0.3502167064
O        2.9245544540   -2.3233183392   -0.6529942461
H        4.9359067478    2.2242005045    1.6050003925
H        6.5948842458    0.9916476508   -0.2483769074
H       -0.1670971461   -2.0468443352    0.5391529756
H        0.4605811190   -2.5342878917   -1.0494853533
H       -0.6961862852   -1.1854917492   -0.9315425899
H        5.1158427163   -0.8830193928   -1.2412871434
H        1.1102439764    0.1580426172    0.0684710484
16   
torsion grid (60,)
C        4.7758245611    1.3644389528    0.9940583090
C        5.5482564260    0.8368236592   -0.0217514755
C        3.5484625279   -0.1172586918    0.0247179380
C        2.5552758581   -1.2076896954   -0.2175902602
C        0.1521000302   -1.6941593022   -0.4671107853
N        3.5443945981    0.7478723218    1.0295244739
N        4.7551568507   -0.1165945415   -0.6221311307
N        1.2740831602   -0.7672924742   -0.3805688415
O        2.9213119263   -2.3721955086   -0.3896109869
H        5.0424643943    2.1391146754    1.7012137545
H        6.5485409062    1.0584582940   -0.3653877212
H       -0.2309553849   -1.9679282475    0.5235956679
H        0.4923675615   -2.5995742780   -0.9705188031
H       -0.6519827767   -1.2371905636   -1.0495698879
H        5.0242627992   -0.7789265069   -1.3389983768
H        1.0942463390    0.1811229917   -0.0700111318
16   
torsion grid (75,)
C        4.8448799930    1.3147024209    1.0551703863
C        5.5176840731    0.8725020931   -0.0644195517
C        3.5459296671   -0.1260865701    0.1188487928
C        2.5397729073   -1.2212614603   -0.0886865598
C        0.1567356815   -1.6907665367   -0.5151902975
N        3.6298428035    0.6723065897    1.1715859484
N        4.6794347445   -0.0553660770   -0.6484802510
N        1.2903318217   -0.7783936546   -0.4148613133
O        2.8788843125   -2.4041551109   -0.0898057837
H        5.1694964770    2.0467506404    1.7831090268
H        6.4746143631    1.1364560136   -0.4914025526
H       -0.3080434588   -1.8747342578    0.4609374712
H        0.5135161819   -2.6409031063   -0.9139090148
H       -0.5878938846   -1.2695501477   -1.1952624839
H        4.8880371453   -0.6505224668   -1.4400049778
H        1.1055653702    0.2010172991   -0.2313021450
16   
torsion grid (90,)
C        4.9157930536    1.2411355701    1.0864113055
C        5.4494837122    0.9149899091   -0.1407924215
C        3.5580681340   -0.1884564239    0.2217105567
C        2.5165129518   -1.2627039640    0.0398764910
C        0.1701722810   -1.6852196736   -0.5914158614
N        3.7463332779    0.5402933736    1.3076446106
N        4.5695861836   -0.0024080859   -0.6855996094
N        1.3287917844   -0.8083407931   -0.4595647709
O        2.7732643133   -2.4483361413    0.2322382906
H        5.3065395850    1.9326038806    1.8214848703
H        6.3359996727    1.2448355726   -0.6632080337
H       -0.3864113623   -1.7692479616    0.3495624284
H        0.5186972657   -2.6785780782   -0.8759074148
H       -0.4914733602   -1.2963442677   -1.3693580696
H        4.6866376372   -0.5076088124   -1.5544740531
H        1.1740378426    0.1915469767   -0.4117696800
16   
torsion grid (105,)
C        4.9319535199    1.1857941368    1.0769132423
C        5.3167480085    0.9736633544   -0.2286120161
C        3.5488213722   -0.2649534981    0.2944958963
C        2.4515532063   -1.2848955445    0.1341042306
C        0.1740546981   -1.6437913486   -0.7290647830
N        3.8334772679    0.4108534617    1.3921622620
N        4.4131656756    0.0505639914   -0.7248897262
N        1.3734544312   -0.8261216195   -0.5750926264
O        2.5478341825   -2.4316975329    0.5579019974
H        5.3808058933    1.8490274100    1.8048465561
H        6.1206160640    1.3748855698   -0.8290006731
H       -0.4120116024   -1.6838953463    0.1965013207
H        0.4694598547   -2.6610207111   -0.9903561990
H       -0.4407111401   -1.2284644258   -1.5308239942
H        4.4316476175   -0.3760298761   -1.6422951668
H        1.2873693166    0.1777317572   -0.6754520381
16   
torsion grid (120,)
C        4.9978354368    1.1098534727    1.0895382086
C        5.2212489580    1.0262381258   -0.2686262205
C        3.5691927439   -0.3222546652    0.3569982815
C        2.4314418743   -1.2928355260    0.2278915934
C        0.2183588327   -1.6402172332   -0.7878184416
N        3.9686585879    0.2737746990    1.4658419214
N        4.2845295151    0.1215279182   -0.7318480601
N        1.4489904925   -0.8691135947   -0.6365443895
O        2.3962333378   -2.3672106805    0.8156449750
H        5.5158383309    1.7263193562    1.8127490041
H        5.9412187741    1.4986159411   -0.9216130665
H       -0.4329746369   -1.5448125666    0.0889159727
H        0.4729949824   -2.6940393440   -0.9089641132
H       -0.3137215959   -1.2926788127   -1.6764190596
H        4.2059851017   -0.2328174427   -1.6766291702
H        1.4125195302    0.1238212162   -0.8317778833
16   
torsion grid (135,)
C        5.1029743370    1.0612835165    1.0974165635
C        5.1955840324    1.0710812322   -0.2797824398
C        3.5880000933   -0.3018245309    0.4075763095
C        2.4358396402   -1.2509328583    0.3205405964
C        0.2898421315   -1.6902101258   -0.7903704317
N        4.1040029803    0.2101702637    1.5112080482
N        4.2048583399    0.2128416636   -0.7126635922
N        1.5228891601   -0.9171699602   -0.6611773333
O        2.3290497596   -2.2448672856    1.0272626559
H        5.6963055719    1.6221481038    1.8079984944
H        5.8582187299    1.5821527727   -0.9637448050
H       -0.3924246878   -1.5175137803    0.0503516289
H        0.5373274356   -2.7523498700   -0.8133698031
H       -0.2052540029   -1.4155738607   -1.7247362656
H        4.0466141106   -0.0916396044   -1.6649562532
H        1.4819007909    0.0615892978   -0.9192035699
16   
torsion grid (150,)
C        5.1691650565    0.9775215893    1.1074665056
C        5.1642581122    1.0796130796   -0.2702378294
C        3.5382386574   -0.2581226257    0.4426322702
C        2.3686714875   -1.1811284874    0.3785962550
C        0.3019583423   -1.7248309627   -0.8242245427
N        4.1632926975    0.1452717968    1.5358152193
N        4.1051989727    0.3002810468   -0.6852005002
N        1.5305483259   -0.9419758583   -0.7000400450
O        2.1938612140   -2.0982240026    1.1696316513
H        5.8395651849    1.4597236332    1.8072524351
H        5.8007550837    1.6087520165   -0.9653432773
H       -0.4171809740   -1.4930175226   -0.0296980560
H        0.5485546451   -2.7853235739   -0.7584860333
H       -0.1499828255   -1.5209968619   -1.7977865367
H        3.8867123978    0.0465880633   -1.6404821353
H        1.4794955862    0.0211400851   -1.0116184243
16   
torsion grid (165,)
C        5.0442398045    1.3603555455   -0.2142389859
C        5.1838253944    0.4143442156    0.7836987625
C        3.2538111283    0.1682860880   -0.2934776163
C        1.8966981371   -0.3547990094   -0.6143298167
C        0.3606587442   -2.2522074229   -0.4308510014
N        3.8459753279    1.2043612491   -0.8645661415
N        4.0403674781   -0.3512568502    0.7168677042
N        1.6456284393   -1.6279545333   -0.1148627674
O        1.0483737946    0.3082197652   -1.1949181722
H        5.7418014037    2.1397179255   -0.4931042576
H        5.9622871062    0.2293335307    1.5105093730
H        0.2726435656   -3.1818330397    0.1363042900
H        0.2533695982   -2.4624903284   -1.5016071559
H       -0.4435369161   -1.5765232943   -0.1370141588
H        3.7462028700   -1.0368858130    1.4005918418
H        2.4413566646   -2.2563771147   -0.1072171463
16   
torsion grid (180,)
C        5.0896953849    1.5446222151   -0.0207838187
C        5.3413901223    0.4368623524    0.7663962349
C        3.3389155878    0.3012336046   -0.1957898015
C        2.0515916524   -0.2837420797   -0.6657061065
C        0.4273553071   -2.0993381734   -0.4472751776
N        3.8600402187    1.4424521321   -0.6179990015
N        4.2156667300   -0.3484388472    0.6541672443
N        1.7083719916   -1.4962949706   -0.0755069737
O        1.3985992639    0.2106777123   -1.5740806896
H        5.7306623166    2.4008315340   -0.1876228954
H        6.1888490068    0.1485189581    1.3724703614
H        0.3634661843   -3.0920421550    0.0045055680
H        0.3842112717   -2.1971461454   -1.5325785843
H       -0.4278057729   -1.4924919293   -0.1265340053
H        4.1383925050   -1.3015258811    0.9835263244
H        1.9509898839   -1.5919420067    0.9041873322
