25   
torsion grid (-165,)
C        4.4059243975   -4.0537004663    1.2154308301
C        4.5428874855   -4.6945489033    2.4467432700
C        4.0840678750   -2.5923863203    3.5836233464
C        6.9818203003   -3.7813939855   -2.2200637175
C        7.3902885444   -1.8326574691   -1.2480699733
C        8.0012623279   -2.8102221246   -2.0160702534
C        4.1081981960   -2.6900096259    1.1507566372
C        4.3827689371   -3.9544937290    3.6200570990
C        3.9463597654   -1.9677849955    2.3421780448
C        5.0146663294   -1.3833861320   -0.5984591165
N        5.8371046749   -3.4305308118   -1.6314298523
N        6.1071318629   -2.2677317978   -0.9962487160
N        9.3058693889   -2.8224286686   -2.5514589924
O        3.9124455693   -2.0930719754   -0.0802634251
Cl       4.5549409875   -4.7464548693    5.1771166247
Cl       3.5514048851   -0.2614343223    2.2879848242
H        4.5373815682   -4.5861442336    0.2796001187
H        4.7740610106   -5.7535458194    2.4958742186
H        3.9522494499   -2.0263867002    4.4991092580
H        7.0453897605   -4.7169062498   -2.7643034073
H        7.7678225310   -0.9041778219   -0.8400035892
H        5.4216473682   -0.6661696894    0.1222110201
H        4.6217511325   -0.8525971841   -1.4700971873
H        9.6711163864   -3.7648570933   -2.6439811052
H        9.9566646444   -2.2691987484   -2.0035703439
25   
torsion grid (-150,)
C        4.4310895002   -4.0210906169    1.1599413523
C        4.6772110684   -4.6618421815    2.3742637392
C        4.2955013579   -2.5655373203    3.5487477679
C        6.9220036079   -3.7479989254   -2.2523851862
C        7.3056226585   -1.8740768366   -1.1324616932
C        7.9568887236   -2.8507074182   -1.8685432349
C        4.1155720006   -2.6601458305    1.1223231336
C        4.6087787047   -3.9248964596    3.5584064597
C        4.0492955259   -1.9405795361    2.3243904515
C        4.8850805649   -1.3610601503   -0.6966847934
N        5.7304836764   -3.3569760392   -1.7950252383
N        5.9784592857   -2.2380488528   -1.0801622210
N        9.3175623607   -2.9152654619   -2.2353730377
O        3.8183690167   -2.0649493659   -0.0877479499
Cl       4.9179535735   -4.7163016114    5.0944951627
Cl       3.6408537162   -0.2367813380    2.3055191183
H        4.4870967120   -4.5539437948    0.2165557841
H        4.9215305293   -5.7186385306    2.4018239937
H        4.2359460848   -2.0016317737    4.4730350313
H        7.0047653758   -4.6570695192   -2.8372754824
H        7.6750991021   -0.9901343005   -0.6297713888
H        5.3008586373   -0.5953537738   -0.0339379826
H        4.4407640589   -0.8927963403   -1.5782971981
H        9.6388097258   -3.8727245684   -2.3367418559
H        9.9208286965   -2.4344279989   -1.5760082537
25   
torsion grid (-135,)
C        4.4698916143   -4.0029639851    1.0868065854
C        4.8163141057   -4.6512709452    2.2722522256
C        4.4568593151   -2.5790571250    3.4972424739
C        6.8577765535   -3.6982901547   -2.2803850136
C        7.1947293743   -1.9106198501   -1.0139709169
C        7.8816646856   -2.8877850145   -1.7166725804
C        4.1143074170   -2.6512735524    1.0873582547
C        4.8072549239   -3.9291575728    3.4674024317
C        4.1121430141   -1.9472856830    2.3004519913
C        4.7542040884   -1.3358197544   -0.7688674970
N        5.6392789686   -3.2594255018   -1.9544985194
N        5.8548491730   -2.1883119764   -1.1626746969
N        9.2731475457   -3.0141517788   -1.9140278725
O        3.7272834595   -2.0503198009   -0.0929269437
Cl       5.2413158431   -4.7290542252    4.9684351424
Cl       3.6637378195   -0.2540405717    2.3294979105
H        4.4752270683   -4.5255676412    0.1359090878
H        5.0914181922   -5.7008450479    2.2692723817
H        4.4452208218   -2.0274706226    4.4308022951
H        6.9659091360   -4.5762530966   -2.9070744821
H        7.5419476165   -1.0767235753   -0.4188900816
H        5.1665998327   -0.5368107331   -0.1452065712
H        4.2619717040   -0.9144455850   -1.6471479481
H        9.5511354255   -3.9815110165   -2.0450715170
H        9.8108880885   -2.6192420094   -1.1492462117
25   
torsion grid (-120,)
C        4.5056300992   -3.9797123703    0.9986957519
C        4.9422990913   -4.6350343165    2.1497577655
C        4.6298571745   -2.5850454792    3.4229588688
C        6.8130424979   -3.6307438333   -2.2974365409
C        7.0820765742   -1.9320098018   -0.8976739111
C        7.7985112071   -2.9133699813   -1.5636276188
C        4.1265397208   -2.6348373115    1.0403081834
C        5.0008315145   -3.9281329323    3.3525650074
C        4.1953732281   -1.9454670037    2.2599321281
C        4.6432879175   -1.2954805802   -0.8396984405
N        5.5882237821   -3.1361643454   -2.1007988445
N        5.7610305613   -2.1124762419   -1.2390397482
N        9.1951404411   -3.1117622226   -1.5953448683
O        3.6596376021   -2.0274230794   -0.1060521617
Cl       5.5486398976   -4.7383392574    4.8103009004
Cl       3.7267676863   -0.2594198964    2.3393729989
H        4.4576134434   -4.4922568118    0.0433218864
H        5.2354353661   -5.6791041873    2.1145651945
H        4.6717867897   -2.0445286861    4.3621246323
H        6.9542279380   -4.4766262993   -2.9605856577
H        7.3935957266   -1.1508402155   -0.2175694738
H        5.0357107453   -0.4620339564   -0.2502312037
H        4.1113005289   -0.9263139263   -1.7170629368
H        9.4360765151   -4.0846463972   -1.7554485397
H        9.6509204500   -2.7966181060   -0.7450606617
25   
torsion grid (-105,)
C        4.5541397282   -3.9627672560    0.9133472107
C        5.0570951202   -4.6237143199    2.0333571994
C        4.7665349633   -2.5955305878    3.3460931708
C        6.7886060115   -3.5594182793   -2.3267042003
C        6.9823024290   -1.9751149959   -0.7864147828
C        7.7155828549   -2.9591287772   -1.4284110520
C        4.1516430506   -2.6260454602    0.9893285640
C        5.1590426302   -3.9302220942    3.2411637065
C        4.2657819840   -1.9502283188    2.2131144307
C        4.5708539391   -1.2580261465   -0.8997580584
N        5.5804554894   -2.9975248001   -2.2441127456
N        5.7096501592   -2.0320477380   -1.3091428867
N        9.0906696445   -3.2498274379   -1.3077843493
O        3.6271878495   -2.0144727075   -0.1278967649
Cl       5.7910154987   -4.7469979959    4.6606503181
Cl       3.7746476340   -0.2734612408    2.3345816130
H        4.4725182506   -4.4651475531   -0.0453711417
H        5.3684884918   -5.6611812397    1.9706046190
H        4.8431284833   -2.0654514667    4.2890355807
H        6.9632320589   -4.3649300203   -3.0308670948
H        7.2506692798   -1.2632153472   -0.0177073677
H        4.9343046097   -0.3984261069   -0.3300049880
H        4.0107826948   -0.9321616989   -1.7755343044
H        9.2898132960   -4.2274597502   -1.4942204976
H        9.4593257515   -3.0077788461   -0.3936970321
25   
torsion grid (-90,)
C        4.6262122350   -3.9523111297    0.8812292139
C        5.1807171004   -4.5845478533    1.9929339513
C        4.8778244982   -2.5491753983    3.2908316235
C        6.8038243065   -3.4753880044   -2.3694566373
C        6.8884049104   -2.0187534975   -0.6985002421
C        7.6457091944   -2.9912751569   -1.3271186212
C        4.1910705387   -2.6255405661    0.9534151528
C        5.3033240671   -3.8738584167    3.1889999111
C        4.3233872762   -1.9331122577    2.1663149507
C        4.5104135870   -1.2510073844   -0.9625037656
N        5.6202190550   -2.8606338471   -2.3789846905
N        5.6887858045   -1.9559383705   -1.3754978536
N        8.9815209393   -3.3646651886   -1.0730823628
O        3.6211408058   -2.0450783858   -0.1556838663
Cl       6.0037466794   -4.6555803074    4.5959618705
Cl       3.7891351815   -0.2698528178    2.2852479792
H        4.5308620677   -4.4687261888   -0.0689679339
H        5.5181571116   -5.6139502399    1.9324923675
H        4.9693171601   -2.0050682336    4.2244518588
H        7.0256434788   -4.2335466824   -3.1119763015
H        7.0979426256   -1.3787809808    0.1478103859
H        4.8193969891   -0.3588029510   -0.4109211026
H        3.9260480632   -0.9828818351   -1.8407755518
H        9.1592938708   -4.3333149045   -1.3183610823
H        9.2494181993   -3.2144138266   -0.1057786447
25   
torsion grid (-75,)
C        2.8761762810   -2.3065141948   -2.3296913156
C        1.7804255188   -2.7599617528   -3.0697863793
C        0.6157101415   -3.3168356251   -1.0179728066
C        7.0795015829   -2.8747538349   -2.8996342407
C        6.8777215195   -2.8433224857   -0.6894948174
C        7.6285539985   -3.4163334228   -1.7029420484
C        2.8509733039   -2.3430501112   -0.9302906638
C        0.6596678975   -3.2604032211   -2.4120552726
C        1.7092298473   -2.8580166751   -0.2871064968
C        4.9671553789   -1.1989739535   -0.6572719792
N        6.0687270631   -2.0421172467   -2.6471140609
N        5.9488007568   -2.0334468823   -1.2999048003
N        8.7499687901   -4.2633893237   -1.5958993525
O        3.8634754802   -1.9143954958   -0.1128318015
Cl      -0.7169517480   -3.8378634004   -3.3376089105
Cl       1.6516006432   -2.9214280440    1.4601935813
H        3.7589960999   -1.9606900677   -2.8549455863
H        1.8111295436   -2.7312860785   -4.1540495769
H       -0.2555530985   -3.7068166945   -0.5034432962
H        7.3884500558   -3.0561732985   -3.9224090220
H        6.9161420560   -2.9526519668    0.3858554888
H        5.4175176102   -0.7090820659    0.2070527532
H        4.6425122021   -0.4543560173   -1.3877035479
H        8.8157351151   -4.9096613628   -2.3758380504
H        8.7572526487   -4.7908763525   -0.7289691542
25   
torsion grid (-60,)
C        3.2301439349   -2.8682802977   -2.4611336567
C        2.3371084591   -3.4443996207   -3.3691288692
C        1.2940718030   -4.6824405468   -1.5646862598
C        7.3803181438   -2.5288923240   -2.8698195848
C        6.9341541232   -3.2260605911   -0.8087844781
C        7.8083940866   -3.4394701925   -1.8628749357
C        3.1620814592   -3.1846355173   -1.0987956310
C        1.3760616082   -4.3448647108   -2.9167462235
C        2.1865901800   -4.1026406237   -0.6660842226
C        4.9570023496   -1.6953433714   -0.4771542640
N        6.3216224571   -1.8185634488   -2.4752268808
N        6.0649404959   -2.2434478099   -1.2173590806
N        8.9318271952   -4.2888679501   -1.9150076500
O        3.9772339472   -2.6647808001   -0.1274698976
Cl       0.2544177076   -5.0762648424   -4.0530435910
Cl       2.0844249354   -4.5255864260    1.0282309861
H        3.9937094847   -2.1965183626   -2.8351923380
H        2.4008636574   -3.1949437270   -4.4231848079
H        0.5473606972   -5.3844499284   -1.2103790405
H        7.8032937962   -2.3684699921   -3.8545440850
H        6.8524696873   -3.6869344477    0.1661681036
H        5.2981325375   -1.3131438691    0.4865743011
H        4.5411127212   -0.8837339673   -1.0791062759
H        9.0878023733   -4.6592817151   -2.8471233561
H        8.8656020812   -5.0608565655   -1.2596155733
25   
torsion grid (-45,)
C        3.0785928709   -2.2289889378   -2.3054602597
C        2.1016337476   -2.9013611194   -3.0449063955
C        0.9766240976   -3.5350784542   -0.9930480565
C        7.1432035908   -2.6022126958   -2.8496387434
C        6.4673158483   -2.9200583258   -0.7574759154
C        7.2534777332   -3.4928984628   -1.7459071629
C        3.0130416582   -2.1955989088   -0.9071464429
C        1.0584284537   -3.5477312897   -2.3865735077
C        1.9541707024   -2.8622190874   -0.2634759975
C        5.0029824864   -0.8652494759   -0.6837379616
N        6.3436771135   -1.5684591635   -2.5723227217
N        5.9609732021   -1.7603852324   -1.2905980816
N        8.0578857262   -4.6476541673   -1.6667583794
O        3.9121118128   -1.5545834065   -0.0936879541
Cl      -0.1691623802   -4.3975169856   -3.3106366224
Cl       1.8570092131   -2.8500318645    1.4826699069
H        3.8984338512   -1.7565617997   -2.8337119211
H        2.1628132229   -2.9238394105   -4.1279393939
H        0.1663110402   -4.0391521072   -0.4779945682
H        7.6090355666   -2.6789267187   -3.8250403619
H        6.2304886756   -3.2336973150    0.2498975327
H        5.4521423134   -0.3273526304    0.1538732845
H        4.6907046897   -0.1600100981   -1.4581725927
H        8.1128657232   -5.1362537933   -2.5548132236
H        7.7384289505   -5.2946222588   -0.9530736093
25   
torsion grid (-30,)
C        3.4303592378   -2.8406438488   -2.4051925120
C        2.6412893083   -3.5322593316   -3.3279175980
C        1.5376003907   -4.7005180492   -1.5129002110
C        7.5110675836   -2.2892667791   -2.6755056223
C        6.6142551884   -3.2956901911   -0.9099639935
C        7.5605669428   -3.4840201460   -1.9067453426
C        3.2777026528   -3.0635621501   -1.0310591454
C        1.7006916679   -4.4555175448   -2.8774391905
C        2.3272184313   -4.0058454320   -0.5989068549
C        4.9475646887   -1.4523376698   -0.4354367852
N        6.5974801363   -1.4352634753   -2.2021998235
N        6.0901298950   -2.0421232598   -1.1074950199
N        8.4411226303   -4.5709082306   -2.0838288349
O        3.9994422814   -2.4300880814   -0.0500579362
Cl       0.7098361703   -5.3313162872   -4.0319132024
Cl       2.1305222396   -4.3170873827    1.1103613686
H        4.1758566817   -2.1464095882   -2.7755048380
H        2.7686847225   -3.3545228293   -4.3906106917
H        0.8072728702   -5.4203704804   -1.1602270970
H        8.0952353284   -2.0262504662   -3.5495338987
H        6.2839143927   -3.9291175262   -0.0986203064
H        5.2472263456   -0.9903603239    0.5082753204
H        4.5331187853   -0.6945649069   -1.1053973774
H        8.6330467695   -4.7507336715   -3.0642950394
H        8.0958498955   -5.4227710438   -1.6535355146
25   
torsion grid (-15,)
C        3.4774548336   -2.8908549431   -2.3969278603
C        2.6726408113   -3.5902990795   -3.2994617788
C        1.5015934948   -4.6325488807   -1.4493136698
C        7.7374193247   -2.1521726619   -2.4844214720
C        6.5500467848   -3.3212770437   -1.0151339511
C        7.6080313556   -3.4426879620   -1.9056106904
C        3.2982689705   -3.0449708731   -1.0167063621
C        1.6908549767   -4.4552064695   -2.8208344720
C        2.3060139994   -3.9278951322   -0.5555466506
C        4.9575990123   -1.4139003892   -0.4778133278
N        6.8250462872   -1.3009351600   -1.9998580793
N        6.1405984321   -2.0127793581   -1.0821032678
N        8.4333982106   -4.5644013417   -2.1335710954
O        4.0389836535   -2.3986096495   -0.0571161618
Cl       0.6810374411   -5.3427375555   -3.9487477621
Cl       2.0755008526   -4.1513971834    1.1623137005
H        4.2565885313   -2.2450078211   -2.7853586396
H        2.8200084036   -3.4662451843   -4.3671512273
H        0.7388398113   -5.3066570515   -1.0754622447
H        8.4477257657   -1.8160339347   -3.2306618778
H        6.0849149067   -4.0312321560   -0.3463847507
H        5.2259304599   -0.8802950642    0.4371410400
H        4.5284949342   -0.7130717005   -1.1991423416
H        8.7469197174   -4.6160810324   -3.0977241844
H        7.9748548631   -5.4364558511   -1.8898429180
25   
torsion grid (0,)
C        5.6839542508   -3.4669828814    1.2033897306
C        5.9936312603   -4.3848814063    2.2096788945
C        3.7229144231   -5.2337390450    2.1311880874
C        7.7727904609   -1.7251056805   -2.5962684530
C        6.1397913139   -3.1487745395   -2.1019795668
C        7.3418005733   -3.0631078889   -2.7928536940
C        4.3948942468   -3.4126491234    0.6598880949
C        5.0115878176   -5.2613654210    2.6668318871
C        3.4207086234   -4.3100012681    1.1319174288
C        4.8598774165   -1.4752867522   -0.6590713522
N        6.9095276618   -1.0359090055   -1.8388660663
N        5.9158172529   -1.9026682092   -1.5722499197
N        7.9592274064   -4.0490614652   -3.5935767453
O        4.0044755840   -2.5455110933   -0.3312561419
Cl       5.3935423825   -6.4223422526    3.9254485631
Cl       1.8087329303   -4.2717988744    0.4604319813
H        6.4655393960   -2.8138829441    0.8325619513
H        6.9957816098   -4.4205173601    2.6237462175
H        2.9586320474   -5.9165540993    2.4856561560
H        8.6662921536   -1.2418214064   -2.9736213597
H        5.4368233761   -3.9595070259   -1.9787640743
H        5.3153706092   -1.0249904368    0.2281748656
H        4.2279278557   -0.7366616229   -1.1568138324
H        7.6830011098   -4.9889078722   -3.3280640533
H        8.9717781349   -3.9836261619   -3.5619816801
25   
torsion grid (15,)
C        5.6824077303   -3.3740770922    1.1787155032
C        6.0572612319   -4.2997764658    2.1554643467
C        3.8491651189   -5.2993679958    2.0609715003
C        7.8755845140   -1.9216147643   -2.2375581858
C        5.9908876434   -3.0959709755   -2.1867868863
C        7.2880028136   -3.1368456336   -2.6794796996
C        4.3893371412   -3.3931544173    0.6417220632
C        5.1401519730   -5.2544494355    2.5898046146
C        3.4821637285   -4.3692874044    1.0900675090
C        4.7643294130   -1.4480453715   -0.6914488468
N        7.0155588924   -1.1897328169   -1.5190135586
N        5.8668567784   -1.8952187801   -1.5329357169
N        7.8786850026   -4.1172171763   -3.5049840566
O        3.9317961722   -2.5245261504   -0.3191681633
Cl       5.6079745960   -6.4244973188    3.8111257277
Cl       1.8687732855   -4.4238933912    0.4208714637
H        6.4165487656   -2.6566997555    0.8300953650
H        7.0616520108   -4.2793592818    2.5651632241
H        3.1348320573   -6.0428261662    2.3971847760
H        8.8822361740   -1.5585336230   -2.4083482556
H        5.1667935802   -3.7903912415   -2.2662541939
H        5.1885479096   -0.9220679314    0.1681332229
H        4.1088987225   -0.7738455638   -1.2479087232
H        7.4207007137   -5.0190454456   -3.4207608057
H        8.8685046780   -4.2317521553   -3.3107668837
25   
torsion grid (30,)
C        5.6683574513   -3.2972224277    1.2288335833
C        6.0669944045   -4.2146270708    2.2044404434
C        3.9191119295   -5.3277107161    2.0400934244
C        7.9292963434   -2.0940063317   -2.0045986960
C        5.9333729315   -3.0250102186   -2.2956975080
C        7.2641289684   -3.1643458134   -2.6623351309
C        4.3930849320   -3.3788086626    0.6558803794
C        5.1916058626   -5.2216106301    2.6041377169
C        3.5283248861   -4.4081992089    1.0689259970
C        4.7302677437   -1.4497687218   -0.7235489689
N        7.0816150444   -1.3590403248   -1.2769587999
N        5.8686988375   -1.9109422196   -1.4959359997
N        7.8337220855   -4.0987919442   -3.5514954741
O        3.9094111217   -2.5228613433   -0.3022463909
Cl       5.6885814074   -6.3802533586    3.8256388066
Cl       1.9381186978   -4.5432580180    0.3546551068
H        6.3725972426   -2.5372325028    0.9104896862
H        7.0577982790   -4.1451333709    2.6410473604
H        3.2371052480   -6.1122875425    2.3487429316
H        8.9823882962   -1.8394788690   -2.0281751550
H        5.0532013074   -3.6044291197   -2.5369964397
H        5.1212759509   -0.8570038335    0.1074850813
H        4.0665928926   -0.8365277752   -1.3377302516
H        7.2743337442   -4.9412176638   -3.6378811767
H        8.7778245708   -4.3560182116   -3.2812669489
25   
torsion grid (45,)
C        5.6634177059   -3.2789238542    1.3193538953
C        6.0517295934   -4.1594825638    2.3328489558
C        3.9441010155   -5.3380314831    2.1234947452
C        7.9756678889   -2.2196084076   -1.9180127492
C        5.9466572980   -2.9530058911   -2.4472348319
C        7.2846086407   -3.1291614474   -2.7660495594
C        4.4131440474   -3.4123788848    0.7030126465
C        5.1918933485   -5.1807242856    2.7293170309
C        3.5638393638   -4.4561980872    1.1143278207
C        4.7451620804   -1.5237951675   -0.7486353804
N        7.1355683784   -1.5452972043   -1.1281621140
N        5.9049241011   -1.9807045155   -1.4783585244
N        7.8480216465   -3.9510489561   -3.7628841196
O        3.9348811307   -2.5947131785   -0.2887301050
Cl       5.6763623886   -6.2924292721    3.9991937004
Cl       2.0031580310   -4.6559785272    0.3505443372
H        6.3576135511   -2.5085907302    1.0046089422
H        7.0237286284   -4.0493555956    2.8021990162
H        3.2733870340   -6.1334693732    2.4290302452
H        9.0420294335   -2.0379513985   -1.8535250199
H        5.0476585111   -3.4295972030   -2.8132153794
H        5.1088980184   -0.8878897604    0.0624421147
H        4.0771005338   -0.9557785294   -1.3996813506
H        7.2457310829   -4.7297168754   -4.0096277883
H        8.7582927714   -4.3099667399   -3.4927021539
25   
torsion grid (60,)
C        5.5878106947   -3.3575874346    1.4131032060
C        5.9167666535   -4.1869834481    2.4890881842
C        3.7979048612   -5.3404339528    2.2538631904
C        8.0110032534   -2.3644552566   -1.8554029484
C        5.9828149284   -2.8704330912   -2.6053746706
C        7.3257662166   -3.0592909609   -2.8916920489
C        4.3621592736   -3.5034770215    0.7518091393
C        5.0219904805   -5.1704154763    2.9030322411
C        3.4765559513   -4.5088072435    1.1836225774
C        4.7543972276   -1.6653516821   -0.7619567692
N        7.1625052030   -1.8012818800   -0.9927453510
N        5.9326668168   -2.1085798567   -1.4630671789
N        7.9048596481   -3.7062602912   -4.0018550263
O        3.9381084552   -2.7340848204   -0.3002534994
Cl       5.4315462027   -6.2193021869    4.2507456102
Cl       1.9427374836   -4.7219744554    0.3699663883
H        6.3102642292   -2.6206832552    1.0825740334
H        6.8705898793   -4.0676038785    2.9923632956
H        3.1000328671   -6.1063893378    2.5735528589
H        9.0796311401   -2.2561391789   -1.7117824060
H        5.0839800610   -3.2154079009   -3.0980006098
H        5.0921390235   -1.0195370095    0.0521599136
H        4.0989457523   -1.1108685920   -1.4358778259
H        7.2885122632   -4.4003880474   -4.4119660441
H        8.7893784924   -4.1463265802   -3.7688438320
25   
torsion grid (75,)
C        5.5849923520   -3.4189260289    1.4800765525
C        5.8578897650   -4.1355056772    2.6488077089
C        3.7071921037   -5.2417964065    2.4790305031
C        8.0564014530   -2.5026165139   -1.8926852566
C        6.0475125490   -2.7587987530   -2.8014633116
C        7.3931079770   -2.9475374642   -3.0712295823
C        4.3712347504   -3.5963782755    0.8050542098
C        4.9198689719   -5.0398013447    3.1402542772
C        3.4403717808   -4.5196801658    1.3180931166
C        4.7826476122   -1.8489491088   -0.8191063446
N        7.1921373269   -2.0822056533   -0.9681298702
N        5.9715784705   -2.2462682306   -1.5274852825
N        7.9980821550   -3.3819000141   -4.2678441214
O        4.0018022669   -2.9375200380   -0.3380678707
Cl       5.2597618519   -5.9487175974    4.6043094399
Cl       1.9175023667   -4.7667852761    0.4932848734
H        6.3413931874   -2.7511472088    1.0842778440
H        6.8031778462   -3.9936481031    3.1623536211
H        2.9757699024   -5.9460413706    2.8598129767
H        9.1210699018   -2.4691837111   -1.6931896408
H        5.1604056261   -2.9547613354   -3.3883908655
H        5.0917456248   -1.1864189395   -0.0073405925
H        4.1125699249   -1.3240699491   -1.5010260363
H        7.3792332991   -3.9578308310   -4.8292571627
H        8.8587930836   -3.8920630133   -4.0969224763
25   
torsion grid (90,)
C        3.1885919212   -3.7333227333   -1.1501837297
C        2.3716583507   -4.2260856127   -2.1664195468
C        1.2888281341   -2.0534441256   -2.3311081204
C        7.0581435829   -3.5568410591   -1.7883343001
C        5.7387865098   -1.8906057425   -2.4237765561
C        6.5211391437   -2.9091738297   -2.9381370122
C        3.0718140608   -2.4112782305   -0.7099234710
C        1.4288599395   -3.3768175025   -2.7498852483
C        2.1155957738   -1.5787422877   -1.3101245555
C        5.0585519450   -1.2549006458   -0.0902459251
N        6.6374298631   -2.9909119986   -0.6563793311
N        5.8540892320   -1.9607972769   -1.0512876143
N        6.8116353817   -3.1980371233   -4.2872800169
O        3.8779965860   -1.9739921258    0.3150552780
Cl       0.3952746493   -3.9788682521   -4.0346252456
Cl       1.9459659864    0.0824568334   -0.7817354731
H        3.9451321637   -4.3583695056   -0.6859934479
H        2.4673556005   -5.2522540686   -2.5056306799
H        0.5494378418   -1.4019541373   -2.7837627740
H        7.7406758615   -4.3983491571   -1.7514791119
H        5.1330519733   -1.1350442481   -2.9053929528
H        5.6319197651   -1.1238382052    0.8257438488
H        4.7795929028   -0.2886754223   -0.5190654961
H        6.0687290473   -2.9082239512   -4.9150345311
H        7.0013406350   -4.1843078918   -4.4332605872
25   
torsion grid (105,)
C        3.1418628540   -3.7372453328   -1.1356536218
C        2.2796153176   -4.2418465869   -2.1083584579
C        1.1659610613   -2.0814506858   -2.2255265582
C        7.0359674787   -3.6435019010   -1.8039743725
C        5.8796941908   -1.8748601965   -2.4784134099
C        6.6705134716   -2.9030135833   -2.9636038929
C        3.0313651437   -2.4150515045   -0.6949577999
C        1.2986400873   -3.4053962820   -2.6451092328
C        2.0392582470   -1.5938058636   -1.2506963478
C        5.0414391343   -1.2680059430   -0.1827741079
N        6.5113060924   -3.1204415605   -0.6935678555
N        5.8142531926   -2.0428237822   -1.1131009345
N        7.1073932666   -3.1260513351   -4.2861450612
O        3.8773067019   -1.9598541296    0.2921646388
Cl       0.2056374980   -4.0245385934   -3.8712993472
Cl       1.8825805561    0.0683056586   -0.7209429627
H        3.9249744963   -4.3534349539   -0.7052927749
H        2.3683799742   -5.2684821519   -2.4480389023
H        0.3977246856   -1.4397790198   -2.6427312243
H        7.6663039925   -4.5232710730   -1.7416060726
H        5.3694097976   -1.0620585110   -2.9771119361
H        5.6286719172   -1.0714244895    0.7136005308
H        4.7599650205   -0.3330556545   -0.6748467919
H        6.4556032792   -2.7662172410   -4.9758630886
H        7.2714477885   -4.1104829004   -4.4708325064
25   
torsion grid (120,)
C        3.0436268656   -3.7423786527   -1.1229762682
C        2.1284880383   -4.2487340302   -2.0455174882
C        1.0414724827   -2.0736456816   -2.1430386779
C        7.0201766941   -3.7011384258   -1.8342454577
C        6.0252587936   -1.8434025583   -2.5249733752
C        6.8361024614   -2.8724836541   -2.9760743953
C        2.9726449513   -2.4121904046   -0.6988321018
C        1.1351440105   -3.4055349930   -2.5477145717
C        1.9667511983   -1.5842831851   -1.2184413190
C        5.0100014443   -1.2829741485   -0.2867331759
N        6.3751056721   -3.2265817168   -0.7655137468
N        5.7633578207   -2.1050579221   -1.1994682029
N        7.4312625485   -3.0286184028   -4.2458790569
O        3.8672248502   -1.9552091454    0.2455931175
Cl      -0.0245327442   -4.0262504058   -3.7101537913
Cl       1.8550403387    0.0865589762   -0.7037184680
H        3.8371802862   -4.3628338462   -0.7191830536
H        2.1858113783   -5.2817283077   -2.3724827624
H        0.2629405829   -1.4271666706   -2.5327578985
H        7.6006050232   -4.6132147634   -1.7540600788
H        5.6124046550   -0.9796358801   -3.0282457247
H        5.6139044785   -1.0361796749    0.5870660990
H        4.7198170497   -0.3741530442   -0.8213894434
H        6.8819012393   -2.6044091489   -4.9863552371
H        7.5889874237   -4.0052506059   -4.4728240755
25   
torsion grid (135,)
C        2.9520610552   -3.7708232526   -1.1172316460
C        1.9665837729   -4.2730729729   -1.9670427023
C        0.8869144722   -2.0925665120   -1.9920992068
C        7.0203187889   -3.7590200222   -1.8811781143
C        6.1675873169   -1.8346063832   -2.5763272461
C        7.0059424774   -2.8602232495   -2.9834619672
C        2.9194346100   -2.4387239563   -0.6954468022
C        0.9430958404   -3.4262672678   -2.3975765847
C        1.8814438531   -1.6069416849   -1.1404076320
C        4.9790419718   -1.3135319983   -0.4171118262
N        6.2555217748   -3.3258672969   -0.8757245804
N        5.7204593068   -2.1688428972   -1.3181990567
N        7.7534266752   -2.9636730851   -4.1758125098
O        3.8781901060   -1.9820549568    0.1855724510
Cl      -0.3035437556   -4.0441839032   -3.4679052599
Cl       1.8152148990    0.0645538675   -0.6201758474
H        3.7696223839   -4.3939382346   -0.7697815205
H        1.9929146724   -5.3075799117   -2.2931402960
H        0.0849533774   -1.4427709145   -2.3245706629
H        7.5573108418   -4.6959940277   -1.7865111167
H        5.8449894143   -0.9305711868   -3.0750552573
H        5.6052898279   -1.0057644860    0.4221409862
H        4.6548887474   -0.4389346085   -0.9893288510
H        7.3217963910   -2.4670257867   -4.9484988657
H        7.9003893534   -3.9302525656   -4.4485349771
25   
torsion grid (150,)
C        2.8677812128   -3.7810395890   -1.1141276240
C        1.8161666166   -4.2780667887   -1.8840284740
C        0.7741395225   -2.0787617643   -1.8651654524
C        7.0169152039   -3.8029770082   -1.9547556785
C        6.3242668560   -1.8071048755   -2.6254582516
C        7.1776133034   -2.8372061360   -2.9866920778
C        2.8875156207   -2.4428781746   -0.7115648792
C        0.7795353551   -3.4185808022   -2.2537370849
C        1.8337559251   -1.5991890157   -1.0922369336
C        4.9659947871   -1.3259211382   -0.5674791420
N        6.1402533446   -3.4021968176   -1.0313589868
N        5.6930846338   -2.2047248411   -1.4678517680
N        8.0707827100   -2.8986531544   -4.0769483498
O        3.9102293657   -1.9925195817    0.0996822681
Cl      -0.5501437147   -4.0279454869   -3.2242458206
Cl       1.8275564816    0.0787061566   -0.5876133988
H        3.6992065605   -4.4113081343   -0.8165931425
H        1.8019659500   -5.3173760372   -2.1953750846
H       -0.0388277305   -1.4198136849   -2.1493278346
H        7.5025708963   -4.7672593284   -1.8565504750
H        6.0992927355   -0.8624568978   -3.1025273249
H        5.6191568025   -0.9703005476    0.2330475037
H        4.6049545526   -0.4801418197   -1.1613841691
H        7.7679174209   -2.3281815135   -4.8597219422
H        8.2119391909   -3.8506492499   -4.3994305253
25   
torsion grid (165,)
C        2.7897463841   -3.8019954376   -1.1552652108
C        1.6813734963   -4.2972054912   -1.8422159333
C        0.6405740116   -2.1000918961   -1.7344478070
C        7.0039229851   -3.8287470126   -2.0216141084
C        6.4672358781   -1.7738536373   -2.6542804000
C        7.3352797789   -2.8099492758   -2.9576563507
C        2.8385454762   -2.4652942539   -0.7513384713
C        0.6177831963   -3.4383907240   -2.1272776697
C        1.7564897896   -1.6222185263   -1.0440554706
C        4.9120773778   -1.3309971589   -0.7428448551
N        6.0173544139   -3.4514991773   -1.2063061483
N        5.6591812854   -2.2186837850   -1.6304375677
N        8.3703669674   -2.8393797277   -3.9149241137
O        3.9173849485   -2.0144289758   -0.0146113037
Cl      -0.7823047781   -4.0471048202   -2.9935883705
Cl       1.7853324353    0.0527052945   -0.5304286409
H        3.6440757503   -4.4298599857   -0.9261874147
H        1.6441946078   -5.3353776208   -2.1554926056
H       -0.1929574981   -1.4413448307   -1.9515853708
H        7.4417311547   -4.8153973260   -1.9202400059
H        6.3378636114   -0.7958792659   -3.0991860908
H        5.5765057185   -0.9100559650    0.0167676486
H        4.4952570055   -0.5277710415   -1.3598445741
H        8.1961368443   -2.2157860867   -4.6962943010
H        8.5340240644   -3.7757491884   -4.2706180585
25   
torsion grid (180,)
C        2.7381605631   -3.8214685953   -1.1898486777
C        1.5726102043   -4.3199397000   -1.7720380689
C        0.5300608433   -2.1330282745   -1.5450814685
C        6.9684415046   -3.8651598851   -2.1332379532
C        6.6400130439   -1.7363443720   -2.6508083950
C        7.4818094021   -2.8023328947   -2.9257476192
C        2.8143532539   -2.4879171715   -0.7809973910
C        0.4799789565   -3.4681348027   -1.9463050515
C        1.7026026987   -1.6512698611   -0.9592497218
C        4.8645210215   -1.3194153473   -0.9354628958
N        5.9029184174   -3.4847260533   -1.4247916924
N        5.6759979667   -2.2025584068   -1.7844849261
N        8.6361714245   -2.8258920541   -3.7354840095
O        3.9513071612   -2.0300589075   -0.1400516715
Cl      -0.9917207238   -4.0818419299   -2.6802732044
Cl       1.7665229231    0.0183131064   -0.4316793367
H        3.6172066887   -4.4410540003   -1.0507777040
H        1.5136614972   -5.3556966606   -2.0899535503
H       -0.3254255611   -1.4796190648   -1.6755030599
H        7.3297651297   -4.8845595411   -2.0597563596
H        6.6313988661   -0.7191193049   -3.0206908540
H        5.5150842153   -0.7967713064   -0.2284045792
H        4.3688116844   -0.5922516799   -1.5877367917
H        8.6125539391   -2.1230819903   -4.4670835884
H        8.7870024049   -3.7363934049   -4.1578450026
