
  -OEChem-05262117483D

 25 25  0     0  0  0  0  0  0999 V2000
    1.2392    0.5898    2.2249 C   0  0  0  0  0  0  0  0  0  0  0  0
    1.0373   -0.6018    1.6226 C   0  0  0  0  0  0  0  0  0  0  0  0
    3.3644   -0.7072    1.8737 C   0  0  0  0  0  0  0  0  0  0  0  0
   -0.2141   -1.6263   -0.3030 C   0  0  0  0  0  0  0  0  0  0  0  0
    0.9085   -3.1057   -1.8012 C   0  0  0  0  0  0  0  0  0  0  0  0
    6.4835   -2.1962    0.2802 C   0  0  0  0  0  0  0  0  0  0  0  0
   -0.2653   -1.1928    1.1592 C   0  0  0  0  0  0  0  0  0  0  0  0
    4.6098   -1.0926    1.7907 N   0  0  0  0  0  0  0  0  0  0  0  0
    2.2190   -1.3244    1.4566 N   0  0  0  0  0  0  0  0  0  0  0  0
   -0.8439   -1.1230   -1.2076 O   0  0  0  0  0  0  0  0  0  0  0  0
    5.2528   -3.5517    2.2049 O   0  0  0  0  0  0  0  0  0  0  0  0
    3.9422   -2.9733    0.1206 O   0  0  0  0  0  0  0  0  0  0  0  0
    0.6545   -2.6527   -0.4490 O   0  0  0  0  0  0  0  0  0  0  0  0
    2.9405    0.8479    2.6003 S   0  0  0  0  0  0  0  0  0  0  0  0
    4.9559   -2.5885    1.1395 S   0  0  0  0  0  0  0  0  0  0  0  0
    0.4946    1.3294    2.4833 H   0  0  0  0  0  0  0  0  0  0  0  0
    1.7250   -3.8198   -1.7104 H   0  0  0  0  0  0  0  0  0  0  0  0
    1.1999   -2.2612   -2.4282 H   0  0  0  0  0  0  0  0  0  0  0  0
    0.0109   -3.5753   -2.2086 H   0  0  0  0  0  0  0  0  0  0  0  0
    6.8407   -3.1286   -0.1600 H   0  0  0  0  0  0  0  0  0  0  0  0
    6.2707   -1.4545   -0.4896 H   0  0  0  0  0  0  0  0  0  0  0  0
    7.1939   -1.8144    1.0133 H   0  0  0  0  0  0  0  0  0  0  0  0
   -1.0617   -0.4581    1.2697 H   0  0  0  0  0  0  0  0  0  0  0  0
   -0.5064   -2.0724    1.7678 H   0  0  0  0  0  0  0  0  0  0  0  0
    2.2832   -2.1609    0.8706 H   0  0  0  0  0  0  0  0  0  0  0  0
  1  2  2  0  0  0  0
  1 14  1  0  0  0  0
  1 16  1  0  0  0  0
  2  7  1  0  0  0  0
  2  9  1  0  0  0  0
  3  8  2  0  0  0  0
  3  9  1  0  0  0  0
  3 14  1  0  0  0  0
  4  7  1  0  0  0  0
  4 10  2  0  0  0  0
  4 13  1  0  0  0  0
  5 13  1  0  0  0  0
  5 17  1  0  0  0  0
  5 18  1  0  0  0  0
  5 19  1  0  0  0  0
  6 15  1  0  0  0  0
  6 20  1  0  0  0  0
  6 21  1  0  0  0  0
  6 22  1  0  0  0  0
  7 23  1  0  0  0  0
  7 24  1  0  0  0  0
  8 15  1  0  0  0  0
  9 25  1  0  0  0  0
 11 15  2  0  0  0  0
 12 15  2  0  0  0  0
M  END
$$$$
