25
0 1 C7H10N2O4S2
C                     4.232102124355     0.625762804498    -4.413615082968
C                     3.234174173530    -0.310487499800    -4.368109748179
C                     4.951399006421    -1.686936041712    -4.626826957733
C                     1.249491388297     1.180775584324    -4.870334323060
C                     1.288032412321     3.547292604835    -4.893850529668
C                     8.347226652316    -2.975464970427    -4.572696267247
C                     1.757344821168    -0.060958314778    -4.163608294347
N                     3.657372381580    -1.623092922662    -4.483522662813
N                     5.634874597196    -2.891796650520    -4.854365860967
O                     0.527253122332     1.183147298373    -5.845852476281
O                     6.744604029281    -2.662102122751    -2.487718932743
O                     6.703109873623    -4.896079826254    -3.741025376514
O                     1.702343327248     2.311283122543    -4.271130779887
S                     5.771793072585    -0.143136672746    -4.653104014144
S                     6.831186607463    -3.438789490422    -3.721981474059
H                     4.153290037253     1.696553123127    -4.291890042021
H                     1.731491588077     4.339312993312    -4.290701472964
H                     0.198734327128     3.625512992440    -4.892893565601
H                     1.651200355419     3.594008580664    -5.923121001086
H                     9.171360191573    -3.306907564971    -3.938392145686
H                     8.366116992837    -3.479756093443    -5.538355224604
H                     8.366916854774    -1.891166784358    -4.686643482719
H                     1.204790244115    -0.915395583887    -4.553414721890
H                     1.545359737932     0.027760107295    -3.092090489348
H                     4.978506400085    -3.659433690861    -5.007794453658
