
  -OEChem-05262117483D

 25 25  0     0  0  0  0  0  0999 V2000
    1.0100    0.1683    3.0354 C   0  0  0  0  0  0  0  0  0  0  0  0
    1.0223   -0.2835    1.7629 C   0  0  0  0  0  0  0  0  0  0  0  0
    3.2478   -0.7400    2.3361 C   0  0  0  0  0  0  0  0  0  0  0  0
   -0.3341   -1.6865    0.1771 C   0  0  0  0  0  0  0  0  0  0  0  0
    0.7322   -3.3740   -1.1304 C   0  0  0  0  0  0  0  0  0  0  0  0
    6.1128   -3.1209    1.5565 C   0  0  0  0  0  0  0  0  0  0  0  0
   -0.1141   -0.3014    0.7786 C   0  0  0  0  0  0  0  0  0  0  0  0
    4.4792   -1.1746    2.2999 N   0  0  0  0  0  0  0  0  0  0  0  0
    2.2751   -0.7603    1.3768 N   0  0  0  0  0  0  0  0  0  0  0  0
   -1.3078   -2.3845    0.3581 O   0  0  0  0  0  0  0  0  0  0  0  0
    3.9841   -2.4681    0.0970 O   0  0  0  0  0  0  0  0  0  0  0  0
    5.9245   -0.8488    0.1934 O   0  0  0  0  0  0  0  0  0  0  0  0
    0.7303   -2.0334   -0.5818 O   0  0  0  0  0  0  0  0  0  0  0  0
    2.5877   -0.0002    3.7999 S   0  0  0  0  0  0  0  0  0  0  0  0
    5.0710   -1.8228    0.8819 S   0  0  0  0  0  0  0  0  0  0  0  0
    0.1763    0.6005    3.5706 H   0  0  0  0  0  0  0  0  0  0  0  0
    1.7222   -3.4990   -1.5655 H   0  0  0  0  0  0  0  0  0  0  0  0
   -0.0503   -3.4650   -1.8865 H   0  0  0  0  0  0  0  0  0  0  0  0
    0.5631   -4.1021   -0.3352 H   0  0  0  0  0  0  0  0  0  0  0  0
    6.6073   -3.5955    0.7074 H   0  0  0  0  0  0  0  0  0  0  0  0
    6.8411   -2.6569    2.2215 H   0  0  0  0  0  0  0  0  0  0  0  0
    5.4831   -3.8314    2.0918 H   0  0  0  0  0  0  0  0  0  0  0  0
    0.0986    0.3964   -0.0400 H   0  0  0  0  0  0  0  0  0  0  0  0
   -1.0340    0.0057    1.2742 H   0  0  0  0  0  0  0  0  0  0  0  0
    2.4275   -1.2950    0.5176 H   0  0  0  0  0  0  0  0  0  0  0  0
  1  2  2  0  0  0  0
  1 14  1  0  0  0  0
  1 16  1  0  0  0  0
  2  7  1  0  0  0  0
  2  9  1  0  0  0  0
  3  8  2  0  0  0  0
  3  9  1  0  0  0  0
  3 14  1  0  0  0  0
  4  7  1  0  0  0  0
  4 10  2  0  0  0  0
  4 13  1  0  0  0  0
  5 13  1  0  0  0  0
  5 17  1  0  0  0  0
  5 18  1  0  0  0  0
  5 19  1  0  0  0  0
  6 15  1  0  0  0  0
  6 20  1  0  0  0  0
  6 21  1  0  0  0  0
  6 22  1  0  0  0  0
  7 23  1  0  0  0  0
  7 24  1  0  0  0  0
  8 15  1  0  0  0  0
  9 25  1  0  0  0  0
 11 15  2  0  0  0  0
 12 15  2  0  0  0  0
M  END
$$$$
