25
0 1 C7H10N2O4S2
C                     0.660142992783     0.487675075020     3.222105281804
C                     0.494918457971     0.062046292540     1.950915939794
C                     2.469536382617    -1.088958141753     2.469666978261
C                    -0.076885363462     0.905161084962    -0.346523441243
C                     1.195408958773     0.228135217158    -2.243892346555
C                     4.540288285384    -4.100935053815     1.418745417064
C                    -0.611247579445     0.413681802600     0.995429414167
N                     3.534453220507    -1.841836180974     2.381559814076
N                     1.499116301477    -0.816343590332     1.548522238529
O                    -0.168885578551     2.038442961711    -0.765134778274
O                     2.772381235260    -2.671093124025     0.030469997332
O                     5.098096613162    -1.736582770270     0.347425164502
O                     0.531565302753    -0.109679665856    -1.000997406194
S                     2.099528268436    -0.209783076320     3.958215081663
S                     3.962378288116    -2.480593598643     0.902764049784
H                     0.029476207822     1.171264195474     3.772623574367
H                     1.703476946544    -0.684486694963    -2.550710055317
H                     1.912736317346     1.033399408354    -2.075973040299
H                     0.457586323410     0.539978664767    -2.985855068619
H                     4.911387679393    -4.599058589982     0.521531843542
H                     5.341442642941    -3.957203395380     2.143636093838
H                     3.704138449324    -4.648239647886     1.853826373465
H                    -1.230653330485     1.199423090714     1.425765619527
H                    -1.234643120275    -0.469735163229     0.812957782244
H                     1.536169115139    -1.260915948560     0.627987973502
