
  -OEChem-05262117483D

 15 15  0     1  0  0  0  0  0999 V2000
    0.7565   -0.4060    0.6326 C   0  0  0  0  0  0  0  0  0  0  0  0
    2.8767   -1.6057    0.7214 C   0  0  0  0  0  0  0  0  0  0  0  0
    0.6357   -0.5637    2.0022 C   0  0  0  0  0  0  0  0  0  0  0  0
    1.8874   -0.9301   -0.0187 C   0  0  0  0  0  0  0  0  0  0  0  0
    2.6922   -1.7223    2.0811 C   0  0  0  0  0  0  0  0  0  0  0  0
    1.5999   -1.2196    2.6844 N   0  3  0  0  0  0  0  0  0  0  0  0
    3.0611   -2.3592    4.5573 O   0  0  0  0  0  0  0  0  0  0  0  0
    4.9561   -1.3706    3.0654 O   0  0  0  0  0  0  0  0  0  0  0  0
    3.8153   -2.5770    3.2939 S   0  0  2  0  0  0  0  0  0  0  0  0
    2.0658   -0.7447   -1.7103 Cl  0  0  0  0  0  0  0  0  0  0  0  0
   -0.0161    0.1155    0.0786 H   0  0  0  0  0  0  0  0  0  0  0  0
    3.7634   -2.0085    0.2425 H   0  0  0  0  0  0  0  0  0  0  0  0
   -0.2050   -0.1857    2.5737 H   0  0  0  0  0  0  0  0  0  0  0  0
    1.5642   -1.3468    3.7115 H   0  0  0  0  0  0  0  0  0  0  0  0
    5.8110   -1.6510    3.4554 H   0  0  0  0  0  0  0  0  0  0  0  0
  1  3  1  0  0  0  0
  1  4  2  0  0  0  0
  1 11  1  0  0  0  0
  2  4  1  0  0  0  0
  2  5  2  0  0  0  0
  2 12  1  0  0  0  0
  3  6  2  0  0  0  0
  3 13  1  0  0  0  0
  4 10  1  0  0  0  0
  5  6  1  0  0  0  0
  5  9  1  0  0  0  0
  6 14  1  0  0  0  0
  7  9  2  0  0  0  0
  8  9  1  0  0  0  0
  8 15  1  0  0  0  0
M  CHG  1   6   1
M  END
$$$$
