16   
torsion grid (-165,)
C       -0.1219187066    1.4008876401   -2.5823462830
C       -0.0407315920    0.0613835239   -1.9878150928
C       -0.4676526923   -0.5561916134   -0.6336558531
C        0.0117275931    0.3983653742    0.4645225972
C       -0.2661747849   -0.1452205025    1.8557911998
O        0.1671068245    0.2275444166   -3.4198542056
F        0.4535956298   -1.3358471124    2.0641356157
H       -1.0941994569    1.8429546418   -2.8030845455
H        0.6997857918    2.1088833894   -2.4848959905
H        1.0310569203    0.0155436386   -1.7084835940
H       -1.5484758053   -0.7220461764   -0.5106492505
H        0.0155021870   -1.5305153706   -0.5311639148
H        1.0862168602    0.5889044816    0.3675520721
H       -0.4973875669    1.3653606509    0.3706909736
H       -1.3257760112   -0.3816676233    2.0000242665
H        0.0542663179    0.5640960271    2.6254273630
16   
torsion grid (-150,)
C       -0.1757827581    1.3749523295   -2.5201572689
C        0.1127029641    0.0562589308   -1.9449428391
C       -0.4085782591   -0.5338297366   -0.6287968233
C        0.0759272497    0.3818943887    0.5004098645
C       -0.2841033681   -0.1544063279    1.8753580747
O        0.1168280754    0.2123409047   -3.3743831827
F        0.3669121712   -1.3804481186    2.1044672734
H       -1.2106722893    1.7097111359   -2.5944884477
H        0.5785908217    2.1591658948   -2.5476904279
H        1.1933645030    0.0338970212   -1.7237670630
H       -1.5033359768   -0.6198134223   -0.5796253456
H       -0.0050635294   -1.5412544451   -0.4923039535
H        1.1624413073    0.5141078475    0.4474508293
H       -0.3736470736    1.3772998376    0.3968893306
H       -1.3592497234   -0.3391189793    1.9740450907
H        0.0386043549    0.5333424967    2.6634383063
16   
torsion grid (-135,)
C       -0.2177772581    1.3517702836   -2.5228414130
C        0.2368749275    0.0928812295   -1.9157347679
C       -0.3520136307   -0.4855122396   -0.6376698295
C        0.1178741298    0.3824366447    0.5355592599
C       -0.3272432782   -0.1599894165    1.8825603838
O        0.0184309440    0.1427989510   -3.3217407849
F        0.2547459199   -1.4197757616    2.1159136392
H       -1.2698280349    1.6256247857   -2.4463957625
H        0.4758640681    2.1661059767   -2.7233110155
H        1.3246999147    0.0956769844   -1.7596332111
H       -1.4497853182   -0.5108460602   -0.6619147045
H       -0.0134458547   -1.5164641953   -0.4917043029
H        1.2109348943    0.4659220412    0.5347567999
H       -0.2790761068    1.4004916482    0.4333226096
H       -1.4133309514   -0.2955860366    1.9287600951
H       -0.0096061534    0.4964695277    2.6989301242
16   
torsion grid (-120,)
C       -0.2445348070    1.3372458246   -2.5583031758
C        0.3347880353    0.1606874149   -1.8899926185
C       -0.2884533567   -0.4290608867   -0.6434984295
C        0.1540801316    0.3786602887    0.5831696023
C       -0.3593422355   -0.1976760564    1.8910050676
O       -0.0994216166    0.0597308931   -3.2427594450
F        0.1742895714   -1.4835146179    2.0981443006
H       -1.2760561956    1.6129884989   -2.3395872601
H        0.3909956654    2.1329889213   -2.9435214218
H        1.4280363855    0.1557962465   -1.8258909183
H       -1.3828541459   -0.4212368008   -0.7245452384
H        0.0150479735   -1.4745974936   -0.5224539768
H        1.2484679563    0.4311466558    0.6295247722
H       -0.2092888321    1.4116596408    0.5045853852
H       -1.4501253050   -0.3006206281    1.8891510964
H       -0.0553654241    0.4166768767    2.7445620346
16   
torsion grid (-105,)
C       -0.2865876981    1.2956119243   -2.6624641817
C        0.3817231853    0.2627439039   -1.8512069629
C       -0.2529717439   -0.3176866263   -0.6098363326
C        0.1638083328    0.4491766472    0.6524361077
C       -0.4107816534   -0.1422745579    1.9275378576
O       -0.2158122686   -0.0702463616   -3.1173598493
F        0.0777819879   -1.4485753568    2.1196192403
H       -1.2840430152    1.6320981918   -2.3774214736
H        0.3038154682    2.0063684507   -3.2402517525
H        1.4737010588    0.2415981299   -1.8728190330
H       -1.3429980653   -0.2955596082   -0.7255894177
H        0.0376723062   -1.3693196837   -0.5134419226
H        1.2568882613    0.4734491252    0.7398149431
H       -0.1711621816    1.4929372615    0.5864224173
H       -1.5034281368   -0.2129157994    1.8849421633
H       -0.1199289344    0.4407252034    2.8073027006
16   
torsion grid (-90,)
C       -0.2767578851    1.2435000522   -2.8092485780
C        0.4114994930    0.3975826938   -1.8119883401
C       -0.2378192499   -0.2070505367   -0.5860178874
C        0.1811582826    0.4673828625    0.7283871233
C       -0.4102193412   -0.2003378589    1.9573545122
O       -0.2483020005   -0.1648286399   -2.9961988793
F        0.0593647371   -1.5237640823    2.0624930414
H       -1.2566216670    1.6633239667   -2.5729909509
H        0.3213760446    1.8285909542   -3.5098777090
H        1.5009037761    0.3501294100   -1.8538941607
H       -1.3253322004   -0.1579978217   -0.7082306237
H        0.0366560369   -1.2663440986   -0.5611285685
H        1.2739321736    0.4697760508    0.8248154644
H       -0.1386856369    1.5179934037    0.7325579253
H       -1.5034367973   -0.2531085734    1.9032098903
H       -0.1181747723    0.3164458364    2.8772279948
16   
torsion grid (-75,)
C       -0.2581403472    1.2086531288   -2.9509706867
C        0.3607845609    0.5341792568   -1.7796655565
C       -0.2803317892   -0.1241912798   -0.5692946684
C        0.1644845568    0.4592613546    0.7805660444
C       -0.3815644223   -0.3104248742    1.9702848180
O       -0.3165241115   -0.1885724064   -2.9139118694
F        0.1137507600   -1.6289851175    1.9626519548
H       -1.2148091850    1.7272223209   -2.8448627023
H        0.4184551346    1.6520746060   -3.6864985250
H        1.4482298946    0.4412962763   -1.8176501390
H       -1.3695360002   -0.0653272396   -0.6649248343
H       -0.0042721576   -1.1804735228   -0.6249589790
H        1.2594575031    0.4739912797    0.8486067539
H       -0.1721559293    1.5003129554    0.8734173423
H       -1.4747771030   -0.3805483976    1.9405998415
H       -0.0740013478    0.1408843186    2.9191088019
16   
torsion grid (-60,)
C       -0.2177965365    1.1879278266   -3.0393813543
C        0.2823300447    0.6362007082   -1.7403255271
C       -0.3231580721   -0.0733168785   -0.5316977721
C        0.1371550966    0.4847682159    0.8239618957
C       -0.3439300116   -0.3459620650    2.0005936012
O       -0.4238077286   -0.1685235094   -2.8492561756
F        0.2040943509   -1.6420992451    1.9339512052
H       -1.1168487869    1.8095324751   -3.0864511659
H        0.5648151426    1.4799748826   -3.7471605364
H        1.3643336276    0.4729543517   -1.7873248256
H       -1.4154761621   -0.0510541873   -0.5952409800
H       -0.0072645663   -1.1138908602   -0.6312702559
H        1.2322358144    0.5413403593    0.8630926253
H       -0.2383452233    1.5072958006    0.9601402047
H       -1.4337645487   -0.4605769650    1.9978727593
H       -0.0282998044    0.0856534776    2.9558806830
16   
torsion grid (-45,)
C       -0.1581117371    1.1837254313   -3.1241146598
C        0.1648006173    0.7256856116   -1.7228685951
C       -0.3962221354   -0.0345026887   -0.5129145141
C        0.1005620931    0.5018793680    0.8368672805
C       -0.2929301001   -0.3859827887    2.0044631413
O       -0.5046491159   -0.1199214634   -2.8455338707
F        0.3074764423   -1.6535273810    1.8716694185
H       -0.9850869046    1.8687080692   -3.3353978987
H        0.7295131705    1.3519423653   -3.7436339285
H        1.2441148777    0.5145881984   -1.7228027436
H       -1.4907866735   -0.0464460106   -0.5309815181
H       -0.0497694364   -1.0585854812   -0.6601059069
H        1.1930840013    0.6031760135    0.8303061967
H       -0.3106738561    1.5023584766    1.0222275616
H       -1.3757517555   -0.5491396920    2.0442497915
H        0.0454035358    0.0296488297    2.9590070113
16   
torsion grid (-30,)
C       -0.0895585025    1.1751772309   -3.1731199417
C        0.0191552112    0.7673405708   -1.7132058591
C       -0.4800386850   -0.0261136104   -0.4866923636
C        0.0671258023    0.5103858703    0.8405477943
C       -0.2337491656   -0.4076125676    2.0125536644
O       -0.5493098355   -0.0873342957   -2.8626432235
F        0.4035812420   -1.6503961480    1.8293074111
H       -0.8416332439    1.8853132723   -3.5293447620
H        0.8816436357    1.2573183800   -3.6716299827
H        1.1009164546    0.5498140630   -1.6445362659
H       -1.5742817967   -0.0731568660   -0.4471390104
H       -0.1098572530   -1.0347335298   -0.6735507889
H        1.1535103859    0.6501653337    0.7782130316
H       -0.3691383891    1.4924846174    1.0618070849
H       -1.3064100727   -0.6103654460    2.1062074424
H        0.1393104468    0.0078670239    2.9540741349
