22
0 1 C9F3H9S
C                     1.888215224381    -1.036629283794    -0.103167611102
C                     0.771524952933    -0.439601992484     0.495553047283
C                     2.887084274542    -1.613841322780     0.674755120767
C                     1.678860458804    -1.012726619068     2.682291307568
C                     0.680853057312    -0.435303988720     1.886124228259
C                     2.793301483685    -1.608349839194     2.081008971100
C                     4.728094753855    -2.787212410859     5.606679707322
C                     3.645509514418    -2.163384495205     4.724640983538
C                    -0.497505954611     0.192685037845     2.582703352750
F                    -1.396630424084     0.716756275818     1.718271857629
F                    -1.164957016968    -0.706962433340     3.355617702784
F                    -0.113921497459     1.197339921123     3.416858873365
S                     4.125391417823    -2.373563766503     2.970044121415
H                     1.978013099170    -1.050571838562    -1.185825437777
H                    -0.008223784278     0.010925175729    -0.108336428884
H                     3.747998672709    -2.073437074936     0.195365706716
H                     1.569739752252    -0.988123207297     3.760207124341
H                     4.845968702360    -3.854572518140     5.397246184300
H                     5.695069568556    -2.298348184686     5.455346063707
H                     4.453172079611    -2.676784975270     6.660367182546
H                     3.540695341966    -1.096421450753     4.942267244010
H                     2.682248666469    -2.653394797505     4.894288286224
