31
0 1 C15FH12NOS
C                    -0.081487040860    -1.431865260023     1.702045495731
C                    -0.064262148025    -1.149449320056     0.329994157142
C                    -3.031375178037    -4.915237988653     4.773733753517
C                    -1.773566050048    -5.353560674063     4.354730571345
C                     0.172692108980    -2.728709234917     2.141444935054
C                    -3.948574351319    -4.403911020696     3.849898481050
C                     0.212526722571    -2.160857462354    -0.587894729841
C                    -2.320216824508    -4.750967713813     2.066696013452
C                    -1.409118672874    -5.254392123935     3.005772034095
C                     0.399546696121    -3.762314482622     1.222297394783
C                    -3.571716424445    -4.345234396339     2.511227984875
C                     0.439560409739    -3.478187903238    -0.155728730230
C                    -0.070444742339    -5.796945865553     2.592896332432
C                     1.760873041428    -5.767637549785     0.963702663294
C                     1.315866106999    -6.157544446913    -0.440727600037
N                     0.664303061215    -5.088247418747     1.658219610654
O                     0.335825827590    -6.863379738087     3.055546807663
F                    -4.461795117511    -3.869426289605     1.602557952289
S                     0.725035025733    -4.704672359782    -1.411103256750
H                    -0.275675868043    -0.644284250293     2.424241062387
H                    -0.250107131204    -0.139448577468    -0.024696483459
H                    -3.306868940326    -4.979069428762     5.822671932069
H                    -1.068535944335    -5.780731992237     5.060625871214
H                     0.182412792709    -2.959172874136     3.202125301905
H                    -4.936074505368    -4.064789144056     4.147583914098
H                     0.246320148581    -1.935998376015    -1.650986065107
H                    -2.077377349614    -4.672738758830     1.012478477291
H                     2.019895983115    -6.658591470207     1.536186477443
H                     2.625960785083    -5.099285483850     0.930032408571
H                     2.147861388653    -6.589547031310    -1.003485623897
H                     0.509678586238    -6.892128861712    -0.383476325081
