
  -OEChem-05262117483D

 34 36  0     0  0  0  0  0  0999 V2000
   -0.0688   -1.4055    1.6769 C   0  0  0  0  0  0  0  0  0  0  0  0
   -0.0366   -1.1336    0.3030 C   0  0  0  0  0  0  0  0  0  0  0  0
   -3.5835   -4.3083    2.5041 C   0  0  0  0  0  0  0  0  0  0  0  0
   -2.3205   -4.7237    2.0813 C   0  0  0  0  0  0  0  0  0  0  0  0
   -3.9304   -4.3693    3.8572 C   0  0  0  0  0  0  0  0  0  0  0  0
    0.1739   -2.7000    2.1293 C   0  0  0  0  0  0  0  0  0  0  0  0
    0.2421   -2.1547   -0.6037 C   0  0  0  0  0  0  0  0  0  0  0  0
   -1.7751   -5.3075    4.3707 C   0  0  0  0  0  0  0  0  0  0  0  0
   -1.4071   -5.2181    3.0226 C   0  0  0  0  0  0  0  0  0  0  0  0
   -3.0314   -4.8733    4.8097 C   0  0  0  0  0  0  0  0  0  0  0  0
    0.4048   -3.7430    1.2216 C   0  0  0  0  0  0  0  0  0  0  0  0
    0.4570   -3.4696   -0.1585 C   0  0  0  0  0  0  0  0  0  0  0  0
   -0.0662   -5.7587    2.6241 C   0  0  0  0  0  0  0  0  0  0  0  0
    1.7600   -5.7534    0.9865 C   0  0  0  0  0  0  0  0  0  0  0  0
    1.3192   -6.1557   -0.4159 C   0  0  0  0  0  0  0  0  0  0  0  0
   -3.4240   -4.9849    6.2653 C   0  0  0  0  0  0  0  0  0  0  0  0
    0.6641   -5.0644    1.6709 N   0  0  0  0  0  0  0  0  0  0  0  0
    0.3553   -6.8114    3.1058 O   0  0  0  0  0  0  0  0  0  0  0  0
    0.7421   -4.7085   -1.4023 S   0  0  0  0  0  0  0  0  0  0  0  0
   -0.2656   -0.6113    2.3912 H   0  0  0  0  0  0  0  0  0  0  0  0
   -0.2111   -0.1249   -0.0615 H   0  0  0  0  0  0  0  0  0  0  0  0
   -4.2975   -3.9282    1.7782 H   0  0  0  0  0  0  0  0  0  0  0  0
   -2.0529   -4.6651    1.0311 H   0  0  0  0  0  0  0  0  0  0  0  0
   -4.9128   -4.0274    4.1766 H   0  0  0  0  0  0  0  0  0  0  0  0
    0.1697   -2.9218    3.1917 H   0  0  0  0  0  0  0  0  0  0  0  0
    0.2881   -1.9391   -1.6683 H   0  0  0  0  0  0  0  0  0  0  0  0
   -1.0631   -5.7273    5.0766 H   0  0  0  0  0  0  0  0  0  0  0  0
    2.0132   -6.6395    1.5690 H   0  0  0  0  0  0  0  0  0  0  0  0
    2.6289   -5.0898    0.9486 H   0  0  0  0  0  0  0  0  0  0  0  0
    2.1507   -6.5988   -0.9709 H   0  0  0  0  0  0  0  0  0  0  0  0
    0.5077   -6.8840   -0.3542 H   0  0  0  0  0  0  0  0  0  0  0  0
   -3.8984   -5.9529    6.4669 H   0  0  0  0  0  0  0  0  0  0  0  0
   -2.5528   -4.9047    6.9219 H   0  0  0  0  0  0  0  0  0  0  0  0
   -4.1369   -4.2046    6.5482 H   0  0  0  0  0  0  0  0  0  0  0  0
  1  2  1  0  0  0  0
  1  6  2  0  0  0  0
  1 20  1  0  0  0  0
  2  7  2  0  0  0  0
  2 21  1  0  0  0  0
  3  4  2  0  0  0  0
  3  5  1  0  0  0  0
  3 22  1  0  0  0  0
  4  9  1  0  0  0  0
  4 23  1  0  0  0  0
  5 10  2  0  0  0  0
  5 24  1  0  0  0  0
  6 11  1  0  0  0  0
  6 25  1  0  0  0  0
  7 12  1  0  0  0  0
  7 26  1  0  0  0  0
  8  9  2  0  0  0  0
  8 10  1  0  0  0  0
  8 27  1  0  0  0  0
  9 13  1  0  0  0  0
 10 16  1  0  0  0  0
 11 12  2  0  0  0  0
 11 17  1  0  0  0  0
 12 19  1  0  0  0  0
 13 17  1  0  0  0  0
 13 18  2  0  0  0  0
 14 15  1  0  0  0  0
 14 17  1  0  0  0  0
 14 28  1  0  0  0  0
 14 29  1  0  0  0  0
 15 19  1  0  0  0  0
 15 30  1  0  0  0  0
 15 31  1  0  0  0  0
 16 32  1  0  0  0  0
 16 33  1  0  0  0  0
 16 34  1  0  0  0  0
M  END
$$$$
