
  -OEChem-05262117483D

 19 19  0     0  0  0  0  0  0999 V2000
    1.9228   -1.0570   -0.0727 C   0  0  0  0  0  0  0  0  0  0  0  0
    0.6744   -0.4336    1.9372 C   0  0  0  0  0  0  0  0  0  0  0  0
    2.8057   -1.6180    2.1212 C   0  0  0  0  0  0  0  0  0  0  0  0
    0.8314   -0.4744    0.5529 C   0  0  0  0  0  0  0  0  0  0  0  0
    2.9266   -1.6384    0.7231 C   0  0  0  0  0  0  0  0  0  0  0  0
    1.6847   -1.0174    2.6985 C   0  0  0  0  0  0  0  0  0  0  0  0
    6.5958   -3.6563    0.5650 C   0  0  0  0  0  0  0  0  0  0  0  0
    5.3663   -3.0006    1.1957 C   0  0  0  0  0  0  0  0  0  0  0  0
   -0.1339    0.0848   -0.2173 F   0  0  0  0  0  0  0  0  0  0  0  0
    4.2924   -2.3651   -0.1445 S   0  0  0  0  0  0  0  0  0  0  0  0
    1.5455   -0.9986    4.4486 Cl  0  0  0  0  0  0  0  0  0  0  0  0
    1.9838   -1.0547   -1.1568 H   0  0  0  0  0  0  0  0  0  0  0  0
   -0.1953    0.0324    2.3859 H   0  0  0  0  0  0  0  0  0  0  0  0
    3.5574   -2.0552    2.7652 H   0  0  0  0  0  0  0  0  0  0  0  0
    6.3129   -4.4871   -0.0882 H   0  0  0  0  0  0  0  0  0  0  0  0
    7.1725   -2.9368   -0.0238 H   0  0  0  0  0  0  0  0  0  0  0  0
    7.2467   -4.0502    1.3519 H   0  0  0  0  0  0  0  0  0  0  0  0
    5.6632   -2.1694    1.8418 H   0  0  0  0  0  0  0  0  0  0  0  0
    4.8056   -3.7273    1.7906 H   0  0  0  0  0  0  0  0  0  0  0  0
  1  4  1  0  0  0  0
  1  5  2  0  0  0  0
  1 12  1  0  0  0  0
  2  4  2  0  0  0  0
  2  6  1  0  0  0  0
  2 13  1  0  0  0  0
  3  5  1  0  0  0  0
  3  6  2  0  0  0  0
  3 14  1  0  0  0  0
  4  9  1  0  0  0  0
  5 10  1  0  0  0  0
  6 11  1  0  0  0  0
  7  8  1  0  0  0  0
  7 15  1  0  0  0  0
  7 16  1  0  0  0  0
  7 17  1  0  0  0  0
  8 10  1  0  0  0  0
  8 18  1  0  0  0  0
  8 19  1  0  0  0  0
M  END
$$$$
