34
0 1 C16H15NOS
C                    -0.068824973232    -1.405480314962     1.676894544299
C                    -0.036553217458    -1.133568828383     0.302970140639
C                    -3.583542349746    -4.308339737869     2.504148588650
C                    -2.320494589626    -4.723708790255     2.081307326503
C                    -3.930408195103    -4.369256829743     3.857235623619
C                     0.173890473108    -2.699967212849     2.129300296902
C                     0.242101579608    -2.154716556619    -0.603705534168
C                    -1.775127921877    -5.307479710887     4.370677099042
C                    -1.407102370115    -5.218133552348     3.022557858016
C                    -3.031428471473    -4.873262006561     4.809742373540
C                     0.404776226404    -3.743044325159     1.221559748210
C                     0.457016489514    -3.469627191830    -0.158455077678
C                    -0.066249848755    -5.758659666815     2.624122513414
C                     1.760000163619    -5.753364322762     0.986451922788
C                     1.319231562931    -6.155704640630    -0.415866510714
C                    -3.423952742587    -4.984948788660     6.265276555422
N                     0.664122315447    -5.064393623537     1.670890732505
O                     0.355309979025    -6.811398152672     3.105818864931
S                     0.742111770117    -4.708501242657    -1.402349411536
H                    -0.265561185422    -0.611259131383     2.391198581173
H                    -0.211096975708    -0.124935892466    -0.061525185281
H                    -4.297526170906    -3.928230440377     1.778204087212
H                    -2.052909481293    -4.665094333637     1.031137874293
H                    -4.912829046987    -4.027361709971     4.176582322525
H                     0.169680519140    -2.921816683178     3.191670659969
H                     0.288099742426    -1.939121802167    -1.668344606939
H                    -1.063146507282    -5.727311838575     5.076635942510
H                     2.013223889297    -6.639492946080     1.569013218400
H                     2.628870084969    -5.089811322617     0.948585922505
H                     2.150652226928    -6.598829270553    -0.970942929392
H                     0.507698336322    -6.884008489245    -0.354165093546
H                    -3.898433059031    -5.952861966850     6.466910165112
H                    -2.552836072387    -4.904739964768     6.921917548677
H                    -4.136852089139    -4.204634884896     6.548198616348
