
  -OEChem-05262117483D

 34 36  0     0  0  0  0  0  0999 V2000
   -0.6362    0.4652   -2.2386 C   0  0  0  0  0  0  0  0  0  0  0  0
   -0.0607   -0.3436   -1.2495 C   0  0  0  0  0  0  0  0  0  0  0  0
   -5.1630   -2.3251   -7.7349 C   0  0  0  0  0  0  0  0  0  0  0  0
   -4.3295   -1.9809   -6.6685 C   0  0  0  0  0  0  0  0  0  0  0  0
   -6.5344   -2.4979   -7.5286 C   0  0  0  0  0  0  0  0  0  0  0  0
   -1.5536   -0.0828   -3.1287 C   0  0  0  0  0  0  0  0  0  0  0  0
   -0.4153   -1.6859   -1.1619 C   0  0  0  0  0  0  0  0  0  0  0  0
   -6.2592   -1.9400   -5.2029 C   0  0  0  0  0  0  0  0  0  0  0  0
   -4.8796   -1.7927   -5.3931 C   0  0  0  0  0  0  0  0  0  0  0  0
   -7.1015   -2.3098   -6.2580 C   0  0  0  0  0  0  0  0  0  0  0  0
   -1.9268   -1.4329   -3.0437 C   0  0  0  0  0  0  0  0  0  0  0  0
   -1.3547   -2.2447   -2.0469 C   0  0  0  0  0  0  0  0  0  0  0  0
   -4.0494   -1.3156   -4.2353 C   0  0  0  0  0  0  0  0  0  0  0  0
   -2.6458   -3.3805   -4.3502 C   0  0  0  0  0  0  0  0  0  0  0  0
   -2.9203   -4.2756   -3.1440 C   0  0  0  0  0  0  0  0  0  0  0  0
   -8.5825   -2.5118   -6.0342 C   0  0  0  0  0  0  0  0  0  0  0  0
   -2.8375   -1.9682   -4.0082 N   0  0  0  0  0  0  0  0  0  0  0  0
   -4.4220   -0.3590   -3.5626 O   0  0  0  0  0  0  0  0  0  0  0  0
   -1.7181   -3.9701   -1.8021 S   0  0  0  0  0  0  0  0  0  0  0  0
   -0.3672    1.5146   -2.3182 H   0  0  0  0  0  0  0  0  0  0  0  0
    0.6621    0.0691   -0.5510 H   0  0  0  0  0  0  0  0  0  0  0  0
   -4.7442   -2.4528   -8.7298 H   0  0  0  0  0  0  0  0  0  0  0  0
   -3.2642   -1.8361   -6.8286 H   0  0  0  0  0  0  0  0  0  0  0  0
   -7.1742   -2.7703   -8.3654 H   0  0  0  0  0  0  0  0  0  0  0  0
   -2.0055    0.5341   -3.8975 H   0  0  0  0  0  0  0  0  0  0  0  0
    0.0301   -2.3161   -0.3957 H   0  0  0  0  0  0  0  0  0  0  0  0
   -6.6715   -1.7479   -4.2156 H   0  0  0  0  0  0  0  0  0  0  0  0
   -1.6213   -3.5247   -4.7070 H   0  0  0  0  0  0  0  0  0  0  0  0
   -3.3275   -3.6504   -5.1536 H   0  0  0  0  0  0  0  0  0  0  0  0
   -3.9381   -4.1096   -2.7811 H   0  0  0  0  0  0  0  0  0  0  0  0
   -2.8123   -5.3294   -3.4156 H   0  0  0  0  0  0  0  0  0  0  0  0
   -8.8137   -3.5728   -5.8804 H   0  0  0  0  0  0  0  0  0  0  0  0
   -8.9302   -1.9673   -5.1520 H   0  0  0  0  0  0  0  0  0  0  0  0
   -9.1657   -2.1719   -6.8955 H   0  0  0  0  0  0  0  0  0  0  0  0
  1  2  1  0  0  0  0
  1  6  2  0  0  0  0
  1 20  1  0  0  0  0
  2  7  2  0  0  0  0
  2 21  1  0  0  0  0
  3  4  2  0  0  0  0
  3  5  1  0  0  0  0
  3 22  1  0  0  0  0
  4  9  1  0  0  0  0
  4 23  1  0  0  0  0
  5 10  2  0  0  0  0
  5 24  1  0  0  0  0
  6 11  1  0  0  0  0
  6 25  1  0  0  0  0
  7 12  1  0  0  0  0
  7 26  1  0  0  0  0
  8  9  2  0  0  0  0
  8 10  1  0  0  0  0
  8 27  1  0  0  0  0
  9 13  1  0  0  0  0
 10 16  1  0  0  0  0
 11 12  2  0  0  0  0
 11 17  1  0  0  0  0
 12 19  1  0  0  0  0
 13 17  1  0  0  0  0
 13 18  2  0  0  0  0
 14 15  1  0  0  0  0
 14 17  1  0  0  0  0
 14 28  1  0  0  0  0
 14 29  1  0  0  0  0
 15 19  1  0  0  0  0
 15 30  1  0  0  0  0
 15 31  1  0  0  0  0
 16 32  1  0  0  0  0
 16 33  1  0  0  0  0
 16 34  1  0  0  0  0
M  END
$$$$
