34
0 1 C16H15NOS
C                    -0.445776019420     0.707876348842    -1.550494810083
C                    -0.657882294821     0.057350220511    -0.327504341324
C                    -4.702600821506    -1.661024593836    -8.008555983917
C                    -4.438510198385    -1.202339534492    -6.716020993214
C                    -3.685356389044    -2.239003220096    -8.772776052923
C                    -0.953921282939     0.155738932767    -2.721410912787
C                    -1.379178313137    -1.131621932507    -0.293168000662
C                    -2.138890199775    -1.930377879025    -6.954706220625
C                    -3.155618530995    -1.354008925172    -6.178601942740
C                    -2.384172107960    -2.368799949207    -8.261216008864
C                    -1.691650179851    -1.037755563402    -2.697971288704
C                    -1.910808455974    -1.688811879672    -1.470028779608
C                    -2.878007033259    -0.792335211875    -4.813143940525
C                    -2.241240290295    -3.058276906978    -3.976137520023
C                    -3.291278723520    -3.572554561770    -2.994058887041
C                    -1.274047952010    -2.943460644940    -9.111098147002
N                    -2.154928264546    -1.595900765392    -3.930655469030
O                    -3.238201767739     0.345741047445    -4.528399345660
S                    -2.821387029673    -3.204898629706    -1.266877399718
H                     0.116380382870     1.636441184963    -1.590893807044
H                    -0.261800169525     0.473789697850     0.594705039455
H                    -5.701830966320    -1.561693845602    -8.424596451056
H                    -5.211462956101    -0.723019384446    -6.122649993632
H                    -3.900381828194    -2.586602674404    -9.781211108314
H                    -0.796782258400     0.651127162515    -3.673168824037
H                    -1.545159513150    -1.638766135622     0.654378903557
H                    -1.137981092090    -2.021654846453    -6.537813455379
H                    -1.259434924425    -3.480672332032    -3.740818589936
H                    -2.514183010964    -3.369763255222    -4.982035377068
H                    -4.263461282279    -3.127400955294    -3.221455515690
H                    -3.379633579682    -4.660515278565    -3.060735660094
H                    -0.910110341827    -2.201543606745    -9.831643204646
H                    -0.422070875380    -3.255805980091    -8.500651630727
H                    -1.618280061223    -3.811159359537    -9.682768816866
