25
0 1 C10H9N3O2S
C                     1.660692741515    -1.862276783175     0.070057823838
C                     0.540795978969    -1.416236201609     0.770164750539
C                     2.951395736591    -1.505031476088     0.470618232991
C                     2.010769745314    -0.228102789178     2.302797951182
C                     0.715083461987    -0.588429638041     1.892582068808
C                     3.125076655523    -0.685718159125     1.592484661909
C                    -3.939571697564    -0.120350836524     6.406995832302
C                    -2.795394919314    -0.074385154603     4.482349725650
C                    -0.419195834427    -0.073397122541     2.661880254622
C                    -2.632159043044    -0.800100151885     6.881882906101
N                    -3.921364694159     0.232424023822     5.063820201820
N                    -1.635361779872    -0.325996842453     2.319402029190
N                    -2.629038437407     0.182736289321     3.156107601865
O                    -4.867573552634     0.054259566304     7.175162483778
O                     4.411552747084    -0.365850067206     1.946227339747
S                    -1.510660768003    -0.862931457650     5.446601045168
H                     1.534343464346    -2.501348256936    -0.799626363653
H                    -0.461655712035    -1.697331167088     0.466645503875
H                     3.828430476002    -1.851888119053    -0.067627307618
H                     2.143750046859     0.409363007464     3.176375078450
H                    -0.186403487391     0.550973205045     3.529280137557
H                    -2.185204741772    -0.220240771609     7.690889020481
H                    -2.853362255704    -1.806697052025     7.240925627085
H                    -3.507142437582     0.335506638480     2.669665446244
H                     4.399234919815     0.199268092306     2.734947821472
