
  -OEChem-05262117483D

 31 33  0     0  0  0  0  0  0999 V2000
   -2.1023    1.5920    1.2212 C   0  0  0  0  0  0  0  0  0  0  0  0
   -1.6720    0.6418    0.2855 C   0  0  0  0  0  0  0  0  0  0  0  0
   -7.4129    0.0851    6.5102 C   0  0  0  0  0  0  0  0  0  0  0  0
   -6.4778    0.1970    5.4783 C   0  0  0  0  0  0  0  0  0  0  0  0
   -3.1672    1.2933    2.0645 C   0  0  0  0  0  0  0  0  0  0  0  0
   -8.7807    0.2036    6.2449 C   0  0  0  0  0  0  0  0  0  0  0  0
   -2.3149   -0.5890    0.2033 C   0  0  0  0  0  0  0  0  0  0  0  0
   -8.2705    0.5971    3.8915 C   0  0  0  0  0  0  0  0  0  0  0  0
   -6.9059    0.4471    4.1662 C   0  0  0  0  0  0  0  0  0  0  0  0
   -3.8303    0.0595    1.9834 C   0  0  0  0  0  0  0  0  0  0  0  0
   -9.1775    0.4565    4.9344 C   0  0  0  0  0  0  0  0  0  0  0  0
   -3.4031   -0.8935    1.0407 C   0  0  0  0  0  0  0  0  0  0  0  0
   -5.9298    0.6880    3.0462 C   0  0  0  0  0  0  0  0  0  0  0  0
   -5.0396   -1.6336    3.2855 C   0  0  0  0  0  0  0  0  0  0  0  0
   -5.4415   -2.4855    2.0839 C   0  0  0  0  0  0  0  0  0  0  0  0
   -4.8904   -0.2264    2.9018 N   0  0  0  0  0  0  0  0  0  0  0  0
   -6.0451    1.6863    2.3425 O   0  0  0  0  0  0  0  0  0  0  0  0
  -10.5021    0.5800    4.6678 F   0  0  0  0  0  0  0  0  0  0  0  0
   -4.1308   -2.5014    0.8111 S   0  0  0  0  0  0  0  0  0  0  0  0
   -1.6078    2.5562    1.2958 H   0  0  0  0  0  0  0  0  0  0  0  0
   -0.8377    0.8584   -0.3762 H   0  0  0  0  0  0  0  0  0  0  0  0
   -7.0781   -0.0937    7.5281 H   0  0  0  0  0  0  0  0  0  0  0  0
   -5.4163    0.1100    5.6926 H   0  0  0  0  0  0  0  0  0  0  0  0
   -3.5091    2.0215    2.7916 H   0  0  0  0  0  0  0  0  0  0  0  0
   -9.5278    0.1133    7.0274 H   0  0  0  0  0  0  0  0  0  0  0  0
   -1.9819   -1.3281   -0.5215 H   0  0  0  0  0  0  0  0  0  0  0  0
   -8.6143    0.8324    2.8894 H   0  0  0  0  0  0  0  0  0  0  0  0
   -5.8072   -1.7177    4.0518 H   0  0  0  0  0  0  0  0  0  0  0  0
   -4.0944   -1.9891    3.7070 H   0  0  0  0  0  0  0  0  0  0  0  0
   -5.5871   -3.5268    2.3845 H   0  0  0  0  0  0  0  0  0  0  0  0
   -6.3754   -2.1108    1.6566 H   0  0  0  0  0  0  0  0  0  0  0  0
  1  2  1  0  0  0  0
  1  5  2  0  0  0  0
  1 20  1  0  0  0  0
  2  7  2  0  0  0  0
  2 21  1  0  0  0  0
  3  4  2  0  0  0  0
  3  6  1  0  0  0  0
  3 22  1  0  0  0  0
  4  9  1  0  0  0  0
  4 23  1  0  0  0  0
  5 10  1  0  0  0  0
  5 24  1  0  0  0  0
  6 11  2  0  0  0  0
  6 25  1  0  0  0  0
  7 12  1  0  0  0  0
  7 26  1  0  0  0  0
  8  9  2  0  0  0  0
  8 11  1  0  0  0  0
  8 27  1  0  0  0  0
  9 13  1  0  0  0  0
 10 12  2  0  0  0  0
 10 16  1  0  0  0  0
 11 18  1  0  0  0  0
 12 19  1  0  0  0  0
 13 16  1  0  0  0  0
 13 17  2  0  0  0  0
 14 15  1  0  0  0  0
 14 16  1  0  0  0  0
 14 28  1  0  0  0  0
 14 29  1  0  0  0  0
 15 19  1  0  0  0  0
 15 30  1  0  0  0  0
 15 31  1  0  0  0  0
M  END
$$$$
