31
0 1 C15FH12NOS
C                    -1.449618520428     1.231324475358     0.725832252368
C                    -1.007505597955     0.143912044363    -0.039489256668
C                    -8.885568090419     0.925098815352     3.918234584499
C                    -7.868755582980     0.879183945027     2.961695139101
C                    -2.590932545219     1.101784444820     1.509990162891
C                    -8.583735527322     0.848088767155     5.281919017541
C                    -1.714418267470    -1.053936564230    -0.013106872825
C                    -6.217182792641     0.652471383757     4.725668688015
C                    -6.535312251667     0.727160264913     3.361970305862
C                    -3.317847621163    -0.097820354764     1.535379619783
C                    -7.248711543680     0.722309794849     5.654332220978
C                    -2.878561817354    -1.189216685807     0.764328529167
C                    -5.458782826268     0.763013936557     2.311257446865
C                    -4.716961960739    -1.536134607493     2.947947252754
C                    -5.076582209856    -2.527436185412     1.843903559917
N                    -4.460474783328    -0.204132358019     2.390947449544
O                    -5.462557061013     1.651693183447     1.465649388389
F                    -6.939469578864     0.664531935651     6.975250631520
S                    -3.681489056153    -2.775804683723     0.689706975229
H                    -0.905183003482     2.171104068853     0.715091209142
H                    -0.114291424080     0.228260388735    -0.652463509601
H                    -9.920299300227     1.031154289370     3.604799609970
H                    -8.095618245365     0.972867779745     1.904361574685
H                    -2.943039277002     1.936631361919     2.105922459550
H                    -9.354938290710     0.892837992379     6.044715070673
H                    -1.371971348161    -1.899421901219    -0.605000758892
H                    -5.190159403455     0.559613197782     5.066231863456
H                    -5.542567639246    -1.478545627517     3.654018355875
H                    -3.827233657072    -1.871910570715     3.489038316810
H                    -5.298265328038    -3.510124668670     2.269329524648
H                    -5.956347419007    -2.175281758887     1.298806380954
