34
0 1 C16H15NOS
C                    -0.852618354742     1.329144888332     0.071226173035
C                    -0.363980156031     0.186523181985    -0.576472942467
C                    -8.215241780731     1.062758996102     3.410403138941
C                    -7.220204730299     0.965627376061     2.434519027928
C                    -7.871918491044     1.121916954758     4.763248022419
C                    -1.981530682968     1.233662036310     0.877799379314
C                    -1.014244383977    -1.032212003487    -0.412284383173
C                    -5.541719177673     0.962013032211     4.183023631578
C                    -5.877997531155     0.896427607778     2.822077367803
C                    -6.527506168129     1.086092065062     5.168351687805
C                    -2.651869735243     0.011941460562     1.042895816198
C                    -2.165937642953    -1.134884680435     0.388417755415
C                    -4.822487199192     0.862458950026     1.753586006648
C                    -3.980814171248    -1.328031335436     2.610484034455
C                    -4.301738474421    -2.441720791092     1.616372155124
C                    -6.161145672460     1.195844312864     6.630827267080
N                    -3.780745449698    -0.051459657931     1.918815478683
O                    -4.870114418178     1.648834933287     0.812663866637
S                    -2.894982662461    -2.755471668541     0.493121859007
H                    -0.353505183106     2.286498552246    -0.048105521099
H                     0.520379750670     0.244653372662    -1.205199594438
H                    -9.260683214484     1.100661329692     3.115381573387
H                    -7.471125979475     0.951189114541     1.378049255349
H                    -8.654486340468     1.205648035081     5.514745443589
H                    -2.369105385001     2.111559472161     1.382829112005
H                    -0.637184676541    -1.920607140424    -0.913455154557
H                    -4.493687881858     0.933895783217     4.473881138703
H                    -4.807120035872    -1.229833375689     3.311158731260
H                    -3.077229325277    -1.571673736204     3.177864484752
H                    -4.488032559716    -3.382977805025     2.141019693539
H                    -5.192262909327    -2.180164741598     1.038822924419
H                    -6.738632470837     0.491602310771     7.239000427475
H                    -5.099436246438     0.991781732152     6.794502275767
H                    -6.369150395846     2.201957333363     7.012665264809
