34
0 1 C16H15NOS
C                    -0.636239174451     0.465241919533    -2.238585635776
C                    -0.060705547992    -0.343649130555    -1.249535585178
C                    -5.162993874383    -2.325076205916    -7.734940647264
C                    -4.329501174684    -1.980896305327    -6.668465324279
C                    -6.534417185458    -2.497889898652    -7.528584178595
C                    -1.553580807530    -0.082774290884    -3.128746986322
C                    -0.415256231804    -1.685897034010    -1.161868257215
C                    -6.259172797928    -1.940033992551    -5.202862498193
C                    -4.879629214930    -1.792705056231    -5.393097720724
C                    -7.101526157262    -2.309822334145    -6.258023372109
C                    -1.926788507048    -1.432867855041    -3.043713532090
C                    -1.354717747462    -2.244665273373    -2.046900562939
C                    -4.049407915206    -1.315631750287    -4.235296719550
C                    -2.645799585794    -3.380463922227    -4.350167762013
C                    -2.920346575969    -4.275569354285    -3.144033407783
C                    -8.582544942099    -2.511818308513    -6.034192958642
N                    -2.837459866678    -1.968221854952    -4.008172474286
O                    -4.422019009752    -0.359007334904    -3.562571908863
S                    -1.718127042993    -3.970055188914    -1.802110651973
H                    -0.367187123389     1.514602868342    -2.318153869487
H                     0.662130487134     0.069144225843    -0.551040855059
H                    -4.744157372449    -2.452791649307    -8.729834338298
H                    -3.264154062804    -1.836133042379    -6.828612991141
H                    -7.174237143340    -2.770262229788    -8.365416282833
H                    -2.005534399373     0.534148190260    -3.897476195507
H                     0.030113617647    -2.316136571875    -0.395676643259
H                    -6.671493006398    -1.747925038185    -4.215594197847
H                    -1.621308224893    -3.524670924675    -4.706965099424
H                    -3.327518636319    -3.650440795133    -5.153558104956
H                    -3.938069252335    -4.109588090771    -2.781078156882
H                    -2.812250732213    -5.329365231462    -3.415615455089
H                    -8.813730918794    -3.572775546173    -5.880355534222
H                    -8.930206654105    -1.967254968812    -5.152042837764
H                    -9.165695862835    -2.171910952972    -6.895464345048
