
  -OEChem-05262117483D

 15 15  0     0  0  0  0  0  0999 V2000
    1.4078    0.1197    1.3158 C   0  0  0  0  0  0  0  0  0  0  0  0
    0.0599   -0.0295    0.9697 C   0  0  0  0  0  0  0  0  0  0  0  0
    1.9801   -0.6832    2.3070 C   0  0  0  0  0  0  0  0  0  0  0  0
   -0.6975   -0.9716    1.6769 C   0  0  0  0  0  0  0  0  0  0  0  0
    1.1151   -1.5954    2.9196 C   0  0  0  0  0  0  0  0  0  0  0  0
   -2.9769   -0.1821    0.2007 C   0  0  0  0  0  0  0  0  0  0  0  0
   -0.1528   -1.7376    2.6377 N   0  0  0  0  0  0  0  0  0  0  0  0
   -2.8236    1.1137    0.5543 F   0  0  0  0  0  0  0  0  0  0  0  0
   -4.2873   -0.4061   -0.0064 F   0  0  0  0  0  0  0  0  0  0  0  0
   -2.3352   -0.3421   -0.9802 F   0  0  0  0  0  0  0  0  0  0  0  0
   -2.4385   -1.3570    1.4838 S   0  0  0  0  0  0  0  0  0  0  0  0
    2.1084   -3.3894    4.0317 I   0  0  0  0  0  0  0  0  0  0  0  0
    2.0191    0.8504    0.7924 H   0  0  0  0  0  0  0  0  0  0  0  0
   -0.3651    0.5612    0.1684 H   0  0  0  0  0  0  0  0  0  0  0  0
    3.0203   -0.5901    2.5959 H   0  0  0  0  0  0  0  0  0  0  0  0
  1  2  1  0  0  0  0
  1  3  2  0  0  0  0
  1 13  1  0  0  0  0
  2  4  2  0  0  0  0
  2 14  1  0  0  0  0
  3  5  1  0  0  0  0
  3 15  1  0  0  0  0
  4  7  1  0  0  0  0
  4 11  1  0  0  0  0
  5  7  2  0  0  0  0
  5 12  1  0  0  0  0
  6  8  1  0  0  0  0
  6  9  1  0  0  0  0
  6 10  1  0  0  0  0
  6 11  1  0  0  0  0
M  END
$$$$
