34
0 1 C16H15NOS
C                    -1.720142710739    -1.091125730984    -0.709988035793
C                    -0.551764108012    -1.198285211542     0.055719793774
C                    -6.869419496889    -2.803741996590     0.046955005175
C                    -6.054745809914    -3.641216686007    -0.715736339663
C                    -6.436152665801    -2.347613519353     1.296366926930
C                    -2.385057299723    -2.244598533543    -1.118287656360
C                    -0.057157319542    -2.454677467549     0.401178784474
C                    -4.367277082546    -3.546601970366     1.022317649089
C                    -4.787818614620    -3.996761397459    -0.235821172178
C                    -5.185548751212    -2.725627513221     1.807173999445
C                    -1.923320951664    -3.510651940843    -0.732132583321
C                    -0.738706980442    -3.622681370477     0.020392812207
C                    -3.955505069915    -4.930952318682    -1.062143557715
C                    -1.717461846072    -5.776943781922    -1.601430434406
C                    -1.014462452614    -6.409585424483    -0.406285804941
C                    -4.731430575864    -2.275236602848     3.176603868217
N                    -2.590656177129    -4.693706130485    -1.145458710042
O                    -4.467624597165    -5.900745647626    -1.623138008560
S                    -0.055998537870    -5.171248880116     0.567387578314
H                    -2.101032052482    -0.116331645649    -1.000539667907
H                    -0.016574179495    -0.306019058640     0.368995126122
H                    -7.845547966062    -2.507626791079    -0.328541380487
H                    -6.385064368561    -4.023738841076    -1.676723170260
H                    -7.078816681311    -1.695006015342     1.883662543501
H                    -3.282155147481    -2.177421164140    -1.725360911338
H                     0.861146220120    -2.538071530782     0.977265840336
H                    -3.391118841863    -3.836385231878     1.401040761586
H                    -0.992191474067    -5.372926078132    -2.313677707631
H                    -2.338829717417    -6.517248253112    -2.105991252587
H                    -1.750390083218    -6.879240009899     0.249952950132
H                    -0.298369013586    -7.168013341996    -0.734458290703
H                    -4.976514254266    -3.026506477818     3.937018909657
H                    -3.648775040526    -2.120359318750     3.204766345987
H                    -5.216688252967    -1.339857313655     3.470294420791
