28   
torsion grid (-75,)
C        3.8626449481   -0.5792266945   -2.0825169223
C        4.3853617420   -1.4352119112   -1.0011611626
C        2.7045908369    0.1205693697   -1.8416345021
C        1.8148705614   -0.4168836687   -0.7329530313
C       -0.8857275596    1.4125236318    0.6096050861
C       -1.5277976977    0.0208889952    0.6256183862
C        0.0524199149    1.3368128326   -0.6032271379
C       -0.3788518359   -0.9218867297    0.2312655622
C        2.2191781921    1.1705486138   -2.8058924347
C       -0.8341203116   -2.1843517163   -0.4976792870
N        3.6053718479   -1.4864705281    0.0420845108
N        2.2575653757   -1.5846258754   -0.3043629478
N        0.4940083354   -0.0708737084   -0.6137552577
H        4.4367469119   -0.3922376442   -2.9858332466
H        5.4542318895   -1.5895260852   -0.8566238036
H       -1.6101464606    2.2272380308    0.5226644470
H       -0.3000786621    1.5702917576    1.5217463395
H       -1.9553266347   -0.2479594735    1.5950454406
H       -2.3298328782   -0.0341904513   -0.1204602548
H       -0.4864393777    1.5890665748   -1.5251977504
H        0.9039254697    2.0136511708   -0.5112379077
H        0.2023251352   -1.2199869534    1.1139060486
H        1.2039914893    0.9512768007   -3.1538206344
H        2.1987581923    2.1675493779   -2.3523848115
H        2.8762588115    1.2178564552   -3.6783478287
H       -1.3615627008   -1.9255211651   -1.4225768705
H       -1.5154830731   -2.7598555857    0.1394121332
H        0.0225731259   -2.8161341153   -0.7415532726
28   
torsion grid (-60,)
C        3.8824578737   -0.5393557257   -2.0314789867
C        4.3753323113   -1.3985494804   -0.9813221435
C        2.6810339890    0.1024810478   -1.8310366188
C        1.8212263222   -0.4513820543   -0.7616022778
C       -0.8608290289    1.3874918486    0.6357519292
C       -1.5228265855    0.0062802594    0.6066193924
C        0.1006151424    1.3277440046   -0.5600184496
C       -0.3729587215   -0.9384685940    0.2277830996
C        2.1749128853    1.1270332806   -2.8130831230
C       -0.8227551151   -2.2117262537   -0.4845927727
N        3.5924351230   -1.5863326201    0.0572358258
N        2.2507231177   -1.5904955912   -0.2238718839
N        0.4962236729   -0.0958572761   -0.6303461874
H        4.4801739205   -0.3272360329   -2.9139951391
H        5.4368826733   -1.5994904894   -0.8493867084
H       -1.5706542125    2.2154437437    0.5533019148
H       -0.2935680103    1.5148048725    1.5640796384
H       -1.9801723232   -0.2763819002    1.5584150262
H       -2.3033825939   -0.0246533325   -0.1634266810
H       -0.4066447387    1.6414816618   -1.4804785454
H        0.9726295739    1.9702029109   -0.4175854971
H        0.2010569038   -1.2215624824    1.1198952295
H        1.1721404817    0.8652252987   -3.1671130279
H        2.1146950212    2.1294656006   -2.3771979700
H        2.8414062523    1.1828501816   -3.6778731813
H       -1.3486113795   -1.9664822737   -1.4139891796
H       -1.5033884159   -2.7811600419    0.1585796119
H        0.0353770086   -2.8455221467   -0.7183732772
28   
torsion grid (-45,)
C        3.8926190562   -0.4939894250   -2.0123896642
C        4.3634437017   -1.3838502594   -1.0040564812
C        2.6578599130    0.1000862273   -1.8467284775
C        1.8194810593   -0.4550778013   -0.7939727857
C       -0.8559609895    1.4045876502    0.6256395300
C       -1.5296880405    0.0302019419    0.5724610592
C        0.1295547927    1.3453132536   -0.5506181061
C       -0.3757793166   -0.9183459834    0.2212478052
C        2.1437160468    1.1129442919   -2.8373714782
C       -0.8159559282   -2.2053181641   -0.4714247181
N        3.5789343868   -1.6773314764    0.0168157794
N        2.2455140230   -1.5599904747   -0.1716969450
N        0.4948675383   -0.0869275826   -0.6477250053
H        4.5116635925   -0.2463494615   -2.8711646267
H        5.4174471373   -1.6332993296   -0.9064251745
H       -1.5552265170    2.2407133456    0.5359555305
H       -0.3076850260    1.5180985577    1.5670656287
H       -2.0142306200   -0.2531928714    1.5105356099
H       -2.2885604841    0.0081274401   -0.2193074115
H       -0.3494075127    1.6915557538   -1.4742886695
H        1.0131106925    1.9645541471   -0.3751502782
H        0.1858699044   -1.1816758581    1.1268824877
H        1.1424130126    0.8385638902   -3.1852166210
H        2.0769391009    2.1195729792   -2.4128546065
H        2.8080280996    1.1636362081   -3.7042554135
H       -1.3363713689   -1.9780430212   -1.4083478304
H       -1.4984908449   -2.7660436198    0.1772366051
H        0.0452524300   -2.8408791780   -0.6885492163
28   
torsion grid (-30,)
C        3.9080632110   -0.4524566357   -1.9680263089
C        4.3560795226   -1.3764159710   -0.9991355711
C        2.6448051727    0.0930358706   -1.8379867003
C        1.8199064040   -0.4781959006   -0.8049134648
C       -0.8575227378    1.3920323752    0.6330145990
C       -1.5350663846    0.0204838412    0.5611817099
C        0.1489604717    1.3353124164   -0.5257544107
C       -0.3761026131   -0.9281722636    0.2306393990
C        2.1197341812    1.0912134615   -2.8379230001
C       -0.8059314709   -2.2228042284   -0.4536810580
N        3.5615354015   -1.7815429854   -0.0169630463
N        2.2445054272   -1.5547052876   -0.1212746825
N        0.4970897985   -0.1004604129   -0.6401220555
H        4.5536976283   -0.1574879225   -2.7918676341
H        5.3975327862   -1.6813457200   -0.9335327521
H       -1.5516556858    2.2315233289    0.5354291658
H       -0.3264914193    1.4983006593    1.5850786653
H       -2.0391395115   -0.2647812390    1.4883799025
H       -2.2771997528    0.0030565021   -0.2464356867
H       -0.3075753567    1.7032405381   -1.4523552996
H        1.0379644149    1.9397261133   -0.3243405033
H        0.1736458701   -1.1797065384    1.1465387123
H        1.1273558163    0.7929710095   -3.1913494489
H        2.0278159368    2.0985431892   -2.4203819953
H        2.7903992407    1.1503340316   -3.6994296794
H       -1.3179880272   -2.0057145274   -1.3975702520
H       -1.4930011737   -2.7792172910    0.1938225285
H        0.0585365541   -2.8586439896   -0.6566293254
28   
torsion grid (-15,)
C        3.9409514171   -0.4103995704   -1.9222798364
C        4.3686318940   -1.3840515839   -1.0043219914
C        2.6545044029    0.0860616698   -1.8238882322
C        1.8406153485   -0.5106330643   -0.8088559829
C       -0.8466514834    1.3566367410    0.6504595099
C       -1.5203826894   -0.0156283506    0.5594658314
C        0.1800277470    1.3087490216   -0.4912451196
C       -0.3533414407   -0.9587876107    0.2446880735
C        2.1188162359    1.0780738908   -2.8243405923
C       -0.7695865446   -2.2593624654   -0.4363610930
N        3.5628409008   -1.8961778410   -0.0778928704
N        2.2691763612   -1.5643859966   -0.0857560111
N        0.5196323497   -0.1277760467   -0.6238337105
H        4.6101595380   -0.0605787216   -2.7050032442
H        5.3978510746   -1.7332899252   -0.9764017559
H       -1.5406575298    2.1953381542    0.5455721534
H       -0.3331609599    1.4587051596    1.6125006080
H       -2.0402724049   -0.3068349389    1.4760560988
H       -2.2473914719   -0.0305501549   -0.2618590036
H       -0.2569380109    1.6958845773   -1.4193840576
H        1.0704824371    1.9028887791   -0.2646160514
H        0.1865139447   -1.2009884489    1.1687496341
H        1.1321041743    0.7653506710   -3.1804403046
H        2.0109702675    2.0835229229   -2.4062005871
H        2.7912788907    1.1472373666   -3.6837401476
H       -1.2731362804   -2.0499858635   -1.3865327747
H       -1.4606690466   -2.8149437925    0.2075048676
H        0.0994762768   -2.8926930001   -0.6268099991
28   
torsion grid (0,)
C        3.9506209379   -0.3719523693   -1.8923551232
C        4.3583048676   -1.3970418381   -1.0248561678
C        2.6473570047    0.0873571589   -1.8283074387
C        1.8334619610   -0.5181132143   -0.8228115476
C       -0.8522386133    1.3645805041    0.6384882104
C       -1.5262917373   -0.0078962503    0.5517183322
C        0.1790155923    1.3101753995   -0.4986124200
C       -0.3576840047   -0.9527487941    0.2488957496
C        2.1110939915    1.0698633676   -2.8380757166
C       -0.7697949181   -2.2591074173   -0.4233348424
N        3.5286819511   -1.9835475400   -0.1650413815
N        2.2730106678   -1.5440115104   -0.0667542422
N        0.5165776433   -0.1270889868   -0.6246709881
H        4.6402387768    0.0233707383   -2.6348778487
H        5.3733245370   -1.7864550879   -1.0383337239
H       -1.5451097124    2.2033816000    0.5270518982
H       -0.3426101639    1.4706310997    1.6021597972
H       -2.0507202349   -0.2933786938    1.4675515102
H       -2.2491137502   -0.0275017723   -0.2731973670
H       -0.2542557649    1.6939347056   -1.4300389161
H        1.0696169235    1.9040024069   -0.2713619112
H        0.1769707996   -1.1863176745    1.1778021857
H        1.1345412972    0.7403735108   -3.2067955170
H        1.9804776279    2.0740514562   -2.4237074083
H        2.7938579101    1.1484218517   -3.6884748482
H       -1.2705163083   -2.0578445110   -1.3767273863
H       -1.4620548685   -2.8107809738    0.2225895138
H        0.1007797629   -2.8927138240   -0.6060208145
28   
torsion grid (15,)
C        3.9681718365   -0.3304440472   -1.8431757289
C        4.3552197828   -1.4084243226   -1.0286618047
C        2.6520092190    0.0946912662   -1.8157175340
C        1.8342301991   -0.5228226314   -0.8202353867
C       -0.8635316671    1.3668983976    0.6343445511
C       -1.5295840463   -0.0096995397    0.5494256088
C        0.1810187495    1.3104746757   -0.4906077851
C       -0.3522473024   -0.9498745733    0.2677919676
C        2.1190285030    1.0721160944   -2.8323196802
C       -0.7494412864   -2.2669674581   -0.3921637602
N        3.4971811476   -2.0552791337   -0.2438894936
N        2.2916090118   -1.5169131319   -0.0350504539
N        0.5214000970   -0.1264756144   -0.6090929623
H        4.6769151599    0.1074956285   -2.5426054237
H        5.3540300347   -1.8345311725   -1.0863785655
H       -1.5593222013    2.2014418997    0.5100724376
H       -0.3654051126    1.4816264710    1.6030165507
H       -2.0638869653   -0.2910955129    1.4608188204
H       -2.2416058625   -0.0392930319   -0.2845405602
H       -0.2418549431    1.6912376972   -1.4280398180
H        1.0684582736    1.9059112791   -0.2546425761
H        0.1745726176   -1.1676956701    1.2048311477
H        1.1488716336    0.7347330753   -3.2102850503
H        1.9763106523    2.0755508571   -2.4199548063
H        2.8089656106    1.1553134185   -3.6764341513
H       -1.2437891312   -2.0804973014   -1.3518666174
H       -1.4432238535   -2.8154208212    0.2548146305
H        0.1267755379   -2.8967657946   -0.5601144708
28   
torsion grid (30,)
C        3.9688373375   -0.3077355845   -1.8037961226
C        4.3293766965   -1.4450724711   -1.0490557415
C        2.6455189797    0.0949228822   -1.8157406777
C        1.8131797900   -0.5353140595   -0.8336819449
C       -0.8869540570    1.3738402600    0.6142553458
C       -1.5470043728   -0.0063881873    0.5403692722
C        0.1673111693    1.3093272775   -0.5013633920
C       -0.3640729458   -0.9447939898    0.2781215288
C        2.1276578808    1.0766355607   -2.8364286884
C       -0.7514300464   -2.2736838512   -0.3635018582
N        3.4299975195   -2.1338031828   -0.3547508196
N        2.2913542792   -1.4994028026   -0.0295139183
N        0.5078392071   -0.1283734061   -0.6076411431
H        4.6981408456    0.1671499911   -2.4563456725
H        5.3066185282   -1.9102203697   -1.1577429594
H       -1.5851700131    2.2039780029    0.4751397064
H       -0.3973023774    1.5017989760    1.5855669531
H       -2.0870140321   -0.2790460726    1.4510668911
H       -2.2523983193   -0.0487298553   -0.2986460225
H       -0.2469428001    1.6832902846   -1.4453298451
H        1.0529664471    1.9058392477   -0.2614820202
H        0.1588737299   -1.1450885430    1.2211772346
H        1.1665007752    0.7371157833   -3.2348945332
H        1.9716234517    2.0765131788   -2.4201295739
H        2.8318620314    1.1691997864   -3.6676264804
H       -1.2425987761   -2.1043469174   -1.3279821697
H       -1.4454350430   -2.8151292127    0.2890649684
H        0.1285714893   -2.9015358917   -0.5177911691
28   
torsion grid (45,)
C        3.9852330191   -0.3198081929   -1.7712438901
C        4.3250442707   -1.5195326048   -1.0799058959
C        2.6588658322    0.0712246783   -1.8216130400
C        1.7936472214   -0.5791574082   -0.8634679759
C       -0.9041628582    1.3556412474    0.5805734728
C       -1.5562471934   -0.0293250770    0.5205791510
C        0.1644598212    1.2830415932   -0.5214522209
C       -0.3678782359   -0.9659196880    0.2777258697
C        2.1702810389    1.0709672114   -2.8400803093
C       -0.7463840501   -2.3056338176   -0.3464283618
N        3.3680029798   -2.2294794002   -0.5049972250
N        2.3061212624   -1.5171584235   -0.0624154148
N        0.5024555566   -0.1554398961   -0.6149156313
H        4.7337427924    0.1900934415   -2.3736184838
H        5.2747496547   -2.0185074789   -1.2611109531
H       -1.6059184208    2.1790489357    0.4211695173
H       -0.4270407525    1.5017033628    1.5554937310
H       -2.1010724972   -0.2922632381    1.4312524478
H       -2.2555664616   -0.0867738598   -0.3225584672
H       -0.2349770173    1.6518426550   -1.4736555772
H        1.0481468099    1.8783930570   -0.2718684866
H        0.1519198762   -1.1497431728    1.2260962233
H        1.2306124397    0.7286934732   -3.2854695278
H        1.9822745713    2.0584323228   -2.4076116947
H        2.9043744080    1.1934528564   -3.6409352624
H       -1.2291187755   -2.1522762847   -1.3178160134
H       -1.4461540006   -2.8366522539    0.3084880077
H        0.1359216765   -2.9341672184   -0.4823962320
28   
torsion grid (60,)
C        3.9919146900   -0.2929734414   -1.7237208046
C        4.3033724931   -1.5607776175   -1.1042029030
C        2.6672920682    0.0902068518   -1.8183571700
C        1.7710105291   -0.5829439040   -0.8772873562
C       -0.9305240410    1.3676860568    0.5618216845
C       -1.5648471360   -0.0267119506    0.5321774748
C        0.1400793281    1.2860112276   -0.5376630023
C       -0.3657061431   -0.9543261480    0.3080503219
C        2.2082219749    1.1106328423   -2.8300355978
C       -0.7283746888   -2.3109035775   -0.2886533749
N        3.2919697294   -2.2713597455   -0.6461390295
N        2.3264132743   -1.4856244602   -0.0740318107
N        0.4940192412   -0.1498995163   -0.6003137358
H        4.7579643066    0.2374488399   -2.2845655351
H        5.2254079466   -2.0886077629   -1.3426813072
H       -1.6428978767    2.1782658147    0.3850537470
H       -0.4555398666    1.5409890818    1.5333044990
H       -2.1062665224   -0.2765796335    1.4485071900
H       -2.2634391422   -0.1111742514   -0.3092618638
H       -0.2613759940    1.6287095137   -1.4987406467
H        1.0161977175    1.8960890706   -0.2988411838
H        0.1572322678   -1.1121731679    1.2594442625
H        1.2881923478    0.7718365747   -3.3177382638
H        1.9946068130    2.0861373041   -2.3820934456
H        2.9679441122    1.2588623182   -3.6020829337
H       -1.2138548289   -2.1829088684   -1.2623489046
H       -1.4218962343   -2.8355392145    0.3778841960
H        0.1610668081   -2.9314736587   -0.4126331124
28   
torsion grid (75,)
C        4.0160717722   -0.2833255851   -1.6725022139
C        4.3135728854   -1.6258835603   -1.1252894037
C        2.6991593437    0.1059767737   -1.8158536311
C        1.7449271491   -0.6073885094   -0.9089245994
C       -0.9488807360    1.3637878562    0.5386405529
C       -1.5613558559   -0.0408213476    0.5519590103
C        0.1188661363    1.2709481642   -0.5630839251
C       -0.3526304048   -0.9591150246    0.3378765230
C        2.2849804701    1.1518675415   -2.8209813712
C       -0.7039077368   -2.3306120859   -0.2315436429
N        3.2371978809   -2.3122535734   -0.8359749713
N        2.3577994858   -1.4887039762   -0.1429894197
N        0.4929045355   -0.1594876094   -0.5873502108
H        4.7995859800    0.2558028352   -2.2001100246
H        5.2168818088   -2.1566321409   -1.4260443468
H       -1.6755744076    2.1571116829    0.3433553376
H       -0.4719638983    1.5726634736    1.5021047633
H       -2.0902063179   -0.2742242055    1.4798235976
H       -2.2670001597   -0.1578273954   -0.2795682777
H       -0.2889106281    1.5794479026   -1.5330667050
H        0.9859134862    1.8994165262   -0.3423866237
H        0.1803923459   -1.0932933926    1.2877463479
H        1.4140365570    0.8043693398   -3.3879636235
H        2.0054969735    2.1034073345   -2.3575042749
H        3.0915135987    1.3532553443   -3.5313026643
H       -1.1954933997   -2.2256388187   -1.2049395903
H       -1.3903996165   -2.8471298950    0.4484311227
H        0.1910170383   -2.9441811316   -0.3481593275
