
  -OEChem-05262117483D

 37 40  0     0  0  0  0  0  0999 V2000
    5.3819   -4.3769   -1.1502 C   0  0  0  0  0  0  0  0  0  0  0  0
    5.6503   -3.1777   -0.4784 C   0  0  0  0  0  0  0  0  0  0  0  0
    4.1968   -5.0886   -0.9236 C   0  0  0  0  0  0  0  0  0  0  0  0
    1.6279  -10.1805   -2.6208 C   0  0  0  0  0  0  0  0  0  0  0  0
    2.2022  -10.9155   -3.6752 C   0  0  0  0  0  0  0  0  0  0  0  0
    4.7345   -2.6612    0.4491 C   0  0  0  0  0  0  0  0  0  0  0  0
    2.6244   -8.1023   -3.4308 C   0  0  0  0  0  0  0  0  0  0  0  0
    3.2752   -4.5718   -0.0061 C   0  0  0  0  0  0  0  0  0  0  0  0
    1.8300   -8.7980   -2.4803 C   0  0  0  0  0  0  0  0  0  0  0  0
    2.9764  -10.2143   -4.5792 C   0  0  0  0  0  0  0  0  0  0  0  0
    3.1784   -8.8364   -4.4545 C   0  0  0  0  0  0  0  0  0  0  0  0
    3.5690   -3.3785    0.6584 C   0  0  0  0  0  0  0  0  0  0  0  0
    1.9520   -5.0778    0.4666 C   0  0  0  0  0  0  0  0  0  0  0  0
    1.2555   -8.0509   -1.3400 C   0  0  0  0  0  0  0  0  0  0  0  0
    4.3776   -9.5662   -6.2040 C   0  0  0  0  0  0  0  0  0  0  0  0
    0.0027   -8.5344   -0.6453 C   0  0  0  0  0  0  0  0  0  0  0  0
    1.3169   -4.3853    1.3738 N   0  0  0  0  0  0  0  0  0  0  0  0
    1.8778   -6.9677   -0.9972 N   0  0  0  0  0  0  0  0  0  0  0  0
    1.3682   -6.2283    0.0281 N   0  0  0  0  0  0  0  0  0  0  0  0
    2.6741   -3.1200    3.1776 O   0  0  0  0  0  0  0  0  0  0  0  0
    1.5019   -1.8073    1.3622 O   0  0  0  0  0  0  0  0  0  0  0  0
    3.6072  -10.6768   -5.7084 O   0  0  0  0  0  0  0  0  0  0  0  0
    3.9419   -8.3861   -5.5095 O   0  0  0  0  0  0  0  0  0  0  0  0
    2.2162   -3.0094    1.7923 S   0  0  0  0  0  0  0  0  0  0  0  0
    6.1063   -4.7659   -1.8603 H   0  0  0  0  0  0  0  0  0  0  0  0
    6.5770   -2.6448   -0.6729 H   0  0  0  0  0  0  0  0  0  0  0  0
    3.9949   -6.0182   -1.4377 H   0  0  0  0  0  0  0  0  0  0  0  0
    1.0414  -10.7218   -1.8863 H   0  0  0  0  0  0  0  0  0  0  0  0
    2.0451  -11.9846   -3.7737 H   0  0  0  0  0  0  0  0  0  0  0  0
    4.9301   -1.7375    0.9853 H   0  0  0  0  0  0  0  0  0  0  0  0
    2.7635   -7.0300   -3.3574 H   0  0  0  0  0  0  0  0  0  0  0  0
    5.4404   -9.7421   -5.9936 H   0  0  0  0  0  0  0  0  0  0  0  0
    4.1914   -9.4473   -7.2735 H   0  0  0  0  0  0  0  0  0  0  0  0
    0.1949   -8.7737    0.4078 H   0  0  0  0  0  0  0  0  0  0  0  0
   -0.7757   -7.7617   -0.6751 H   0  0  0  0  0  0  0  0  0  0  0  0
   -0.4157   -9.4173   -1.1246 H   0  0  0  0  0  0  0  0  0  0  0  0
    0.4777   -6.4539    0.4681 H   0  0  0  0  0  0  0  0  0  0  0  0
  1  2  1  0  0  0  0
  1  3  2  0  0  0  0
  1 25  1  0  0  0  0
  2  6  2  0  0  0  0
  2 26  1  0  0  0  0
  3  8  1  0  0  0  0
  3 27  1  0  0  0  0
  4  5  2  0  0  0  0
  4  9  1  0  0  0  0
  4 28  1  0  0  0  0
  5 10  1  0  0  0  0
  5 29  1  0  0  0  0
  6 12  1  0  0  0  0
  6 30  1  0  0  0  0
  7  9  2  0  0  0  0
  7 11  1  0  0  0  0
  7 31  1  0  0  0  0
  8 12  2  0  0  0  0
  8 13  1  0  0  0  0
  9 14  1  0  0  0  0
 10 11  2  0  0  0  0
 10 22  1  0  0  0  0
 11 23  1  0  0  0  0
 12 24  1  0  0  0  0
 13 17  2  0  0  0  0
 13 19  1  0  0  0  0
 14 16  1  0  0  0  0
 14 18  2  0  0  0  0
 15 22  1  0  0  0  0
 15 23  1  0  0  0  0
 15 32  1  0  0  0  0
 15 33  1  0  0  0  0
 16 34  1  0  0  0  0
 16 35  1  0  0  0  0
 16 36  1  0  0  0  0
 17 24  1  0  0  0  0
 18 19  1  0  0  0  0
 19 37  1  0  0  0  0
 20 24  2  0  0  0  0
 21 24  2  0  0  0  0
M  END
$$$$
