
  -OEChem-05262117483D

 25 26  0     0  0  0  0  0  0999 V2000
   -1.9284   -1.4074   -2.1182 C   0  0  0  0  0  0  0  0  0  0  0  0
   -2.7357   -1.9115   -1.0956 C   0  0  0  0  0  0  0  0  0  0  0  0
   -3.7303    0.2906   -0.8323 C   0  0  0  0  0  0  0  0  0  0  0  0
   -1.9926   -0.0665   -2.5170 C   0  0  0  0  0  0  0  0  0  0  0  0
   -3.6175   -1.0452   -0.4610 C   0  0  0  0  0  0  0  0  0  0  0  0
   -2.9267    0.7537   -1.8670 C   0  0  0  0  0  0  0  0  0  0  0  0
    0.8330    0.6055   -0.5415 C   0  0  0  0  0  0  0  0  0  0  0  0
    1.4813   -0.1944   -1.6701 C   0  0  0  0  0  0  0  0  0  0  0  0
    0.5695    1.7288   -2.5490 C   0  0  0  0  0  0  0  0  0  0  0  0
   -0.5471    1.5906   -3.5817 C   0  0  0  0  0  0  0  0  0  0  0  0
    0.0375    1.5715   -1.2390 O   0  0  0  0  0  0  0  0  0  0  0  0
    1.6091    0.7760   -2.7155 O   0  0  0  0  0  0  0  0  0  0  0  0
   -1.1938    0.3094   -3.5665 O   0  0  0  0  0  0  0  0  0  0  0  0
   -4.4025   -1.5100    0.5455 F   0  0  0  0  0  0  0  0  0  0  0  0
   -3.0690    2.0498   -2.2437 F   0  0  0  0  0  0  0  0  0  0  0  0
   -1.2311   -2.0553   -2.6401 H   0  0  0  0  0  0  0  0  0  0  0  0
   -2.6818   -2.9522   -0.7930 H   0  0  0  0  0  0  0  0  0  0  0  0
   -4.4321    0.9576   -0.3429 H   0  0  0  0  0  0  0  0  0  0  0  0
    0.1687    0.0094    0.0888 H   0  0  0  0  0  0  0  0  0  0  0  0
    1.5807    1.1138    0.0805 H   0  0  0  0  0  0  0  0  0  0  0  0
    2.4796   -0.5645   -1.4260 H   0  0  0  0  0  0  0  0  0  0  0  0
    0.8470   -1.0264   -1.9937 H   0  0  0  0  0  0  0  0  0  0  0  0
    1.0201    2.7268   -2.6614 H   0  0  0  0  0  0  0  0  0  0  0  0
   -0.1056    1.6630   -4.5779 H   0  0  0  0  0  0  0  0  0  0  0  0
   -1.2623    2.4043   -3.4472 H   0  0  0  0  0  0  0  0  0  0  0  0
  1  2  1  0  0  0  0
  1  4  2  0  0  0  0
  1 16  1  0  0  0  0
  2  5  2  0  0  0  0
  2 17  1  0  0  0  0
  3  5  1  0  0  0  0
  3  6  2  0  0  0  0
  3 18  1  0  0  0  0
  4  6  1  0  0  0  0
  4 13  1  0  0  0  0
  5 14  1  0  0  0  0
  6 15  1  0  0  0  0
  7  8  1  0  0  0  0
  7 11  1  0  0  0  0
  7 19  1  0  0  0  0
  7 20  1  0  0  0  0
  8 12  1  0  0  0  0
  8 21  1  0  0  0  0
  8 22  1  0  0  0  0
  9 10  1  0  0  0  0
  9 11  1  0  0  0  0
  9 12  1  0  0  0  0
  9 23  1  0  0  0  0
 10 13  1  0  0  0  0
 10 24  1  0  0  0  0
 10 25  1  0  0  0  0
M  END
$$$$
