25
0 1 C10F2H10O3
C                    -3.420787813067    -0.793960008166    -2.655439792253
C                    -4.737714163649    -1.103495454663    -3.005357942344
C                    -4.366306687960    -0.119836560944    -5.203455319547
C                    -2.558223011723    -0.158490130377    -3.554990588053
C                    -5.186209910511    -0.753346578015    -4.274322364064
C                    -3.057143774525     0.158805985670    -4.826717738154
C                     2.743676049218     1.617781406954    -2.967692309721
C                     2.243551244217     3.047040178166    -2.738359977294
C                     0.536517385425     1.490989351336    -2.527794613012
C                    -0.809246143872     1.432314944233    -3.225666311050
O                     1.547795355420     0.927860940471    -3.337535024273
O                     0.883901575735     2.862379117868    -2.310348547963
O                    -1.257530997739     0.067062987749    -3.184721324918
F                    -6.464468948928    -1.039957019975    -4.628574703057
F                    -2.238974200018     0.750922597134    -5.730845467026
H                    -3.032702555568    -1.048810742096    -1.673984667611
H                    -5.407992201793    -1.599954897839    -2.311394524930
H                    -4.725319245844     0.137119594479    -6.194331735327
H                     3.460504891107     1.520851260552    -3.784897749809
H                     3.169712366944     1.186761282382    -2.050625277280
H                     2.796411860327     3.578004780117    -1.957877535880
H                     2.255931794861     3.636856239332    -3.662091314065
H                     0.493008318745     0.971891384290    -1.556994651427
H                    -0.701333120258     1.786054547551    -4.254011494947
H                    -1.513740367699     2.074422492863    -2.684909041394
