22
0 1 C8Cl2H8N2O2
C                     2.000229641258    -1.765174479552    -0.288821836481
C                     0.939765348045    -0.921652681061     0.039967542906
C                     2.079595242431    -0.318607591803     2.101707060349
C                     3.108442387955    -1.900559563429     0.556047892784
C                     0.993574087115    -0.198572959830     1.233951152279
C                     3.129973349216    -1.174406169287     1.759334733860
C                     5.060216743145    -1.348331028330    -1.576131863700
C                     5.314078238489    -2.183467093148    -0.346774482912
N                     5.213354394205    -1.940808602152    -2.714088534262
N                     4.750283397720    -0.012283393708    -1.413412252716
O                     4.911279589656    -1.028584049199    -3.770684023471
O                     4.109431951743    -2.770528347716     0.207035879289
Cl                   -0.325544152516     0.875399042070     1.660568067365
Cl                    4.475669879386    -1.346428842636     2.865000238428
H                     1.995391702111    -2.332836542085    -1.214163136705
H                     0.085822960171    -0.822075431499    -0.621970710023
H                     2.108871394808     0.234229555297     3.034273735624
H                     5.820323189603    -1.585121684908     0.417481014509
H                     5.935070367555    -3.036113801205    -0.614955804624
H                     4.371306502416     0.437041346296    -2.239781978447
H                     4.287302276692     0.242856641403    -0.550292339186
H                     5.068548823539    -1.569203251229    -4.560326416566
