25
0 1 C10F2H10O3
C                    -2.245722664691     0.318893643836    -3.220512876450
C                    -3.562748548216     0.724854025960    -2.987245751620
C                    -2.732741290090     2.611933953553    -1.685311171336
C                    -1.163002797280     1.030394644900    -2.694447270112
C                    -3.778384806036     1.868926609217    -2.226504139049
C                    -1.436481495086     2.170841787461    -1.926002043877
C                     3.077085071569    -1.270262731547    -3.108193891629
C                     1.941800375497    -1.653099170253    -4.054531350750
C                     2.194230425319     0.626781666424    -4.090362024353
C                     0.988558990022     1.434057360742    -3.629576782370
O                     2.918894190905     0.146009036062    -2.964636311329
O                     1.832982929820    -0.490975214610    -4.889025624156
O                     0.111276542758     0.566351131829    -2.894059269395
F                    -5.050400378884     2.281736073769    -1.996539413396
F                    -0.404259611860     2.868338346482    -1.393095763738
H                    -2.033054725890    -0.563833195533    -3.815801979376
H                    -4.406961854318     0.174813643919    -3.389917567260
H                    -2.917452886811     3.497169500368    -1.086166462086
H                     2.995817750378    -1.727026401357    -2.118934138686
H                     4.059662348237    -1.497711425942    -3.542107964655
H                     2.171624112465    -2.507679814636    -4.694812026187
H                     1.005012421861    -1.823101624933    -3.513333334687
H                     2.834716765480     1.276479875842    -4.704403019166
H                     0.468932168562     1.828262420388    -4.511106601722
H                     1.327020575213     2.265949452841    -3.003090365079
