22
0 1 C8Cl2H8N2O2
C                     2.035780464785    -0.860464967963    -0.316908578408
C                     0.913182834672    -0.255278616039     0.248870131848
C                     1.617698114461    -1.033925532213     2.442728619673
C                     2.958005810840    -1.550665152227     0.474513284184
C                     0.715550397374    -0.349637670295     1.627212593706
C                     2.735400913584    -1.632237522912     1.858381806067
C                     3.198267324867    -3.651586934762    -1.740259948623
C                     3.960052813572    -3.497716706646    -0.451339471106
N                     2.175601112042    -4.439224518827    -1.726797034787
N                     3.688538770829    -2.981745626571    -2.840415728866
O                     1.589025049475    -4.477374867191    -3.028992748149
O                     4.087673571285    -2.100962153464    -0.089911563221
Cl                   -0.690143800432     0.405777942989     2.355990812648
Cl                    3.873476622559    -2.489684355113     2.872086185867
H                     2.209082704505    -0.802945934630    -1.386832369355
H                     0.200898254454     0.279384839362    -0.370744263183
H                     1.459483584867    -1.099927895370     3.513507269944
H                     4.988034299265    -3.849192669778    -0.568695804922
H                     3.465257606265    -4.067752203054     0.336901258560
H                     3.054397201923    -2.920809277939    -3.628405448614
H                     4.214363966668    -2.140341542360    -2.637078597192
H                     0.831535431950    -5.068192570857    -2.895916559694
