
  -OEChem-05262117483D

 22 22  0     0  0  0  0  0  0999 V2000
    2.0582   -1.1294   -0.1027 C   0  0  0  0  0  0  0  0  0  0  0  0
    0.9423   -0.5831    0.5307 C   0  0  0  0  0  0  0  0  0  0  0  0
    1.8764   -1.2020    2.6860 C   0  0  0  0  0  0  0  0  0  0  0  0
    3.1016   -1.7042    0.6363 C   0  0  0  0  0  0  0  0  0  0  0  0
    0.8603   -0.6256    1.9241 C   0  0  0  0  0  0  0  0  0  0  0  0
    2.9954   -1.7320    2.0389 C   0  0  0  0  0  0  0  0  0  0  0  0
    5.9830   -0.6461   -0.1369 C   0  0  0  0  0  0  0  0  0  0  0  0
    4.9760   -1.4968   -0.8644 C   0  0  0  0  0  0  0  0  0  0  0  0
    7.2230   -0.9144   -0.3792 N   0  0  0  0  0  0  0  0  0  0  0  0
    5.5315    0.3945    0.6509 N   0  0  0  0  0  0  0  0  0  0  0  0
    8.0578   -0.0154    0.3491 O   0  0  0  0  0  0  0  0  0  0  0  0
    4.1836   -2.2951    0.0424 O   0  0  0  0  0  0  0  0  0  0  0  0
   -0.5404    0.0502    2.7342 Cl  0  0  0  0  0  0  0  0  0  0  0  0
    4.2829   -2.4279    2.9903 Cl  0  0  0  0  0  0  0  0  0  0  0  0
    2.1159   -1.1248   -1.1869 H   0  0  0  0  0  0  0  0  0  0  0  0
    0.1396   -0.1425   -0.0513 H   0  0  0  0  0  0  0  0  0  0  0  0
    1.8090   -1.2337    3.7680 H   0  0  0  0  0  0  0  0  0  0  0  0
    5.5111   -2.2041   -1.4956 H   0  0  0  0  0  0  0  0  0  0  0  0
    4.3281   -0.8702   -1.4864 H   0  0  0  0  0  0  0  0  0  0  0  0
    6.2342    0.7668    1.2810 H   0  0  0  0  0  0  0  0  0  0  0  0
    4.6224    0.2702    1.0790 H   0  0  0  0  0  0  0  0  0  0  0  0
    8.9464   -0.3363    0.1299 H   0  0  0  0  0  0  0  0  0  0  0  0
  1  2  1  0  0  0  0
  1  4  2  0  0  0  0
  1 15  1  0  0  0  0
  2  5  2  0  0  0  0
  2 16  1  0  0  0  0
  3  5  1  0  0  0  0
  3  6  2  0  0  0  0
  3 17  1  0  0  0  0
  4  6  1  0  0  0  0
  4 12  1  0  0  0  0
  5 13  1  0  0  0  0
  6 14  1  0  0  0  0
  7  8  1  0  0  0  0
  7  9  2  0  0  0  0
  7 10  1  0  0  0  0
  8 12  1  0  0  0  0
  8 18  1  0  0  0  0
  8 19  1  0  0  0  0
  9 11  1  0  0  0  0
 10 20  1  0  0  0  0
 10 21  1  0  0  0  0
 11 22  1  0  0  0  0
M  END
$$$$
