
  -OEChem-05262117483D

 22 22  0     0  0  0  0  0  0999 V2000
    1.9031   -2.0316    0.4330 C   0  0  0  0  0  0  0  0  0  0  0  0
    0.8642   -1.5001    1.2026 C   0  0  0  0  0  0  0  0  0  0  0  0
    2.4791   -0.3200    2.5726 C   0  0  0  0  0  0  0  0  0  0  0  0
    3.2370   -1.7112    0.7170 C   0  0  0  0  0  0  0  0  0  0  0  0
    1.1572   -0.6478    2.2641 C   0  0  0  0  0  0  0  0  0  0  0  0
    3.5079   -0.8542    1.8011 C   0  0  0  0  0  0  0  0  0  0  0  0
    3.7039   -4.4468   -0.6018 C   0  0  0  0  0  0  0  0  0  0  0  0
    4.1040   -3.0705   -1.0762 C   0  0  0  0  0  0  0  0  0  0  0  0
    2.7375   -5.0195   -1.2378 N   0  0  0  0  0  0  0  0  0  0  0  0
    4.4515   -4.9971    0.4111 N   0  0  0  0  0  0  0  0  0  0  0  0
    2.5242   -6.3262   -0.7022 O   0  0  0  0  0  0  0  0  0  0  0  0
    4.3194   -2.1678    0.0162 O   0  0  0  0  0  0  0  0  0  0  0  0
   -0.1419    0.0222    3.2364 Cl  0  0  0  0  0  0  0  0  0  0  0  0
    5.1655   -0.4544    2.1914 Cl  0  0  0  0  0  0  0  0  0  0  0  0
    1.6598   -2.7115   -0.3743 H   0  0  0  0  0  0  0  0  0  0  0  0
   -0.1651   -1.7565    0.9747 H   0  0  0  0  0  0  0  0  0  0  0  0
    2.7096    0.3407    3.4011 H   0  0  0  0  0  0  0  0  0  0  0  0
    3.3614   -2.6899   -1.7817 H   0  0  0  0  0  0  0  0  0  0  0  0
    5.0752   -3.1181   -1.5742 H   0  0  0  0  0  0  0  0  0  0  0  0
    4.0422   -5.8099    0.8571 H   0  0  0  0  0  0  0  0  0  0  0  0
    4.8944   -4.3337    1.0361 H   0  0  0  0  0  0  0  0  0  0  0  0
    1.7792   -6.6492   -1.2325 H   0  0  0  0  0  0  0  0  0  0  0  0
  1  2  1  0  0  0  0
  1  4  2  0  0  0  0
  1 15  1  0  0  0  0
  2  5  2  0  0  0  0
  2 16  1  0  0  0  0
  3  5  1  0  0  0  0
  3  6  2  0  0  0  0
  3 17  1  0  0  0  0
  4  6  1  0  0  0  0
  4 12  1  0  0  0  0
  5 13  1  0  0  0  0
  6 14  1  0  0  0  0
  7  8  1  0  0  0  0
  7  9  2  0  0  0  0
  7 10  1  0  0  0  0
  8 12  1  0  0  0  0
  8 18  1  0  0  0  0
  8 19  1  0  0  0  0
  9 11  1  0  0  0  0
 10 20  1  0  0  0  0
 10 21  1  0  0  0  0
 11 22  1  0  0  0  0
M  END
$$$$
