18
0 1 BrC8F3H3NOS
C                     1.332903909232    -0.432730779865    -2.960781250058
C                     1.012284216337     0.064584416946    -1.701874867831
C                    -0.848868192269    -1.519355636418    -1.487079297969
C                     0.564601566135    -1.476216469899    -3.497506078241
C                    -0.067916455338    -0.480772693863    -0.992989986602
C                    -0.518410036673    -2.009373696456    -2.753043009732
C                    -0.089486829717    -2.995856110434    -4.942727432388
C                    -1.220802781377     1.018387460529     0.415472199608
N                     0.775136254014    -2.066839838526    -4.740394589099
O                    -0.329799382886    -0.000465040933     0.306564460424
F                    -0.840560824450     2.119281088433    -0.272910906534
F                    -1.316224793896     1.339835485095     1.709983270310
F                    -2.453108578830     0.682543969004    -0.033843618469
S                    -1.280274256363    -3.295308730778    -3.669728669449
Br                   -0.152636853623    -4.045094104919    -6.516028737771
H                     2.163575787475    -0.031414176478    -3.532452861857
H                     1.585852251090     0.868755968330    -1.253275359902
H                    -1.669303147955    -1.915500183458    -0.898445630363
