17   
torsion grid (-45,)
C        4.0405550402   -1.6884099620   -3.2445915213
C        4.6297416808   -2.1741232394   -2.0964130771
C        2.9656695109   -0.5046968735   -1.7906885845
C        0.8997139054   -0.6402275480   -0.4255822314
C        1.1803965822    1.2494257029   -2.1079704041
C        1.8930727357    0.3170275870   -1.1218709856
N        3.1814954181   -0.5518508651   -3.0755770607
S        4.4832416318   -0.8611769249   -0.9088708313
H        4.1030534211   -2.1432407574   -4.2276006802
H        5.3973526051   -2.9348449992   -2.0254975505
H        0.3871343715   -1.2659205027   -1.1637879431
H        0.1437192511   -0.0639894037    0.1173243634
H        1.4091045215   -1.2967230507    0.2862448281
H        0.7057538768    0.6771475619   -2.9096324456
H        1.8842404678    1.9461331131   -2.5712281293
H        0.4079505931    1.8242127341   -1.5863692176
H        2.3728379565    0.9154133012   -0.3353431553
17   
torsion grid (-30,)
C        3.9779541460   -1.7888542514   -3.2395509209
C        4.7677434204   -2.0857414409   -2.1567737714
C        2.9338626850   -0.5581468396   -1.7464908032
C        0.8245516108   -0.6307461160   -0.4349409267
C        1.2311032845    1.2698702735   -2.0763210451
C        1.8774203118    0.2920364918   -1.0860723735
N        3.0027643867   -0.8100170497   -3.0268071376
S        4.4833027465   -0.8590685428   -0.9389513169
H        4.0316899811   -2.2775324353   -4.2065717751
H        5.6372767909   -2.7298451470   -2.1224530121
H        0.3073626386   -1.2184485210   -1.2002079787
H        0.0800871036   -0.0332678418    0.1015070241
H        1.2853866999   -1.3240227276    0.2755930404
H        0.7573410107    0.7287358715   -2.8992882132
H        1.9766761416    1.9448144419   -2.5065036765
H        0.4690014737    1.8693497131   -1.5672757991
H        2.3588320963    0.8624803406   -0.2814495430
17   
torsion grid (-15,)
C        3.8588856478   -2.0717099567   -3.1295885276
C        4.9271493377   -1.9333542709   -2.2841136383
C        2.9195395475   -0.6605225098   -1.6997463554
C        0.7078009222   -0.6613273404   -0.5484363467
C        1.3846906160    1.2978439874   -2.0245720057
C        1.8732816659    0.2114418170   -1.0503163112
N        2.7537925045   -1.3001546822   -2.8272836264
S        4.5926286684   -0.6604408853   -1.1493278968
H        3.8237068347   -2.7401669013   -3.9833142344
H        5.9057171379   -2.3905980318   -2.3518413780
H        0.2358797853   -1.1808282566   -1.3873417789
H       -0.0459855948   -0.0389126245   -0.0547723074
H        1.0546037845   -1.4138498209    0.1669202804
H        0.9339224213    0.8386974027   -2.9086312355
H        2.2128774199    1.9322586787   -2.3557752328
H        0.6356730538    1.9331349413   -1.5396963760
H        2.3335677579    0.6995988144   -0.1831061666
17   
torsion grid (0,)
C        3.8563436777   -2.0778488623   -3.1205350790
C        4.9560089774   -1.8707958790   -2.3325807873
C        2.9207364714   -0.6569101740   -1.6952636106
C        0.6982947022   -0.6496534949   -0.5479663103
C        1.3962218731    1.2973382717   -2.0305904620
C        1.8716881171    0.2126803443   -1.0471554135
N        2.7179481166   -1.3923532054   -2.7554027111
S        4.5560214933   -0.7599574475   -1.0628482904
H        3.8294926108   -2.7292098481   -3.9877981762
H        5.9460744028   -2.2968881811   -2.4268305705
H        0.2298884496   -1.1726676347   -1.3864087883
H       -0.0557336082   -0.0201783867   -0.0634718724
H        1.0371714739   -1.3990532375    0.1743436633
H        0.9463487106    0.8358430960   -2.9141005826
H        2.2300510387    1.9246093255   -2.3613756545
H        0.6491031377    1.9405502526   -1.5534929880
H        2.3309108054    0.7065248035   -0.1825207626
17   
torsion grid (15,)
C        3.8202207652   -2.1284557416   -3.0140094607
C        4.9496665968   -1.8062261735   -2.3059900196
C        2.8914436173   -0.6671195158   -1.6440870354
C        0.6258407843   -0.6009443218   -0.5639145541
C        1.4402711255    1.3270996835   -2.0109314094
C        1.8442176633    0.2214748619   -1.0168979011
N        2.6447546421   -1.5268753737   -2.5965973734
S        4.4939735566   -0.8263313172   -0.9454724039
H        3.7969099482   -2.7943641301   -3.8704391305
H        5.9494886701   -2.2031657914   -2.4216208413
H        0.1679570387   -1.1040563591   -1.4197333201
H       -0.1212386737    0.0526467061   -0.1009476973
H        0.9147438534   -1.3652328053    0.1643664216
H        1.0034891361    0.8848816733   -2.9111504605
H        2.3051682919    1.9273867513   -2.3109102979
H        0.7000474904    1.9938825697   -1.5561302752
H        2.2908785868    0.7005851613   -0.1374121206
17   
torsion grid (30,)
C        3.8005025913   -2.2962325574   -2.8461988771
C        4.9400018659   -1.5981037152   -2.5319491548
C        2.8744210631   -0.7277167208   -1.6149069543
C        0.5512747985   -0.6147559084   -0.6453295123
C        1.5402775111    1.3446484168   -1.9315452895
C        1.8311890833    0.1603766836   -0.9843830339
N        2.6325281922   -1.8651208930   -2.2108819475
S        4.5790624938   -0.5867863802   -1.1479503684
H        3.7413918095   -3.1076204519   -3.5638358722
H        5.9592048616   -1.8180180935   -2.8235196281
H        0.1105539528   -1.0463469061   -1.5475860742
H       -0.1814181043    0.0562750657   -0.1847667670
H        0.7593833666   -1.4342814120    0.0484965808
H        1.1146045284    0.9841808001   -2.8736110822
H        2.4511862956    1.9064903317   -2.1604106282
H        0.8212802662    2.0289323596   -1.4691710418
H        2.2552319987    0.5740775203   -0.0603621334
17   
torsion grid (45,)
C        3.8105025572   -2.3335850690   -2.7517783679
C        4.8826860498   -1.4756276409   -2.6263769518
C        2.8656769722   -0.7876421236   -1.5737536961
C        0.5106906526   -0.6180721937   -0.6849171453
C        1.6063585813    1.3208655133   -1.9178111930
C        1.8237026127    0.1196284585   -0.9703271003
N        2.6572241176   -2.0152913909   -1.9600205825
S        4.5860956578   -0.5796673986   -1.1214310285
H        3.7401597326   -3.1582912543   -3.4532040686
H        5.8770358121   -1.6057852010   -3.0353771136
H        0.0925045012   -1.0363044681   -1.6045051543
H       -0.2201282641    0.0740191256   -0.2535986466
H        0.6663865196   -1.4448826167    0.0133363476
H        1.1967498098    0.9852721316   -2.8763382344
H        2.5431629610    1.8517862275   -2.1119400715
H        0.8972751384    2.0253243077   -1.4714225110
H        2.2309675401    0.5168992830   -0.0305537659
