22
0 1 C11H8O3
C                    -0.069172378071    -3.383079703389     0.557077004873
C                     3.431676459693    -2.982206963263    -0.731731228865
C                    -0.523730543102    -2.085842687413     0.511875962854
C                     3.889450932060    -4.279541633601    -0.687642305673
C                     1.618644918326    -1.331830684931    -0.356947068103
C                     1.744797018775    -5.040791393881     0.183126536347
C                     2.109829861739    -2.658056039090    -0.320007180857
C                     1.254818557068    -3.712703965661     0.145465332937
C                     0.327436146256    -1.041181398454     0.049323263696
C                     3.035474094750    -5.318241122144    -0.225041043922
C                    -0.124809466738     0.369135580338    -0.014497264779
O                     0.548722434447     1.311153619893    -0.398605379823
O                     3.464807318793    -6.619456079631    -0.170387251180
O                    -1.410930189344     0.537295185965     0.409247440453
H                    -0.721597871580    -4.177608714642     0.910649467569
H                     4.084396106939    -2.188107432233    -1.085340506420
H                    -1.532942647601    -1.844542626067     0.827192247036
H                     4.903676075153    -4.516399495685    -1.005420639745
H                     2.254695398767    -0.523527280844    -0.706951140698
H                     1.112572066225    -5.852247392368     0.532295297424
H                     4.381734812495    -6.668898307657    -0.483572194769
H                    -1.593224361689     1.492189509375     0.322686733165
