61
0 1 C25FH24N7O3S
C                    -0.792289819054     4.812110637353     7.172244965771
C                     0.342659918428     5.268784706878     6.492229045639
C                    -6.769644821892     1.657130193531     2.834207818714
C                    -5.506155299345     1.397126818766     2.311900667056
C                    -2.038736792649     4.842009160340     6.541270644181
C                     0.239147521914     5.766630620805     5.189063509203
C                    -6.975629125520     2.765578905638     3.690440353260
C                    -4.476323937126     2.279681649084     2.676130383060
C                    -0.425952607183     0.215249529824     0.101968675463
C                    -2.173900288860     5.332624545030     5.236467425989
C                    -1.018555955844     5.789825399884     4.598615224148
C                    -3.071930366943     2.451891566497     2.439206770708
C                     0.010143427527     1.243553993535     0.924332942466
C                    -4.817104398022     3.353851695554     3.542358048513
C                    -1.821784492272    -0.021133109958     0.158416738789
C                    -2.156380046348     1.644984999743     1.629883414589
C                    -1.026607582900    -1.600990444722    -1.315133461151
C                     1.455987173450     1.672872882167     1.059476483406
C                     0.202402414216    -0.775816389608    -0.861209472672
C                     1.212208340214    -1.727569051420    -0.189834847054
C                     0.816441662744    -0.104566099467    -2.107412051064
C                     3.131596859606     6.902008981243     0.571049362901
C                    -3.496848517347     5.307318121334     4.514732428718
C                     2.971734091171     3.146723480134     2.301626686220
C                     3.341575218192     4.284517471037     1.347262429038
N                    -6.021758061498     3.625572217953     4.057747642210
N                    -2.619351091842     3.524388037122     3.091790377076
N                    -0.859603954307     1.945461964288     1.681443669108
N                    -2.702574601260     0.649073542179     0.884594411582
N                    -3.659265830558     4.061685276294     3.755906263020
N                    -2.149805162383    -1.078085481570    -0.671959821528
N                     1.656113363645     2.591215268728     2.036193387054
O                    -1.041785824664    -2.536221421418    -2.092204133042
O                     2.357609364648     1.218932298691     0.346610242181
O                     2.645396590889     6.170644138803     3.112550364183
F                    -1.127877220559     6.279140056406     3.333992526813
S                     2.269512688756     5.743657741605     1.694915451954
H                    -0.706419254100     4.430498661795     8.185819940576
H                     1.316306684069     5.240576428820     6.974371514712
H                    -7.612893956533     1.016820879023     2.593174272178
H                    -5.313462630765     0.558595055537     1.651521761781
H                    -2.921386827238     4.473842133051     7.059580078975
H                     1.105138031308     6.105694192699     4.623736441112
H                    -7.968854162056     2.956976016113     4.092851623209
H                     1.487786903152    -2.516283966201    -0.895371539402
H                     0.781328553439    -2.196767195032     0.700688455413
H                     2.102160538759    -1.167510572182     0.099956124570
H                     1.092318999135    -0.875557805817    -2.832244243172
H                     1.701338181596     0.460557240690    -1.813058778118
H                     0.101298509568     0.575209394291    -2.582368537037
H                     2.643088457482     7.872218391644     0.680774109364
H                     3.044804933628     6.554345941002    -0.462106364640
H                     4.178149978261     6.975263130686     0.877210076988
H                    -4.334401752537     5.351321444820     5.212685530086
H                    -3.581675857056     6.149544266466     3.822179765997
H                     2.999747235133     3.507763855672     3.332631874618
H                     3.710794699576     2.349106905068     2.191973389264
H                     3.208076444692     3.979538944130     0.305549842499
H                     4.375284290467     4.603214589041     1.517453366056
H                    -3.089423864839    -1.436129957373    -0.800376562309
H                     0.825240122889     2.931081829997     2.515923093802
