
  -OEChem-05262117483D

 37 38  0     1  0  0  0  0  0999 V2000
    0.7591   -1.6308    5.5669 C   0  0  0  0  0  0  0  0  0  0  0  0
    2.5996   -0.3468    4.6681 C   0  0  0  0  0  0  0  0  0  0  0  0
    0.9396   -2.5826    4.5634 C   0  0  0  0  0  0  0  0  0  0  0  0
    2.7742   -1.2971    3.6653 C   0  0  0  0  0  0  0  0  0  0  0  0
    1.5888   -0.4988    5.6320 C   0  0  0  0  0  0  0  0  0  0  0  0
    1.9434   -2.4265    3.5981 C   0  0  0  0  0  0  0  0  0  0  0  0
    1.4400    0.5501    6.6903 C   0  0  0  0  0  0  0  0  0  0  0  0
    2.2688   -2.9223   -1.4185 C   0  0  0  0  0  0  0  0  0  0  0  0
    2.2238   -4.2929   -0.7285 C   0  0  0  0  0  0  0  0  0  0  0  0
    2.3791   -1.7854   -0.3930 C   0  0  0  0  0  0  0  0  0  0  0  0
    1.0879   -4.3618    0.3047 C   0  0  0  0  0  0  0  0  0  0  0  0
    1.2328   -1.8468    0.6282 C   0  0  0  0  0  0  0  0  0  0  0  0
    1.0973   -3.2115    1.3351 C   0  0  0  0  0  0  0  0  0  0  0  0
    0.3380    0.3926    7.7242 C   0  0  0  0  0  0  0  0  0  0  0  0
    2.0967   -3.4547    2.4899 C   0  0  1  0  0  0  0  0  0  0  0  0
    2.1909    1.5194    6.7238 O   0  0  0  0  0  0  0  0  0  0  0  0
    3.4358   -3.4915    1.9796 O   0  0  0  0  0  0  0  0  0  0  0  0
   -0.0266   -1.7806    6.3011 H   0  0  0  0  0  0  0  0  0  0  0  0
    3.2364    0.5308    4.7243 H   0  0  0  0  0  0  0  0  0  0  0  0
    0.2945   -3.4585    4.5307 H   0  0  0  0  0  0  0  0  0  0  0  0
    3.5524   -1.1699    2.9187 H   0  0  0  0  0  0  0  0  0  0  0  0
    1.3538   -2.7843   -2.0131 H   0  0  0  0  0  0  0  0  0  0  0  0
    3.1086   -2.8816   -2.1223 H   0  0  0  0  0  0  0  0  0  0  0  0
    2.0822   -5.0853   -1.4739 H   0  0  0  0  0  0  0  0  0  0  0  0
    3.1801   -4.4799   -0.2322 H   0  0  0  0  0  0  0  0  0  0  0  0
    3.3395   -1.8576    0.1264 H   0  0  0  0  0  0  0  0  0  0  0  0
    2.3575   -0.8145   -0.9031 H   0  0  0  0  0  0  0  0  0  0  0  0
    0.1288   -4.3181   -0.2296 H   0  0  0  0  0  0  0  0  0  0  0  0
    1.1072   -5.3275    0.8260 H   0  0  0  0  0  0  0  0  0  0  0  0
    1.3321   -1.0447    1.3664 H   0  0  0  0  0  0  0  0  0  0  0  0
    0.2882   -1.6593    0.0996 H   0  0  0  0  0  0  0  0  0  0  0  0
    0.1204   -3.2189    1.8365 H   0  0  0  0  0  0  0  0  0  0  0  0
    0.4655   -0.5345    8.2936 H   0  0  0  0  0  0  0  0  0  0  0  0
   -0.6458    0.3498    7.2445 H   0  0  0  0  0  0  0  0  0  0  0  0
    0.3705    1.2424    8.4070 H   0  0  0  0  0  0  0  0  0  0  0  0
    1.8474   -4.4415    2.9109 H   0  0  0  0  0  0  0  0  0  0  0  0
    4.0278   -3.7034    2.7191 H   0  0  0  0  0  0  0  0  0  0  0  0
  1  3  1  0  0  0  0
  1  5  2  0  0  0  0
  1 18  1  0  0  0  0
  2  4  2  0  0  0  0
  2  5  1  0  0  0  0
  2 19  1  0  0  0  0
  3  6  2  0  0  0  0
  3 20  1  0  0  0  0
  4  6  1  0  0  0  0
  4 21  1  0  0  0  0
  5  7  1  0  0  0  0
  6 15  1  0  0  0  0
  7 14  1  0  0  0  0
  7 16  2  0  0  0  0
  8  9  1  0  0  0  0
  8 10  1  0  0  0  0
  8 22  1  0  0  0  0
  8 23  1  0  0  0  0
  9 11  1  0  0  0  0
  9 24  1  0  0  0  0
  9 25  1  0  0  0  0
 10 12  1  0  0  0  0
 10 26  1  0  0  0  0
 10 27  1  0  0  0  0
 11 13  1  0  0  0  0
 11 28  1  0  0  0  0
 11 29  1  0  0  0  0
 12 13  1  0  0  0  0
 12 30  1  0  0  0  0
 12 31  1  0  0  0  0
 13 15  1  0  0  0  0
 13 32  1  0  0  0  0
 14 33  1  0  0  0  0
 14 34  1  0  0  0  0
 14 35  1  0  0  0  0
 15 17  1  0  0  0  0
 15 36  1  0  0  0  0
 17 37  1  0  0  0  0
M  END
$$$$
