33
0 1 C10H19NO2S
C                    -0.913994058045    -0.681035332402    -0.299100738666
C                     1.995067999119     0.913859699951    -0.248746039792
C                     2.225504592091    -0.445208392193    -0.920916082259
C                     0.547265027491     1.422879148347    -0.258338022332
C                     1.449044569533    -1.602858487902    -0.279570929820
C                    -0.433992385961     0.518784884642     0.505193978714
C                    -5.454321809465    -0.019155294258     1.092730857758
C                    -5.027082957695     1.219641062771     1.890263976286
C                    -3.866729898879     0.970104569812     2.867912977965
C                    -2.603601799074     0.387270615642     2.230210935449
N                     0.020576680121    -1.625065589468    -0.601768491571
O                    -2.087284213761    -0.792532034047    -0.667469070257
O                    -1.318173610685     2.705376414670     1.808783677144
S                    -1.912787012522     1.563690447093     0.988617305350
H                     2.340064467770     0.859724315663     0.792584655428
H                     2.625714447800     1.663319878820    -0.740380619790
H                     1.965221007409    -0.394755144648    -1.985278321265
H                     3.294152700827    -0.685809944913    -0.865073805128
H                     0.523715805517     2.404914632219     0.225401810486
H                     0.192228675418     1.556105998846    -1.287314170677
H                     1.853892234861    -2.555673134291    -0.629400199308
H                     1.585632118662    -1.587576760243     0.809590230769
H                     0.024481155961     0.202828052614     1.450624639767
H                    -5.691254518373    -0.856602609337     1.760903850125
H                    -6.348838299038     0.192739394928     0.497451581653
H                    -4.672014114141    -0.348963699616     0.402304593114
H                    -4.755896232224     2.022931788104     1.195068163358
H                    -5.878973016425     1.596407743619     2.468703732860
H                    -3.604532682401     1.902908506982     3.378926831767
H                    -4.192187271624     0.266081567708     3.645029450144
H                    -1.814514433497     0.256832566085     2.978579014267
H                    -2.796220557474    -0.557111454309     1.719570828928
H                    -0.337686536373    -2.384758722065    -1.169722871596
