37
0 1 C15H20O2
C                     5.717350045834    -4.687508634540     1.230933910826
C                     6.174117266423    -2.332828636177     0.914473979440
C                     4.864381656243    -4.663124534972     0.125223659033
C                     5.323306856205    -2.312881592268    -0.185442903752
C                     6.381171677498    -3.520721320603     1.639757649670
C                     4.651843355275    -3.479408556310    -0.590396462731
C                     7.305841324840    -3.491416095230     2.817598835233
C                    -0.590993618046    -2.643691666585    -1.135236493320
C                     0.338162319603    -2.665379311925     0.085475957507
C                     0.108929620661    -2.015553539049    -2.347484807580
C                     1.669937001710    -3.364043976722    -0.224304577415
C                     1.438172300942    -2.717381900383    -2.657638729942
C                     2.373876885950    -2.731452304365    -1.436503027306
C                     7.536792145766    -4.774380995455     3.597825736972
C                     3.698281383662    -3.440459743035    -1.768242024590
O                     7.867323952246    -2.452508221993     3.148574377972
O                     4.280440726849    -2.739377606237    -2.879250493868
H                     5.861524609719    -5.620650752990     1.766896337527
H                     6.695306557682    -1.436588579386     1.236933245781
H                     4.353797235039    -5.573436652070    -0.181357724478
H                     5.172890440741    -1.394756369451    -0.746665149511
H                    -1.513165194405    -2.098666381637    -0.900915691996
H                    -0.887502393816    -3.672822255298    -1.382295637876
H                     0.541576414811    -1.633285097994     0.402723812592
H                    -0.152891297902    -3.160793312604     0.931331792629
H                    -0.544966784407    -2.051602688755    -3.226870744840
H                     0.300561167223    -0.952831495391    -2.144032145938
H                     2.320122414002    -3.329389817520     0.655723622226
H                     1.480109573721    -4.427261541920    -0.433495599687
H                     1.236333164116    -3.756300971010    -2.958114874263
H                     1.939744601410    -2.236647243778    -3.501363383224
H                     2.626714142928    -1.691809356356    -1.183381115323
H                     7.961021900121    -5.552230907247     2.953689137704
H                     6.595945995603    -5.161668211385     4.003366587403
H                     8.226161124927    -4.569201983122     4.417519759895
H                     3.467458004483    -4.475549189939    -2.065683231772
H                     5.145547896600    -3.139698996627    -3.061525483540
