52
0 1 C18H26O6S2
C                    -3.423384385096    -0.230404376663     1.712986509733
C                    -3.670633795318     0.741786442552     0.725643881156
C                    -2.232258602541    -0.941260617630     1.686423840506
C                    -2.731183921559     1.010590378295    -0.264905296728
C                    -1.270699906008    -0.694785176705     0.686457165684
C                    -1.524525343217     0.298688657788    -0.280184002786
C                    -0.054585306627    -1.522535816825     0.597169428309
C                     0.733847498491     0.188618787240    -1.014155535123
C                     0.796382121052    -1.319883207624    -0.668205340969
C                     2.410516645049     2.601844258680    -3.592816360283
C                    -0.892678233779    -6.185952214196    -2.373004193353
C                     5.441511672761    -0.734697748682     2.079613403793
C                     1.551100749740     0.639714836830    -2.218882357349
C                     0.151519395399    -2.150637267088    -1.814539675250
C                     2.239324330119    -1.802057818921    -0.427083151959
C                     1.568467742532     2.164135942720    -2.390074148393
C                     0.027040611500    -3.642736684043    -1.502159017520
C                     3.003922400991    -1.010516632159     0.635630012105
O                     0.238178286227    -2.367415695709     1.440320612248
O                    -2.237399051133    -3.946738497989    -2.888995202243
O                    -0.012681472557    -4.341564425381    -4.081292625476
O                     4.729145451082    -3.037341100743     0.950437825780
O                     5.379855330908    -1.080788285924    -0.560381171501
O                    -0.631698452976     0.597740997906    -1.261356689675
S                    -0.852600008168    -4.450106524279    -2.875447921684
S                     4.727469927864    -1.594204286756     0.658571257091
H                    -4.164732806503    -0.427258743541     2.481690657086
H                    -4.604716346339     1.297438362612     0.736715289716
H                    -2.016024866607    -1.713477596768     2.418674504430
H                    -2.904891405187     1.765621639586    -1.025571263418
H                     1.062574794807     0.753115909669    -0.128445226390
H                     3.449643936325     2.268243594802    -3.492999308776
H                     2.416996377659     3.691887742892    -3.695415587435
H                     2.015343545657     2.181792220818    -4.524535219583
H                    -1.420551366590    -6.715311117861    -3.168495222317
H                     0.129356379587    -6.557318212975    -2.284034697861
H                    -1.438070582499    -6.274022796360    -1.432142437754
H                     6.492776855179    -1.027432919429     2.109574364399
H                     5.354321350428     0.342644709875     1.929456052324
H                     4.930798862583    -1.059830063743     2.987219731977
H                     2.578962038120     0.280296288898    -2.105555480446
H                     1.149167141600     0.171618826470    -3.123709780204
H                     0.758001876940    -2.031918698838    -2.715956037681
H                    -0.840212234254    -1.750590334458    -2.038273566794
H                     2.786332516160    -1.774753761838    -1.373064755281
H                     2.210004446538    -2.840072710907    -0.094873499173
H                     0.541992655021     2.528197237493    -2.499024306422
H                     1.967283131623     2.623942900085    -1.475603423393
H                     0.997297272134    -4.137771883799    -1.424012984605
H                    -0.555607125210    -3.835304726098    -0.598797140366
H                     3.066702784032     0.058561967530     0.421970802677
H                     2.582268681298    -1.174632958764     1.629960896717
