
  -OEChem-05262117483D

 52 53  0     1  0  0  0  0  0999 V2000
   -2.5431   -0.2239    1.8270 C   0  0  0  0  0  0  0  0  0  0  0  0
   -2.7522    0.8888    0.9913 C   0  0  0  0  0  0  0  0  0  0  0  0
   -1.3522   -0.9302    1.7386 C   0  0  0  0  0  0  0  0  0  0  0  0
   -1.7757    1.2995    0.0885 C   0  0  0  0  0  0  0  0  0  0  0  0
   -0.3544   -0.5405    0.8233 C   0  0  0  0  0  0  0  0  0  0  0  0
   -0.5716    0.5890    0.0101 C   0  0  0  0  0  0  0  0  0  0  0  0
    0.8655   -1.3502    0.6579 C   0  0  0  0  0  0  0  0  0  0  0  0
    1.7106    0.5696   -0.6635 C   0  0  1  0  0  0  0  0  0  0  0  0
    1.7513   -0.9742   -0.5440 C   0  0  0  0  0  0  0  0  0  0  0  0
    3.4456    3.3027   -2.8609 C   0  0  0  0  0  0  0  0  0  0  0  0
    1.5271   -3.9316   -4.3108 C   0  0  0  0  0  0  0  0  0  0  0  0
    6.5249   -0.8363   -0.3614 C   0  0  0  0  0  0  0  0  0  0  0  0
    2.5559    1.1779   -1.7772 C   0  0  0  0  0  0  0  0  0  0  0  0
    1.1363   -1.6185   -1.8202 C   0  0  0  0  0  0  0  0  0  0  0  0
    3.1827   -1.5092   -0.3382 C   0  0  0  0  0  0  0  0  0  0  0  0
    2.5770    2.7113   -1.7462 C   0  0  0  0  0  0  0  0  0  0  0  0
    0.7916   -3.0997   -1.6718 C   0  0  0  0  0  0  0  0  0  0  0  0
    3.9331   -0.8923    0.8403 C   0  0  0  0  0  0  0  0  0  0  0  0
    1.1386   -2.3033    1.3807 O   0  0  0  0  0  0  0  0  0  0  0  0
   -0.3700   -5.1515   -2.9136 O   0  0  0  0  0  0  0  0  0  0  0  0
   -0.8159   -2.7877   -3.7867 O   0  0  0  0  0  0  0  0  0  0  0  0
    6.1785   -1.0231    2.2621 O   0  0  0  0  0  0  0  0  0  0  0  0
    5.5579   -3.0265    0.7908 O   0  0  0  0  0  0  0  0  0  0  0  0
    0.3589    1.0286   -0.8828 O   0  0  0  0  0  0  0  0  0  0  0  0
    0.0980   -3.7885   -3.2079 S   0  0  0  0  0  0  0  0  0  0  0  0
    5.6124   -1.5732    1.0204 S   0  0  0  0  0  0  0  0  0  0  0  0
   -3.3131   -0.5305    2.5286 H   0  0  0  0  0  0  0  0  0  0  0  0
   -3.6855    1.4425    1.0524 H   0  0  0  0  0  0  0  0  0  0  0  0
   -1.1636   -1.8050    2.3537 H   0  0  0  0  0  0  0  0  0  0  0  0
   -1.9201    2.1632   -0.5533 H   0  0  0  0  0  0  0  0  0  0  0  0
    2.0281    0.9939    0.3007 H   0  0  0  0  0  0  0  0  0  0  0  0
    4.4847    2.9618   -2.7814 H   0  0  0  0  0  0  0  0  0  0  0  0
    3.4511    4.3966   -2.8201 H   0  0  0  0  0  0  0  0  0  0  0  0
    3.0745    3.0088   -3.8492 H   0  0  0  0  0  0  0  0  0  0  0  0
    1.1416   -4.3718   -5.2323 H   0  0  0  0  0  0  0  0  0  0  0  0
    1.9385   -2.9419   -4.5132 H   0  0  0  0  0  0  0  0  0  0  0  0
    2.2663   -4.5934   -3.8568 H   0  0  0  0  0  0  0  0  0  0  0  0
    7.5489   -1.2016   -0.2625 H   0  0  0  0  0  0  0  0  0  0  0  0
    6.0992   -1.1718   -1.3078 H   0  0  0  0  0  0  0  0  0  0  0  0
    6.5031    0.2508   -0.2692 H   0  0  0  0  0  0  0  0  0  0  0  0
    3.5817    0.8039   -1.6865 H   0  0  0  0  0  0  0  0  0  0  0  0
    2.1768    0.8342   -2.7460 H   0  0  0  0  0  0  0  0  0  0  0  0
    1.8547   -1.4840   -2.6353 H   0  0  0  0  0  0  0  0  0  0  0  0
    0.2313   -1.0819   -2.1104 H   0  0  0  0  0  0  0  0  0  0  0  0
    3.7417   -1.3599   -1.2670 H   0  0  0  0  0  0  0  0  0  0  0  0
    3.1340   -2.5846   -0.1620 H   0  0  0  0  0  0  0  0  0  0  0  0
    1.5528    3.0864   -1.8319 H   0  0  0  0  0  0  0  0  0  0  0  0
    2.9506    3.0464   -0.7696 H   0  0  0  0  0  0  0  0  0  0  0  0
    1.6378   -3.7346   -1.3993 H   0  0  0  0  0  0  0  0  0  0  0  0
   -0.0024   -3.2727   -0.9408 H   0  0  0  0  0  0  0  0  0  0  0  0
    4.0643    0.1909    0.7798 H   0  0  0  0  0  0  0  0  0  0  0  0
    3.4517   -1.1340    1.7915 H   0  0  0  0  0  0  0  0  0  0  0  0
  1  2  1  0  0  0  0
  1  3  2  0  0  0  0
  1 27  1  0  0  0  0
  2  4  2  0  0  0  0
  2 28  1  0  0  0  0
  3  5  1  0  0  0  0
  3 29  1  0  0  0  0
  4  6  1  0  0  0  0
  4 30  1  0  0  0  0
  5  6  2  0  0  0  0
  5  7  1  0  0  0  0
  6 24  1  0  0  0  0
  7  9  1  0  0  0  0
  7 19  2  0  0  0  0
  8  9  1  0  0  0  0
  8 13  1  0  0  0  0
  8 24  1  0  0  0  0
  8 31  1  0  0  0  0
  9 14  1  0  0  0  0
  9 15  1  0  0  0  0
 10 16  1  0  0  0  0
 10 32  1  0  0  0  0
 10 33  1  0  0  0  0
 10 34  1  0  0  0  0
 11 25  1  0  0  0  0
 11 35  1  0  0  0  0
 11 36  1  0  0  0  0
 11 37  1  0  0  0  0
 12 26  1  0  0  0  0
 12 38  1  0  0  0  0
 12 39  1  0  0  0  0
 12 40  1  0  0  0  0
 13 16  1  0  0  0  0
 13 41  1  0  0  0  0
 13 42  1  0  0  0  0
 14 17  1  0  0  0  0
 14 43  1  0  0  0  0
 14 44  1  0  0  0  0
 15 18  1  0  0  0  0
 15 45  1  0  0  0  0
 15 46  1  0  0  0  0
 16 47  1  0  0  0  0
 16 48  1  0  0  0  0
 17 25  1  0  0  0  0
 17 49  1  0  0  0  0
 17 50  1  0  0  0  0
 18 26  1  0  0  0  0
 18 51  1  0  0  0  0
 18 52  1  0  0  0  0
 20 25  2  0  0  0  0
 21 25  2  0  0  0  0
 22 26  2  0  0  0  0
 23 26  2  0  0  0  0
M  END
$$$$
