
  -OEChem-05262117483D

 61 65  0     1  0  0  0  0  0999 V2000
   -0.7923    4.8121    7.1722 C   0  0  0  0  0  0  0  0  0  0  0  0
    0.3427    5.2688    6.4922 C   0  0  0  0  0  0  0  0  0  0  0  0
   -6.7696    1.6571    2.8342 C   0  0  0  0  0  0  0  0  0  0  0  0
   -5.5062    1.3971    2.3119 C   0  0  0  0  0  0  0  0  0  0  0  0
   -2.0387    4.8420    6.5413 C   0  0  0  0  0  0  0  0  0  0  0  0
    0.2391    5.7666    5.1891 C   0  0  0  0  0  0  0  0  0  0  0  0
   -6.9756    2.7656    3.6904 C   0  0  0  0  0  0  0  0  0  0  0  0
   -4.4763    2.2797    2.6761 C   0  0  0  0  0  0  0  0  0  0  0  0
   -0.4260    0.2152    0.1020 C   0  0  0  0  0  0  0  0  0  0  0  0
   -2.1739    5.3326    5.2365 C   0  0  0  0  0  0  0  0  0  0  0  0
   -1.0186    5.7898    4.5986 C   0  0  0  0  0  0  0  0  0  0  0  0
   -3.0719    2.4519    2.4392 C   0  0  0  0  0  0  0  0  0  0  0  0
    0.0101    1.2436    0.9243 C   0  0  0  0  0  0  0  0  0  0  0  0
   -4.8171    3.3539    3.5424 C   0  0  0  0  0  0  0  0  0  0  0  0
   -1.8218   -0.0211    0.1584 C   0  0  0  0  0  0  0  0  0  0  0  0
   -2.1564    1.6450    1.6299 C   0  0  0  0  0  0  0  0  0  0  0  0
   -1.0266   -1.6010   -1.3151 C   0  0  0  0  0  0  0  0  0  0  0  0
    1.4560    1.6729    1.0595 C   0  0  0  0  0  0  0  0  0  0  0  0
    0.2024   -0.7758   -0.8612 C   0  0  0  0  0  0  0  0  0  0  0  0
    1.2122   -1.7276   -0.1898 C   0  0  0  0  0  0  0  0  0  0  0  0
    0.8164   -0.1046   -2.1074 C   0  0  0  0  0  0  0  0  0  0  0  0
    3.1316    6.9020    0.5710 C   0  0  0  0  0  0  0  0  0  0  0  0
   -3.4968    5.3073    4.5147 C   0  0  0  0  0  0  0  0  0  0  0  0
    2.9717    3.1467    2.3016 C   0  0  0  0  0  0  0  0  0  0  0  0
    3.3416    4.2845    1.3473 C   0  0  0  0  0  0  0  0  0  0  0  0
   -6.0218    3.6256    4.0577 N   0  0  0  0  0  0  0  0  0  0  0  0
   -2.6194    3.5244    3.0918 N   0  0  0  0  0  0  0  0  0  0  0  0
   -0.8596    1.9455    1.6814 N   0  0  0  0  0  0  0  0  0  0  0  0
   -2.7026    0.6491    0.8846 N   0  0  0  0  0  0  0  0  0  0  0  0
   -3.6593    4.0617    3.7559 N   0  0  0  0  0  0  0  0  0  0  0  0
   -2.1498   -1.0781   -0.6720 N   0  0  0  0  0  0  0  0  0  0  0  0
    1.6561    2.5912    2.0362 N   0  0  0  0  0  0  0  0  0  0  0  0
   -1.0418   -2.5362   -2.0922 O   0  0  0  0  0  0  0  0  0  0  0  0
    2.3576    1.2189    0.3466 O   0  0  0  0  0  0  0  0  0  0  0  0
    2.6454    6.1706    3.1126 O   0  0  0  0  0  0  0  0  0  0  0  0
   -1.1279    6.2791    3.3340 F   0  0  0  0  0  0  0  0  0  0  0  0
    2.2695    5.7437    1.6949 S   0  0  1  0  0  0  0  0  0  0  0  0
   -0.7064    4.4305    8.1858 H   0  0  0  0  0  0  0  0  0  0  0  0
    1.3163    5.2406    6.9744 H   0  0  0  0  0  0  0  0  0  0  0  0
   -7.6129    1.0168    2.5932 H   0  0  0  0  0  0  0  0  0  0  0  0
   -5.3135    0.5586    1.6515 H   0  0  0  0  0  0  0  0  0  0  0  0
   -2.9214    4.4738    7.0596 H   0  0  0  0  0  0  0  0  0  0  0  0
    1.1051    6.1057    4.6237 H   0  0  0  0  0  0  0  0  0  0  0  0
   -7.9689    2.9570    4.0929 H   0  0  0  0  0  0  0  0  0  0  0  0
    1.4878   -2.5163   -0.8954 H   0  0  0  0  0  0  0  0  0  0  0  0
    0.7813   -2.1968    0.7007 H   0  0  0  0  0  0  0  0  0  0  0  0
    2.1022   -1.1675    0.1000 H   0  0  0  0  0  0  0  0  0  0  0  0
    1.0923   -0.8756   -2.8322 H   0  0  0  0  0  0  0  0  0  0  0  0
    1.7013    0.4606   -1.8131 H   0  0  0  0  0  0  0  0  0  0  0  0
    0.1013    0.5752   -2.5824 H   0  0  0  0  0  0  0  0  0  0  0  0
    2.6431    7.8722    0.6808 H   0  0  0  0  0  0  0  0  0  0  0  0
    3.0448    6.5543   -0.4621 H   0  0  0  0  0  0  0  0  0  0  0  0
    4.1782    6.9753    0.8772 H   0  0  0  0  0  0  0  0  0  0  0  0
   -4.3344    5.3513    5.2127 H   0  0  0  0  0  0  0  0  0  0  0  0
   -3.5817    6.1495    3.8222 H   0  0  0  0  0  0  0  0  0  0  0  0
    2.9997    3.5078    3.3326 H   0  0  0  0  0  0  0  0  0  0  0  0
    3.7108    2.3491    2.1920 H   0  0  0  0  0  0  0  0  0  0  0  0
    3.2081    3.9795    0.3055 H   0  0  0  0  0  0  0  0  0  0  0  0
    4.3753    4.6032    1.5175 H   0  0  0  0  0  0  0  0  0  0  0  0
   -3.0894   -1.4361   -0.8004 H   0  0  0  0  0  0  0  0  0  0  0  0
    0.8252    2.9311    2.5159 H   0  0  0  0  0  0  0  0  0  0  0  0
  1  2  1  0  0  0  0
  1  5  2  0  0  0  0
  1 38  1  0  0  0  0
  2  6  2  0  0  0  0
  2 39  1  0  0  0  0
  3  4  1  0  0  0  0
  3  7  2  0  0  0  0
  3 40  1  0  0  0  0
  4  8  2  0  0  0  0
  4 41  1  0  0  0  0
  5 10  1  0  0  0  0
  5 42  1  0  0  0  0
  6 11  1  0  0  0  0
  6 43  1  0  0  0  0
  7 26  1  0  0  0  0
  7 44  1  0  0  0  0
  8 12  1  0  0  0  0
  8 14  1  0  0  0  0
  9 13  1  0  0  0  0
  9 15  2  0  0  0  0
  9 19  1  0  0  0  0
 10 11  2  0  0  0  0
 10 23  1  0  0  0  0
 11 36  1  0  0  0  0
 12 16  1  0  0  0  0
 12 27  2  0  0  0  0
 13 18  1  0  0  0  0
 13 28  2  0  0  0  0
 14 26  2  0  0  0  0
 14 30  1  0  0  0  0
 15 29  1  0  0  0  0
 15 31  1  0  0  0  0
 16 28  1  0  0  0  0
 16 29  2  0  0  0  0
 17 19  1  0  0  0  0
 17 31  1  0  0  0  0
 17 33  2  0  0  0  0
 18 32  1  0  0  0  0
 18 34  2  0  0  0  0
 19 20  1  0  0  0  0
 19 21  1  0  0  0  0
 20 45  1  0  0  0  0
 20 46  1  0  0  0  0
 20 47  1  0  0  0  0
 21 48  1  0  0  0  0
 21 49  1  0  0  0  0
 21 50  1  0  0  0  0
 22 37  1  0  0  0  0
 22 51  1  0  0  0  0
 22 52  1  0  0  0  0
 22 53  1  0  0  0  0
 23 30  1  0  0  0  0
 23 54  1  0  0  0  0
 23 55  1  0  0  0  0
 24 25  1  0  0  0  0
 24 32  1  0  0  0  0
 24 56  1  0  0  0  0
 24 57  1  0  0  0  0
 25 37  1  0  0  0  0
 25 58  1  0  0  0  0
 25 59  1  0  0  0  0
 27 30  1  0  0  0  0
 31 60  1  0  0  0  0
 32 61  1  0  0  0  0
 35 37  2  0  0  0  0
M  END
$$$$
