52
0 1 C18H26O6S2
C                    -2.543139963647    -0.223902640864     1.826989511067
C                    -2.752240475450     0.888811858699     0.991295688176
C                    -1.352189460460    -0.930243227480     1.738616308331
C                    -1.775734803469     1.299456723871     0.088539263836
C                    -0.354403752468    -0.540526199135     0.823295571269
C                    -0.571615746561     0.588972663819     0.010148396501
C                     0.865472614241    -1.350188085790     0.657933868432
C                     1.710559496666     0.569573196613    -0.663496351725
C                     1.751269173568    -0.974210090657    -0.544043920518
C                     3.445585856216     3.302742067181    -2.860875836540
C                     1.527064737649    -3.931585381559    -4.310821811825
C                     6.524935927958    -0.836306149716    -0.361381483168
C                     2.555859320001     1.177888023039    -1.777229723797
C                     1.136298017513    -1.618450921960    -1.820156616169
C                     3.182653310962    -1.509238440205    -0.338224788973
C                     2.577000235323     2.711309919980    -1.746210996157
C                     0.791620970810    -3.099708916064    -1.671799753117
C                     3.933073306165    -0.892289944709     0.840299691372
O                     1.138637144829    -2.303253207628     1.380669296387
O                    -0.370045542886    -5.151462674329    -2.913614251201
O                    -0.815945495608    -2.787679372705    -3.786659454828
O                     6.178470622123    -1.023141615048     2.262051644634
O                     5.557917646641    -3.026474663684     0.790816764328
O                     0.358857694173     1.028561421581    -0.882815164338
S                     0.097993787304    -3.788511612108    -3.207946970904
S                     5.612438652945    -1.573185124527     1.020360339006
H                    -3.313070701440    -0.530537820531     2.528552389486
H                    -3.685529308281     1.442453032362     1.052374094430
H                    -1.163594094603    -1.805038441310     2.353746725559
H                    -1.920069554587     2.163186884560    -0.553349443558
H                     2.028079391172     0.993898356327     0.300669590342
H                     4.484748676450     2.961796931629    -2.781391974843
H                     3.451130633239     4.396550821875    -2.820053249097
H                     3.074451922811     3.008771542819    -3.849216339874
H                     1.141610988459    -4.371831959511    -5.232346045703
H                     1.938524234094    -2.941949748752    -4.513181383855
H                     2.266278399978    -4.593352186364    -3.856781383193
H                     7.548862889613    -1.201588811950    -0.262498143682
H                     6.099160309385    -1.171798278157    -1.307807891687
H                     6.503095577949     0.250759516745    -0.269215169937
H                     3.581744422547     0.803891780684    -1.686496967505
H                     2.176767979542     0.834160283209    -2.745961046997
H                     1.854703982119    -1.484017928429    -2.635277145673
H                     0.231253356829    -1.081907501017    -2.110363462872
H                     3.741738887315    -1.359888602576    -1.266970275611
H                     3.133966038896    -2.584598177589    -0.161994257197
H                     1.552757815257     3.086367395480    -1.831930428099
H                     2.950602574037     3.046396603426    -0.769554312876
H                     1.637809071010    -3.734572536690    -1.399272261931
H                    -0.002426303970    -3.272699936083    -0.940791232152
H                     4.064329945240     0.190911257002     0.779802242319
H                     3.451738091635    -1.134033318971     1.791466892685
