65
1 1 C28H30N5O2
C                    -1.532136710709   -10.463379218621    -1.028777812726
C                    -1.726611648135    -9.087410185346    -1.191056380964
C                    -1.119459603961   -10.965898211827     0.210587684977
C                    -1.514945716965    -8.218368027397    -0.117574439495
C                    -0.898960286951   -10.097645284645     1.282005665987
C                    -2.732361621316    -8.349136399952     5.525470680293
C                    -3.442788688982    -9.206450144084     3.374226642739
C                    -3.775082068187    -9.031380023846     6.143005832227
C                    -4.488609950262    -9.886361472340     3.994316170112
C                     1.934853786876    -5.502864658486     1.549960584521
C                     1.050374942305    -6.498540304101     1.276483421329
C                    -2.542785346123    -8.428451062527     4.129701904878
C                    -1.101388318636    -8.714811976265     1.131365085764
C                    -4.665395509555    -9.810289464834     5.384946772398
C                    -1.432316023754    -7.681158372345     3.533512671516
C                    -0.870783553147    -7.802357696901     2.263823964948
C                     1.851584127913    -4.856998919765     2.834005371388
C                     0.115828980216    -6.174069735726     3.487500797717
C                     4.521427647580    -1.349957168731     2.066741570318
C                     4.019777219389    -0.249748597769     1.134500936997
C                     3.206226795712     0.683093741791     2.045609735677
C                    -6.690524081598   -12.230623680667     7.006211414256
C                    -5.745907945983   -11.083167543617     7.465639877621
C                    -6.428191760887   -11.810536912905     5.531369191114
C                     2.764872247683    -0.232213368958     3.206216984767
C                    -5.834323736901   -10.470938144651     6.041933556501
C                     3.919586473519    -2.237164789673     4.292490091936
C                     2.755224616868    -3.220446337707     4.314958765797
N                    -0.817542118504    -6.686927597478     4.270477076695
N                     0.984333155446    -5.176704141522     3.766095998845
N                     0.121710790205    -6.827502814395     2.233516186891
N                     3.817071507255    -1.242988361306     3.246512252411
N                    -6.982717052082    -9.409859148606     6.050088611243
O                     5.379893944969    -2.189465078702     1.824001369069
O                     2.748046481467    -3.883705734460     3.032340159139
H                    -1.695243986334   -11.138706517539    -1.864129469632
H                    -2.047371223734    -8.691810648498    -2.150881635832
H                    -0.955197319698   -12.032532065720     0.337959565355
H                    -1.687416730415    -7.151840839754    -0.240419981435
H                    -0.564658357433   -10.483944029297     2.241056141918
H                    -2.042810705739    -7.743604394766     6.103619093061
H                    -3.330775827886    -9.276340642088     2.298720291517
H                    -3.882771757851    -8.972005906884     7.224820520853
H                    -5.161626316426   -10.489212459397     3.387465111353
H                     2.695346908413    -5.201452034547     0.840062471812
H                     1.030476371029    -7.060723779097     0.349925637949
H                     4.858007272232     0.231024503561     0.627169315190
H                     3.397579423550    -0.723911370844     0.366384933072
H                     3.847827583078     1.478897398068     2.434541618503
H                     2.355000838506     1.150432240266     1.545637233169
H                    -7.729546468783   -12.087232648311     7.318678772380
H                    -6.392479157303   -13.242434537405     7.281628514643
H                    -6.055101178869   -10.459685260059     8.310588142075
H                    -4.728520090622   -11.431445985204     7.650432274411
H                    -5.640717449158   -12.404930028853     5.065372987676
H                    -7.278080212109   -11.764002942286     4.842970548329
H                     2.699746757623     0.297781431086     4.162750117081
H                     1.783983866542    -0.688854899376     3.006871156329
H                     3.971045274183    -1.745884880118     5.272429764173
H                     4.854145649163    -2.778107054390     4.126741274803
H                     1.790017349303    -2.728199002250     4.466996865990
H                     2.886052230811    -3.960167295770     5.110167658639
H                    -7.848074813702    -9.752572244052     6.487538990355
H                    -7.194213032699    -9.122522040501     5.086662368956
H                    -6.671672900191    -8.569954191683     6.553671472896
