
  -OEChem-05262117483D

 65 70  0     0  0  0  0  0  0999 V2000
   -1.3337  -10.7220   -1.1368 C   0  0  0  0  0  0  0  0  0  0  0  0
   -1.4684   -9.3431   -1.3315 C   0  0  0  0  0  0  0  0  0  0  0  0
   -0.9506  -11.2133    0.1165 C   0  0  0  0  0  0  0  0  0  0  0  0
   -1.2263   -8.4597   -0.2764 C   0  0  0  0  0  0  0  0  0  0  0  0
   -0.6995  -10.3310    1.1694 C   0  0  0  0  0  0  0  0  0  0  0  0
   -2.4369   -8.4663    5.3788 C   0  0  0  0  0  0  0  0  0  0  0  0
   -3.2073   -9.2997    3.2386 C   0  0  0  0  0  0  0  0  0  0  0  0
   -3.5063   -9.0932    6.0089 C   0  0  0  0  0  0  0  0  0  0  0  0
   -4.2814   -9.9221    3.8712 C   0  0  0  0  0  0  0  0  0  0  0  0
    2.2714   -5.7901    1.3369 C   0  0  0  0  0  0  0  0  0  0  0  0
    1.3676   -6.7754    1.0851 C   0  0  0  0  0  0  0  0  0  0  0  0
   -2.2653   -8.5614    3.9818 C   0  0  0  0  0  0  0  0  0  0  0  0
   -0.8413   -8.9445    0.9863 C   0  0  0  0  0  0  0  0  0  0  0  0
   -4.4425   -9.8285    5.2624 C   0  0  0  0  0  0  0  0  0  0  0  0
   -1.1323   -7.8612    3.3701 C   0  0  0  0  0  0  0  0  0  0  0  0
   -0.5806   -8.0181    2.1000 C   0  0  0  0  0  0  0  0  0  0  0  0
    2.2021   -5.1124    2.6051 C   0  0  0  0  0  0  0  0  0  0  0  0
    0.4493   -6.3915    3.2912 C   0  0  0  0  0  0  0  0  0  0  0  0
    2.9248   -0.2602    3.1233 C   0  0  0  0  0  0  0  0  0  0  0  0
    2.9648    0.6259    1.8814 C   0  0  0  0  0  0  0  0  0  0  0  0
    3.6226   -0.2593    0.8090 C   0  0  0  0  0  0  0  0  0  0  0  0
   -6.6000  -12.1225    6.8984 C   0  0  0  0  0  0  0  0  0  0  0  0
   -5.5706  -11.0474    7.3506 C   0  0  0  0  0  0  0  0  0  0  0  0
   -6.3345  -11.7072    5.4227 C   0  0  0  0  0  0  0  0  0  0  0  0
    4.4608   -1.2721    1.6186 C   0  0  0  0  0  0  0  0  0  0  0  0
   -5.6420  -10.4163    5.9339 C   0  0  0  0  0  0  0  0  0  0  0  0
    4.0659   -2.2791    3.9498 C   0  0  0  0  0  0  0  0  0  0  0  0
    3.0375   -3.3949    4.0323 C   0  0  0  0  0  0  0  0  0  0  0  0
   -0.4903   -6.8706    4.0874 N   0  0  0  0  0  0  0  0  0  0  0  0
    1.3358   -5.4054    3.5457 N   0  0  0  0  0  0  0  0  0  0  0  0
    0.4349   -7.0675    2.0483 N   0  0  0  0  0  0  0  0  0  0  0  0
    3.7677   -1.3196    2.9038 N   0  0  0  0  0  0  0  0  0  0  0  0
   -6.7144   -9.2797    5.9725 N   0  3  0  0  0  0  0  0  0  0  0  0
    2.2843   -0.0770    4.1551 O   0  0  0  0  0  0  0  0  0  0  0  0
    3.1032   -4.1360    2.7841 O   0  0  0  0  0  0  0  0  0  0  0  0
   -1.5212  -11.4088   -1.9576 H   0  0  0  0  0  0  0  0  0  0  0  0
   -1.7677   -8.9563   -2.3018 H   0  0  0  0  0  0  0  0  0  0  0  0
   -0.8337  -12.2828    0.2693 H   0  0  0  0  0  0  0  0  0  0  0  0
   -1.3551   -7.3901   -0.4241 H   0  0  0  0  0  0  0  0  0  0  0  0
   -0.3881  -10.7092    2.1393 H   0  0  0  0  0  0  0  0  0  0  0  0
   -1.7151   -7.8900    5.9474 H   0  0  0  0  0  0  0  0  0  0  0  0
   -3.1084   -9.3797    2.1624 H   0  0  0  0  0  0  0  0  0  0  0  0
   -3.6012   -9.0230    7.0914 H   0  0  0  0  0  0  0  0  0  0  0  0
   -4.9906  -10.4912    3.2734 H   0  0  0  0  0  0  0  0  0  0  0  0
    3.0276   -5.5177    0.6111 H   0  0  0  0  0  0  0  0  0  0  0  0
    1.3341   -7.3530    0.1684 H   0  0  0  0  0  0  0  0  0  0  0  0
    1.9624    0.9742    1.6262 H   0  0  0  0  0  0  0  0  0  0  0  0
    3.5695    1.5083    2.1202 H   0  0  0  0  0  0  0  0  0  0  0  0
    2.8523   -0.7944    0.2454 H   0  0  0  0  0  0  0  0  0  0  0  0
    4.2326    0.2998    0.0963 H   0  0  0  0  0  0  0  0  0  0  0  0
   -7.6211  -11.9106    7.2305 H   0  0  0  0  0  0  0  0  0  0  0  0
   -6.3682  -13.1551    7.1598 H   0  0  0  0  0  0  0  0  0  0  0  0
   -5.8209  -10.4127    8.2066 H   0  0  0  0  0  0  0  0  0  0  0  0
   -4.5763  -11.4664    7.5132 H   0  0  0  0  0  0  0  0  0  0  0  0
   -5.5978  -12.3501    4.9385 H   0  0  0  0  0  0  0  0  0  0  0  0
   -7.1905  -11.5960    4.7495 H   0  0  0  0  0  0  0  0  0  0  0  0
    4.4864   -2.2628    1.1562 H   0  0  0  0  0  0  0  0  0  0  0  0
    5.4976   -0.9308    1.7516 H   0  0  0  0  0  0  0  0  0  0  0  0
    4.0659   -1.7597    4.9138 H   0  0  0  0  0  0  0  0  0  0  0  0
    5.0642   -2.6932    3.7798 H   0  0  0  0  0  0  0  0  0  0  0  0
    2.0319   -2.9905    4.1587 H   0  0  0  0  0  0  0  0  0  0  0  0
    3.2515   -4.0745    4.8626 H   0  0  0  0  0  0  0  0  0  0  0  0
   -7.5930   -9.5667    6.4234 H   0  0  0  0  0  0  0  0  0  0  0  0
   -6.9234   -8.9689    5.0158 H   0  0  0  0  0  0  0  0  0  0  0  0
   -6.3377   -8.4677    6.4772 H   0  0  0  0  0  0  0  0  0  0  0  0
  1  2  1  0  0  0  0
  1  3  2  0  0  0  0
  1 36  1  0  0  0  0
  2  4  2  0  0  0  0
  2 37  1  0  0  0  0
  3  5  1  0  0  0  0
  3 38  1  0  0  0  0
  4 13  1  0  0  0  0
  4 39  1  0  0  0  0
  5 13  2  0  0  0  0
  5 40  1  0  0  0  0
  6  8  2  0  0  0  0
  6 12  1  0  0  0  0
  6 41  1  0  0  0  0
  7  9  1  0  0  0  0
  7 12  2  0  0  0  0
  7 42  1  0  0  0  0
  8 14  1  0  0  0  0
  8 43  1  0  0  0  0
  9 14  2  0  0  0  0
  9 44  1  0  0  0  0
 10 11  2  0  0  0  0
 10 17  1  0  0  0  0
 10 45  1  0  0  0  0
 11 31  1  0  0  0  0
 11 46  1  0  0  0  0
 12 15  1  0  0  0  0
 13 16  1  0  0  0  0
 14 26  1  0  0  0  0
 15 16  2  0  0  0  0
 15 29  1  0  0  0  0
 16 31  1  0  0  0  0
 17 30  2  0  0  0  0
 17 35  1  0  0  0  0
 18 29  2  0  0  0  0
 18 30  1  0  0  0  0
 18 31  1  0  0  0  0
 19 20  1  0  0  0  0
 19 32  1  0  0  0  0
 19 34  2  0  0  0  0
 20 21  1  0  0  0  0
 20 47  1  0  0  0  0
 20 48  1  0  0  0  0
 21 25  1  0  0  0  0
 21 49  1  0  0  0  0
 21 50  1  0  0  0  0
 22 23  1  0  0  0  0
 22 24  1  0  0  0  0
 22 51  1  0  0  0  0
 22 52  1  0  0  0  0
 23 26  1  0  0  0  0
 23 53  1  0  0  0  0
 23 54  1  0  0  0  0
 24 26  1  0  0  0  0
 24 55  1  0  0  0  0
 24 56  1  0  0  0  0
 25 32  1  0  0  0  0
 25 57  1  0  0  0  0
 25 58  1  0  0  0  0
 26 33  1  0  0  0  0
 27 28  1  0  0  0  0
 27 32  1  0  0  0  0
 27 59  1  0  0  0  0
 27 60  1  0  0  0  0
 28 35  1  0  0  0  0
 28 61  1  0  0  0  0
 28 62  1  0  0  0  0
 33 63  1  0  0  0  0
 33 64  1  0  0  0  0
 33 65  1  0  0  0  0
M  CHG  1  33   1
M  END
$$$$
