65
1 1 C28H30N5O2
C                    -1.333689023000   -10.722035096536    -1.136818489758
C                    -1.468429812456    -9.343121276752    -1.331518195204
C                    -0.950623424103   -11.213288832987     0.116504850642
C                    -1.226296185876    -8.459702432344    -0.276443603632
C                    -0.699539040177   -10.331011090441     1.169449588609
C                    -2.436899907326    -8.466271564153     5.378755668913
C                    -3.207260273513    -9.299699111554     3.238636174603
C                    -3.506298421098    -9.093232775113     6.008907231067
C                    -4.281356684975    -9.922093644896     3.871198175994
C                     2.271437226894    -5.790117701500     1.336930529755
C                     1.367586771006    -6.775388220289     1.085090242642
C                    -2.265269613586    -8.561370805032     3.981805425999
C                    -0.841289617888    -8.944471509545     0.986324671544
C                    -4.442502628769    -9.828494325071     5.262412529536
C                    -1.132268729937    -7.861162768441     3.370132885503
C                    -0.580595703906    -8.018114649460     2.099993965548
C                     2.202060147204    -5.112389006983     2.605145266120
C                     0.449311664035    -6.391519272177     3.291229769337
C                     2.924846005746    -0.260198609405     3.123308801465
C                     2.964800144594     0.625853928814     1.881449931872
C                     3.622594225574    -0.259322196692     0.808996578607
C                    -6.600043266576   -12.122453349927     6.898370956713
C                    -5.570581201257   -11.047412658775     7.350583766012
C                    -6.334490754368   -11.707200351395     5.422732274243
C                     4.460794263485    -1.272065130294     1.618576474545
C                    -5.641973641771   -10.416344143642     5.933945675479
C                     4.065900839540    -2.279110254115     3.949849059843
C                     3.037520724655    -3.394903586066     4.032285756834
N                    -0.490282130050    -6.870614633035     4.087405236105
N                     1.335828465296    -5.405406133931     3.545712979110
N                     0.434871941986    -7.067470560986     2.048286324592
N                     3.767673190355    -1.319629255481     2.903830690635
N                    -6.714359699571    -9.279717549416     5.972509014906
O                     2.284284130831    -0.077005661318     4.155118847234
O                     3.103170777501    -4.136020370733     2.784120174412
H                    -1.521151478659   -11.408762031470    -1.957630156118
H                    -1.767711630272    -8.956307325168    -2.301822386536
H                    -0.833703698528   -12.282828383069     0.269305299400
H                    -1.355054870387    -7.390126612456    -0.424067471579
H                    -0.388140747021   -10.709247513365     2.139338920882
H                    -1.715094084977    -7.889969842264     5.947363916174
H                    -3.108412812241    -9.379719252019     2.162435018995
H                    -3.601220054229    -9.022953532946     7.091352492549
H                    -4.990606539726   -10.491204372378     3.273382325971
H                     3.027596058987    -5.517703930496     0.611132663322
H                     1.334148920331    -7.352949992494     0.168397401990
H                     1.962414288526     0.974216350824     1.626212718658
H                     3.569479978675     1.508340098388     2.120247561815
H                     2.852277442423    -0.794432701001     0.245441931374
H                     4.232582246839     0.299823674112     0.096272066914
H                    -7.621126318773   -11.910643503723     7.230469228280
H                    -6.368155860196   -13.155071814429     7.159849106030
H                    -5.820921054015   -10.412711246839     8.206560549213
H                    -4.576291777680   -11.466376311409     7.513187545396
H                    -5.597809226158   -12.350146952827     4.938500872839
H                    -7.190494239851   -11.595979795586     4.749512185437
H                     4.486405461504    -2.262847500700     1.156246029816
H                     5.497610844261    -0.930755248766     1.751625987177
H                     4.065899167340    -1.759709290781     4.913813501811
H                     5.064239124959    -2.693151336291     3.779808245107
H                     2.031927107464    -2.990503631118     4.158731047916
H                     3.251539367119    -4.074495513541     4.862575786094
H                    -7.592977832448    -9.566723154457     6.423405368891
H                    -6.923426566286    -8.968942923353     5.015803423739
H                    -6.337653588347    -8.467700199744     6.477173435402
