
  -OEChem-05262117483D

 71 76  0     1  0  0  0  0  0999 V2000
    8.1344   -0.5411    1.8264 C   0  0  0  0  0  0  0  0  0  0  0  0
    4.2883   -2.9377    6.9600 C   0  0  0  0  0  0  0  0  0  0  0  0
    7.3794   -1.0305    2.8935 C   0  0  0  0  0  0  0  0  0  0  0  0
    5.6231   -3.0020    6.5579 C   0  0  0  0  0  0  0  0  0  0  0  0
   10.0459   -1.8224    2.5698 C   0  0  0  0  0  0  0  0  0  0  0  0
    9.4686   -0.9206    1.6543 C   0  0  0  0  0  0  0  0  0  0  0  0
    3.3513   -2.2711    6.1727 C   0  0  0  0  0  0  0  0  0  0  0  0
    7.9477   -1.9151    3.8228 C   0  0  0  0  0  0  0  0  0  0  0  0
    9.3065   -2.3039    3.6370 C   0  0  0  0  0  0  0  0  0  0  0  0
    3.8156   -1.6652    4.9780 C   0  0  0  0  0  0  0  0  0  0  0  0
    5.9829   -2.3781    5.3519 C   0  0  0  0  0  0  0  0  0  0  0  0
    1.1448   -1.3016    5.8848 C   0  0  0  0  0  0  0  0  0  0  0  0
   10.3165   -0.4535    0.5259 C   0  0  0  0  0  0  0  0  0  0  0  0
    2.9926    0.5749    0.7535 C   0  0  0  0  0  0  0  0  0  0  0  0
    3.8526   -0.7064    0.5384 C   0  0  0  0  0  0  0  0  0  0  0  0
    2.3420    0.4066    2.1419 C   0  0  0  0  0  0  0  0  0  0  0  0
    3.7555   -1.4974    1.8609 C   0  0  0  0  0  0  0  0  0  0  0  0
   11.1428    4.0084   -0.1574 C   0  0  0  0  0  0  0  0  0  0  0  0
    9.4765    1.9778    0.5469 C   0  0  0  0  0  0  0  0  0  0  0  0
   10.8695    1.4319   -0.9993 C   0  0  0  0  0  0  0  0  0  0  0  0
   10.3293    5.0983   -0.9091 C   0  0  0  0  0  0  0  0  0  0  0  0
    1.8211   -0.3367    4.9133 C   0  0  1  0  0  0  0  0  0  0  0  0
    3.3742   -0.4341    2.9086 C   0  0  0  0  0  0  0  0  0  0  0  0
   10.2873    2.7676   -0.5012 C   0  0  0  0  0  0  0  0  0  0  0  0
    2.2887    0.9226    5.6686 C   0  0  0  0  0  0  0  0  0  0  0  0
    1.4231   -3.1230    7.4922 C   0  0  0  0  0  0  0  0  0  0  0  0
   11.1258   -3.6427    4.4500 C   0  0  0  0  0  0  0  0  0  0  0  0
    5.0961   -1.7155    4.5985 N   0  0  0  0  0  0  0  0  0  0  0  0
    1.9738   -2.2226    6.4838 N   0  0  0  0  0  0  0  0  0  0  0  0
    2.8959   -1.0114    4.1751 N   0  0  1  0  0  0  0  0  0  0  0  0
    9.9425    0.7235   -0.0958 N   0  0  0  0  0  0  0  0  0  0  0  0
    7.3066   -2.4566    4.9294 N   0  0  0  0  0  0  0  0  0  0  0  0
   -0.0554   -1.2117    6.1353 O   0  0  0  0  0  0  0  0  0  0  0  0
   11.3099   -1.0736    0.1349 O   0  0  0  0  0  0  0  0  0  0  0  0
    9.6950    3.5403   -3.0796 O   0  0  0  0  0  0  0  0  0  0  0  0
    7.8746    3.8836   -1.3140 O   0  0  0  0  0  0  0  0  0  0  0  0
    9.7853   -3.1754    4.5899 O   0  0  0  0  0  0  0  0  0  0  0  0
    9.2953    3.7919   -1.6862 S   0  0  0  0  0  0  0  0  0  0  0  0
    7.6517    0.1104    1.1057 H   0  0  0  0  0  0  0  0  0  0  0  0
    3.9875   -3.4212    7.8832 H   0  0  0  0  0  0  0  0  0  0  0  0
    6.3472   -0.7437    3.0175 H   0  0  0  0  0  0  0  0  0  0  0  0
    6.3589   -3.5253    7.1610 H   0  0  0  0  0  0  0  0  0  0  0  0
   11.0719   -2.1270    2.4019 H   0  0  0  0  0  0  0  0  0  0  0  0
    3.6268    1.4671    0.7429 H   0  0  0  0  0  0  0  0  0  0  0  0
    2.2402    0.7135   -0.0275 H   0  0  0  0  0  0  0  0  0  0  0  0
    3.4988   -1.3014   -0.3080 H   0  0  0  0  0  0  0  0  0  0  0  0
    4.8918   -0.4405    0.3208 H   0  0  0  0  0  0  0  0  0  0  0  0
    2.1106    1.3656    2.6144 H   0  0  0  0  0  0  0  0  0  0  0  0
    1.4068   -0.1584    2.0509 H   0  0  0  0  0  0  0  0  0  0  0  0
    2.9417   -2.2307    1.8196 H   0  0  0  0  0  0  0  0  0  0  0  0
    4.6710   -2.0320    2.1118 H   0  0  0  0  0  0  0  0  0  0  0  0
   12.1531    3.9091   -0.5598 H   0  0  0  0  0  0  0  0  0  0  0  0
   11.2081    4.1872    0.9177 H   0  0  0  0  0  0  0  0  0  0  0  0
    9.8396    2.1050    1.5732 H   0  0  0  0  0  0  0  0  0  0  0  0
    8.3975    2.1458    0.5117 H   0  0  0  0  0  0  0  0  0  0  0  0
   10.7278    1.2186   -2.0622 H   0  0  0  0  0  0  0  0  0  0  0  0
   11.9205    1.2793   -0.7301 H   0  0  0  0  0  0  0  0  0  0  0  0
    9.7145    5.7354   -0.2721 H   0  0  0  0  0  0  0  0  0  0  0  0
   10.8746    5.6868   -1.6472 H   0  0  0  0  0  0  0  0  0  0  0  0
    1.0385   -0.0635    4.2096 H   0  0  0  0  0  0  0  0  0  0  0  0
    4.2527    0.1966    3.1108 H   0  0  0  0  0  0  0  0  0  0  0  0
    3.0542    0.6730    6.4100 H   0  0  0  0  0  0  0  0  0  0  0  0
    1.4425    1.3892    6.1810 H   0  0  0  0  0  0  0  0  0  0  0  0
    2.7148    1.6475    4.9690 H   0  0  0  0  0  0  0  0  0  0  0  0
    1.7759   -2.8557    8.4950 H   0  0  0  0  0  0  0  0  0  0  0  0
    1.7153   -4.1541    7.2716 H   0  0  0  0  0  0  0  0  0  0  0  0
    0.3387   -3.0315    7.4653 H   0  0  0  0  0  0  0  0  0  0  0  0
   11.2945   -4.3233    5.2855 H   0  0  0  0  0  0  0  0  0  0  0  0
   11.8401   -2.8129    4.5031 H   0  0  0  0  0  0  0  0  0  0  0  0
   11.2582   -4.1809    3.5047 H   0  0  0  0  0  0  0  0  0  0  0  0
    7.9079   -3.0407    5.4970 H   0  0  0  0  0  0  0  0  0  0  0  0
  1  3  1  0  0  0  0
  1  6  2  0  0  0  0
  1 39  1  0  0  0  0
  2  4  2  0  0  0  0
  2  7  1  0  0  0  0
  2 40  1  0  0  0  0
  3  8  2  0  0  0  0
  3 41  1  0  0  0  0
  4 11  1  0  0  0  0
  4 42  1  0  0  0  0
  5  6  1  0  0  0  0
  5  9  2  0  0  0  0
  5 43  1  0  0  0  0
  6 13  1  0  0  0  0
  7 10  2  0  0  0  0
  7 29  1  0  0  0  0
  8  9  1  0  0  0  0
  8 32  1  0  0  0  0
  9 37  1  0  0  0  0
 10 28  1  0  0  0  0
 10 30  1  0  0  0  0
 11 28  2  0  0  0  0
 11 32  1  0  0  0  0
 12 22  1  0  0  0  0
 12 29  1  0  0  0  0
 12 33  2  0  0  0  0
 13 31  1  0  0  0  0
 13 34  2  0  0  0  0
 14 15  1  0  0  0  0
 14 16  1  0  0  0  0
 14 44  1  0  0  0  0
 14 45  1  0  0  0  0
 15 17  1  0  0  0  0
 15 46  1  0  0  0  0
 15 47  1  0  0  0  0
 16 23  1  0  0  0  0
 16 48  1  0  0  0  0
 16 49  1  0  0  0  0
 17 23  1  0  0  0  0
 17 50  1  0  0  0  0
 17 51  1  0  0  0  0
 18 21  1  0  0  0  0
 18 24  1  0  0  0  0
 18 52  1  0  0  0  0
 18 53  1  0  0  0  0
 19 24  1  0  0  0  0
 19 31  1  0  0  0  0
 19 54  1  0  0  0  0
 19 55  1  0  0  0  0
 20 24  1  0  0  0  0
 20 31  1  0  0  0  0
 20 56  1  0  0  0  0
 20 57  1  0  0  0  0
 21 38  1  0  0  0  0
 21 58  1  0  0  0  0
 21 59  1  0  0  0  0
 22 25  1  0  0  0  0
 22 30  1  0  0  0  0
 22 60  1  0  0  0  0
 23 30  1  0  0  0  0
 23 61  1  0  0  0  0
 24 38  1  0  0  0  0
 25 62  1  0  0  0  0
 25 63  1  0  0  0  0
 25 64  1  0  0  0  0
 26 29  1  0  0  0  0
 26 65  1  0  0  0  0
 26 66  1  0  0  0  0
 26 67  1  0  0  0  0
 27 37  1  0  0  0  0
 27 68  1  0  0  0  0
 27 69  1  0  0  0  0
 27 70  1  0  0  0  0
 32 71  1  0  0  0  0
 35 38  2  0  0  0  0
 36 38  2  0  0  0  0
M  END
$$$$
