
  -OEChem-05262117483D

 71 76  0     1  0  0  0  0  0999 V2000
   -1.1553    1.7302    0.2574 C   0  0  0  0  0  0  0  0  0  0  0  0
   -1.4307   -0.2473    6.8034 C   0  0  0  0  0  0  0  0  0  0  0  0
   -1.2450    1.3329    1.5872 C   0  0  0  0  0  0  0  0  0  0  0  0
   -2.0622    0.6911    5.9846 C   0  0  0  0  0  0  0  0  0  0  0  0
   -2.5755    3.6298    0.6937 C   0  0  0  0  0  0  0  0  0  0  0  0
   -1.8028    2.8828   -0.2109 C   0  0  0  0  0  0  0  0  0  0  0  0
   -0.3804   -1.0161    6.3065 C   0  0  0  0  0  0  0  0  0  0  0  0
   -2.0048    2.0871    2.5038 C   0  0  0  0  0  0  0  0  0  0  0  0
   -2.6685    3.2425    2.0216 C   0  0  0  0  0  0  0  0  0  0  0  0
   -0.0062   -0.8140    4.9532 C   0  0  0  0  0  0  0  0  0  0  0  0
   -1.6074    0.8276    4.6636 C   0  0  0  0  0  0  0  0  0  0  0  0
    1.1393   -2.8972    6.5138 C   0  0  0  0  0  0  0  0  0  0  0  0
   -1.6670    3.2295   -1.6517 C   0  0  0  0  0  0  0  0  0  0  0  0
    2.9823   -1.5835    1.2112 C   0  0  0  0  0  0  0  0  0  0  0  0
    2.8090   -0.0571    1.4670 C   0  0  0  0  0  0  0  0  0  0  0  0
    2.5265   -2.2726    2.5126 C   0  0  0  0  0  0  0  0  0  0  0  0
    2.1147    0.0584    2.8424 C   0  0  0  0  0  0  0  0  0  0  0  0
   -1.6299    7.7728   -3.1428 C   0  0  0  0  0  0  0  0  0  0  0  0
   -1.4705    5.0623   -3.3235 C   0  0  0  0  0  0  0  0  0  0  0  0
   -1.5537    5.7866   -1.2966 C   0  0  0  0  0  0  0  0  0  0  0  0
   -0.2978    8.5722   -3.1098 C   0  0  0  0  0  0  0  0  0  0  0  0
    1.1342   -2.9228    4.9872 C   0  0  1  0  0  0  0  0  0  0  0  0
    1.4509   -1.3167    3.0507 C   0  0  0  0  0  0  0  0  0  0  0  0
   -1.1180    6.4005   -2.6443 C   0  0  0  0  0  0  0  0  0  0  0  0
    0.0221   -3.8640    4.4848 C   0  0  0  0  0  0  0  0  0  0  0  0
    0.2255   -1.8996    8.5508 C   0  0  0  0  0  0  0  0  0  0  0  0
   -2.8568    5.1891    3.3547 C   0  0  0  0  0  0  0  0  0  0  0  0
   -0.6173    0.0766    4.1665 N   0  0  0  0  0  0  0  0  0  0  0  0
    0.3483   -1.9332    7.0968 N   0  0  0  0  0  0  0  0  0  0  0  0
    1.0412   -1.5618    4.4436 N   0  0  1  0  0  0  0  0  0  0  0  0
   -1.9128    4.5416   -2.0159 N   0  0  0  0  0  0  0  0  0  0  0  0
   -2.1970    1.7879    3.8458 N   0  0  0  0  0  0  0  0  0  0  0  0
    1.7791   -3.7251    7.1593 O   0  0  0  0  0  0  0  0  0  0  0  0
   -1.3662    2.3987   -2.5109 O   0  0  0  0  0  0  0  0  0  0  0  0
    1.2901    7.0490   -1.4323 O   0  0  0  0  0  0  0  0  0  0  0  0
    1.3166    6.5060   -3.9335 O   0  0  0  0  0  0  0  0  0  0  0  0
   -3.4532    3.9563    2.9225 O   0  0  0  0  0  0  0  0  0  0  0  0
    0.6243    7.0245   -2.7442 S   0  0  0  0  0  0  0  0  0  0  0  0
   -0.5802    1.1395   -0.4488 H   0  0  0  0  0  0  0  0  0  0  0  0
   -1.7586   -0.3622    7.8309 H   0  0  0  0  0  0  0  0  0  0  0  0
   -0.7395    0.4452    1.9346 H   0  0  0  0  0  0  0  0  0  0  0  0
   -2.8782    1.2986    6.3644 H   0  0  0  0  0  0  0  0  0  0  0  0
   -3.1465    4.4939    0.3699 H   0  0  0  0  0  0  0  0  0  0  0  0
    2.3486   -1.9049    0.3782 H   0  0  0  0  0  0  0  0  0  0  0  0
    4.0090   -1.8547    0.9509 H   0  0  0  0  0  0  0  0  0  0  0  0
    3.7672    0.4699    1.4618 H   0  0  0  0  0  0  0  0  0  0  0  0
    2.1966    0.3985    0.6830 H   0  0  0  0  0  0  0  0  0  0  0  0
    2.1702   -3.2928    2.3429 H   0  0  0  0  0  0  0  0  0  0  0  0
    3.3602   -2.3201    3.2234 H   0  0  0  0  0  0  0  0  0  0  0  0
    2.8505    0.1983    3.6429 H   0  0  0  0  0  0  0  0  0  0  0  0
    1.4037    0.8817    2.8963 H   0  0  0  0  0  0  0  0  0  0  0  0
   -2.3993    8.1950   -2.4930 H   0  0  0  0  0  0  0  0  0  0  0  0
   -2.0292    7.6958   -4.1563 H   0  0  0  0  0  0  0  0  0  0  0  0
   -2.2707    5.1262   -4.0679 H   0  0  0  0  0  0  0  0  0  0  0  0
   -0.6216    4.5171   -3.7467 H   0  0  0  0  0  0  0  0  0  0  0  0
   -0.7473    5.6757   -0.5651 H   0  0  0  0  0  0  0  0  0  0  0  0
   -2.4058    6.2962   -0.8338 H   0  0  0  0  0  0  0  0  0  0  0  0
    0.0157    9.0267   -4.0498 H   0  0  0  0  0  0  0  0  0  0  0  0
   -0.2004    9.2738   -2.2804 H   0  0  0  0  0  0  0  0  0  0  0  0
    2.1033   -3.3355    4.7175 H   0  0  0  0  0  0  0  0  0  0  0  0
    0.5675   -1.3870    2.3987 H   0  0  0  0  0  0  0  0  0  0  0  0
   -0.9661   -3.4916    4.7727 H   0  0  0  0  0  0  0  0  0  0  0  0
    0.1573   -4.8638    4.9070 H   0  0  0  0  0  0  0  0  0  0  0  0
    0.0535   -3.9396    3.3940 H   0  0  0  0  0  0  0  0  0  0  0  0
   -0.7666   -2.2380    8.8713 H   0  0  0  0  0  0  0  0  0  0  0  0
    0.3933   -0.8820    8.9162 H   0  0  0  0  0  0  0  0  0  0  0  0
    0.9762   -2.5704    8.9650 H   0  0  0  0  0  0  0  0  0  0  0  0
   -3.5415    5.6277    4.0836 H   0  0  0  0  0  0  0  0  0  0  0  0
   -2.7298    5.8795    2.5126 H   0  0  0  0  0  0  0  0  0  0  0  0
   -1.8804    5.0086    3.8207 H   0  0  0  0  0  0  0  0  0  0  0  0
   -2.8972    2.3736    4.2857 H   0  0  0  0  0  0  0  0  0  0  0  0
  1  3  1  0  0  0  0
  1  6  2  0  0  0  0
  1 39  1  0  0  0  0
  2  4  2  0  0  0  0
  2  7  1  0  0  0  0
  2 40  1  0  0  0  0
  3  8  2  0  0  0  0
  3 41  1  0  0  0  0
  4 11  1  0  0  0  0
  4 42  1  0  0  0  0
  5  6  1  0  0  0  0
  5  9  2  0  0  0  0
  5 43  1  0  0  0  0
  6 13  1  0  0  0  0
  7 10  2  0  0  0  0
  7 29  1  0  0  0  0
  8  9  1  0  0  0  0
  8 32  1  0  0  0  0
  9 37  1  0  0  0  0
 10 28  1  0  0  0  0
 10 30  1  0  0  0  0
 11 28  2  0  0  0  0
 11 32  1  0  0  0  0
 12 22  1  0  0  0  0
 12 29  1  0  0  0  0
 12 33  2  0  0  0  0
 13 31  1  0  0  0  0
 13 34  2  0  0  0  0
 14 15  1  0  0  0  0
 14 16  1  0  0  0  0
 14 44  1  0  0  0  0
 14 45  1  0  0  0  0
 15 17  1  0  0  0  0
 15 46  1  0  0  0  0
 15 47  1  0  0  0  0
 16 23  1  0  0  0  0
 16 48  1  0  0  0  0
 16 49  1  0  0  0  0
 17 23  1  0  0  0  0
 17 50  1  0  0  0  0
 17 51  1  0  0  0  0
 18 21  1  0  0  0  0
 18 24  1  0  0  0  0
 18 52  1  0  0  0  0
 18 53  1  0  0  0  0
 19 24  1  0  0  0  0
 19 31  1  0  0  0  0
 19 54  1  0  0  0  0
 19 55  1  0  0  0  0
 20 24  1  0  0  0  0
 20 31  1  0  0  0  0
 20 56  1  0  0  0  0
 20 57  1  0  0  0  0
 21 38  1  0  0  0  0
 21 58  1  0  0  0  0
 21 59  1  0  0  0  0
 22 25  1  0  0  0  0
 22 30  1  0  0  0  0
 22 60  1  0  0  0  0
 23 30  1  0  0  0  0
 23 61  1  0  0  0  0
 24 38  1  0  0  0  0
 25 62  1  0  0  0  0
 25 63  1  0  0  0  0
 25 64  1  0  0  0  0
 26 29  1  0  0  0  0
 26 65  1  0  0  0  0
 26 66  1  0  0  0  0
 26 67  1  0  0  0  0
 27 37  1  0  0  0  0
 27 68  1  0  0  0  0
 27 69  1  0  0  0  0
 27 70  1  0  0  0  0
 32 71  1  0  0  0  0
 35 38  2  0  0  0  0
 36 38  2  0  0  0  0
M  END
$$$$
