29
0 1 C10ClF2H11N4O
C                    -3.161503828261     0.514889833448    -5.178465386157
C                    -1.954036820603     2.911424007893    -5.116243232155
C                    -2.369239187459     0.907720879175    -4.095321552548
C                    -2.754648274093     2.495877310717    -6.194846137910
C                    -2.178578157193    -0.026454304318    -2.927260556690
C                     0.424536153251    -0.356687930023    -0.319948955489
C                    -1.281196628116     0.458916611416     0.624432913375
C                    -1.063590037161    -0.243714236574    -0.740118391315
C                     0.869893360659     0.671235875353     1.919808278631
C                     0.375907799776     0.688783788542     3.356269458604
N                    -1.767685478334     2.109649412311    -4.071291446075
N                    -3.353182778518     1.318009317036    -6.234550531573
N                     0.002372312019    -0.127604316177     1.080498905367
N                    -1.384132814149     0.476283651834    -1.942559977632
O                    -2.712487704406    -1.135541585149    -2.908251130131
F                     1.113764625279     1.603723899020     4.077946309883
F                     0.550463639141    -0.535297610787     3.947972883209
Cl                   -2.975950548727     3.576453079074    -7.549924858314
H                    -3.641362167406    -0.458841881011    -5.184280726196
H                    -1.474152742279     3.886433939321    -5.111381257779
H                     0.944300693079    -1.302624346903    -0.500417535250
H                     1.019374709408     0.475344198241    -0.734501619733
H                    -1.240450178690     1.557821046310     0.522480097353
H                    -2.162319462568     0.179448341975     1.210138744018
H                    -1.555672962550    -1.213372265489    -0.789750170617
H                     0.951265548898     1.720480040044     1.579522122168
H                     1.875202190551     0.237467040305     1.919635851529
H                    -0.679717802858     0.958917192067     3.459894945579
H                    -1.011137394069     1.407759687587    -2.095622945913
