
  -OEChem-05262117483D

 65 70  0     0  0  0  0  0  0999 V2000
   -1.5321  -10.4634   -1.0288 C   0  0  0  0  0  0  0  0  0  0  0  0
   -1.7266   -9.0874   -1.1911 C   0  0  0  0  0  0  0  0  0  0  0  0
   -1.1195  -10.9659    0.2106 C   0  0  0  0  0  0  0  0  0  0  0  0
   -1.5149   -8.2184   -0.1176 C   0  0  0  0  0  0  0  0  0  0  0  0
   -0.8990  -10.0976    1.2820 C   0  0  0  0  0  0  0  0  0  0  0  0
   -2.7324   -8.3491    5.5255 C   0  0  0  0  0  0  0  0  0  0  0  0
   -3.4428   -9.2065    3.3742 C   0  0  0  0  0  0  0  0  0  0  0  0
   -3.7751   -9.0314    6.1430 C   0  0  0  0  0  0  0  0  0  0  0  0
   -4.4886   -9.8864    3.9943 C   0  0  0  0  0  0  0  0  0  0  0  0
    1.9349   -5.5029    1.5500 C   0  0  0  0  0  0  0  0  0  0  0  0
    1.0504   -6.4985    1.2765 C   0  0  0  0  0  0  0  0  0  0  0  0
   -2.5428   -8.4285    4.1297 C   0  0  0  0  0  0  0  0  0  0  0  0
   -1.1014   -8.7148    1.1314 C   0  0  0  0  0  0  0  0  0  0  0  0
   -4.6654   -9.8103    5.3849 C   0  0  0  0  0  0  0  0  0  0  0  0
   -1.4323   -7.6812    3.5335 C   0  0  0  0  0  0  0  0  0  0  0  0
   -0.8708   -7.8024    2.2638 C   0  0  0  0  0  0  0  0  0  0  0  0
    1.8516   -4.8570    2.8340 C   0  0  0  0  0  0  0  0  0  0  0  0
    0.1158   -6.1741    3.4875 C   0  0  0  0  0  0  0  0  0  0  0  0
    4.5214   -1.3500    2.0667 C   0  0  0  0  0  0  0  0  0  0  0  0
    4.0198   -0.2497    1.1345 C   0  0  0  0  0  0  0  0  0  0  0  0
    3.2062    0.6831    2.0456 C   0  0  0  0  0  0  0  0  0  0  0  0
   -6.6905  -12.2306    7.0062 C   0  0  0  0  0  0  0  0  0  0  0  0
   -5.7459  -11.0832    7.4656 C   0  0  0  0  0  0  0  0  0  0  0  0
   -6.4282  -11.8105    5.5314 C   0  0  0  0  0  0  0  0  0  0  0  0
    2.7649   -0.2322    3.2062 C   0  0  0  0  0  0  0  0  0  0  0  0
   -5.8343  -10.4709    6.0419 C   0  0  0  0  0  0  0  0  0  0  0  0
    3.9196   -2.2372    4.2925 C   0  0  0  0  0  0  0  0  0  0  0  0
    2.7552   -3.2204    4.3150 C   0  0  0  0  0  0  0  0  0  0  0  0
   -0.8175   -6.6869    4.2705 N   0  0  0  0  0  0  0  0  0  0  0  0
    0.9843   -5.1767    3.7661 N   0  0  0  0  0  0  0  0  0  0  0  0
    0.1217   -6.8275    2.2335 N   0  0  0  0  0  0  0  0  0  0  0  0
    3.8171   -1.2430    3.2465 N   0  0  0  0  0  0  0  0  0  0  0  0
   -6.9827   -9.4099    6.0501 N   0  3  0  0  0  0  0  0  0  0  0  0
    5.3799   -2.1895    1.8240 O   0  0  0  0  0  0  0  0  0  0  0  0
    2.7480   -3.8837    3.0323 O   0  0  0  0  0  0  0  0  0  0  0  0
   -1.6952  -11.1387   -1.8641 H   0  0  0  0  0  0  0  0  0  0  0  0
   -2.0474   -8.6918   -2.1509 H   0  0  0  0  0  0  0  0  0  0  0  0
   -0.9552  -12.0325    0.3380 H   0  0  0  0  0  0  0  0  0  0  0  0
   -1.6874   -7.1518   -0.2404 H   0  0  0  0  0  0  0  0  0  0  0  0
   -0.5647  -10.4839    2.2411 H   0  0  0  0  0  0  0  0  0  0  0  0
   -2.0428   -7.7436    6.1036 H   0  0  0  0  0  0  0  0  0  0  0  0
   -3.3308   -9.2763    2.2987 H   0  0  0  0  0  0  0  0  0  0  0  0
   -3.8828   -8.9720    7.2248 H   0  0  0  0  0  0  0  0  0  0  0  0
   -5.1616  -10.4892    3.3875 H   0  0  0  0  0  0  0  0  0  0  0  0
    2.6953   -5.2015    0.8401 H   0  0  0  0  0  0  0  0  0  0  0  0
    1.0305   -7.0607    0.3499 H   0  0  0  0  0  0  0  0  0  0  0  0
    4.8580    0.2310    0.6272 H   0  0  0  0  0  0  0  0  0  0  0  0
    3.3976   -0.7239    0.3664 H   0  0  0  0  0  0  0  0  0  0  0  0
    3.8478    1.4789    2.4345 H   0  0  0  0  0  0  0  0  0  0  0  0
    2.3550    1.1504    1.5456 H   0  0  0  0  0  0  0  0  0  0  0  0
   -7.7295  -12.0872    7.3187 H   0  0  0  0  0  0  0  0  0  0  0  0
   -6.3925  -13.2424    7.2816 H   0  0  0  0  0  0  0  0  0  0  0  0
   -6.0551  -10.4597    8.3106 H   0  0  0  0  0  0  0  0  0  0  0  0
   -4.7285  -11.4314    7.6504 H   0  0  0  0  0  0  0  0  0  0  0  0
   -5.6407  -12.4049    5.0654 H   0  0  0  0  0  0  0  0  0  0  0  0
   -7.2781  -11.7640    4.8430 H   0  0  0  0  0  0  0  0  0  0  0  0
    2.6997    0.2978    4.1628 H   0  0  0  0  0  0  0  0  0  0  0  0
    1.7840   -0.6889    3.0069 H   0  0  0  0  0  0  0  0  0  0  0  0
    3.9710   -1.7459    5.2724 H   0  0  0  0  0  0  0  0  0  0  0  0
    4.8541   -2.7781    4.1267 H   0  0  0  0  0  0  0  0  0  0  0  0
    1.7900   -2.7282    4.4670 H   0  0  0  0  0  0  0  0  0  0  0  0
    2.8861   -3.9602    5.1102 H   0  0  0  0  0  0  0  0  0  0  0  0
   -7.8481   -9.7526    6.4875 H   0  0  0  0  0  0  0  0  0  0  0  0
   -7.1942   -9.1225    5.0867 H   0  0  0  0  0  0  0  0  0  0  0  0
   -6.6717   -8.5700    6.5537 H   0  0  0  0  0  0  0  0  0  0  0  0
  1  2  1  0  0  0  0
  1  3  2  0  0  0  0
  1 36  1  0  0  0  0
  2  4  2  0  0  0  0
  2 37  1  0  0  0  0
  3  5  1  0  0  0  0
  3 38  1  0  0  0  0
  4 13  1  0  0  0  0
  4 39  1  0  0  0  0
  5 13  2  0  0  0  0
  5 40  1  0  0  0  0
  6  8  2  0  0  0  0
  6 12  1  0  0  0  0
  6 41  1  0  0  0  0
  7  9  1  0  0  0  0
  7 12  2  0  0  0  0
  7 42  1  0  0  0  0
  8 14  1  0  0  0  0
  8 43  1  0  0  0  0
  9 14  2  0  0  0  0
  9 44  1  0  0  0  0
 10 11  2  0  0  0  0
 10 17  1  0  0  0  0
 10 45  1  0  0  0  0
 11 31  1  0  0  0  0
 11 46  1  0  0  0  0
 12 15  1  0  0  0  0
 13 16  1  0  0  0  0
 14 26  1  0  0  0  0
 15 16  2  0  0  0  0
 15 29  1  0  0  0  0
 16 31  1  0  0  0  0
 17 30  2  0  0  0  0
 17 35  1  0  0  0  0
 18 29  2  0  0  0  0
 18 30  1  0  0  0  0
 18 31  1  0  0  0  0
 19 20  1  0  0  0  0
 19 32  1  0  0  0  0
 19 34  2  0  0  0  0
 20 21  1  0  0  0  0
 20 47  1  0  0  0  0
 20 48  1  0  0  0  0
 21 25  1  0  0  0  0
 21 49  1  0  0  0  0
 21 50  1  0  0  0  0
 22 23  1  0  0  0  0
 22 24  1  0  0  0  0
 22 51  1  0  0  0  0
 22 52  1  0  0  0  0
 23 26  1  0  0  0  0
 23 53  1  0  0  0  0
 23 54  1  0  0  0  0
 24 26  1  0  0  0  0
 24 55  1  0  0  0  0
 24 56  1  0  0  0  0
 25 32  1  0  0  0  0
 25 57  1  0  0  0  0
 25 58  1  0  0  0  0
 26 33  1  0  0  0  0
 27 28  1  0  0  0  0
 27 32  1  0  0  0  0
 27 59  1  0  0  0  0
 27 60  1  0  0  0  0
 28 35  1  0  0  0  0
 28 61  1  0  0  0  0
 28 62  1  0  0  0  0
 33 63  1  0  0  0  0
 33 64  1  0  0  0  0
 33 65  1  0  0  0  0
M  CHG  1  33   1
M  END
$$$$
