71
0 1 C27H33N5O5S
C                     6.848724455701    -0.079780237977     1.116081262563
C                     3.658492453940    -0.991848815947     7.070397837021
C                     6.260016121190    -0.131279568324     2.379232069362
C                     4.978896271395    -0.857613041470     6.636594499619
C                     8.974025919175    -0.740837056301     2.063191886631
C                     8.197574125323    -0.400886250020     0.938625230453
C                     2.612763258911    -0.983274118386     6.148808736602
C                     7.008407452054    -0.520312920880     3.500202045626
C                     8.392485972621    -0.803459765701     3.319784579091
C                     2.950014462360    -0.815347647071     4.782121429268
C                     5.210488867859    -0.714111823835     5.259201566890
C                     0.242200191781    -0.852141751287     5.645007753394
C                     8.871748119553    -0.372209650131    -0.385861347937
C                     1.756939212128    -0.761649553663     0.077070236813
C                     2.972052931024    -1.702846797030     0.329794911339
C                     1.107360924850    -0.547113952690     1.459679618565
C                     3.035721934897    -1.899578807554     1.859770499362
C                     7.390250170043    -2.997847293151    -3.868143315333
C                     8.627863493209    -0.803679728792    -2.826546073551
C                     6.926816464914    -1.449783560216    -1.679366664432
C                     6.269759458995    -2.752446039629    -4.916570848460
C                     0.673848798958    -0.219508051676     4.323673520691
C                     2.294119910603    -0.673942997794     2.427390862731
C                     7.369275120026    -1.631656391083    -3.145436965666
C                     0.738635874901     1.312629130001     4.476270633106
C                     0.929643733202    -1.706092738290     7.831006943620
C                    10.464555791231    -1.379820019882     4.385059505907
N                     4.211693442123    -0.672391958222     4.369180839895
N                     1.261110225389    -1.184128773929     6.508799647896
N                     1.928142994328    -0.816193780263     3.846461755530
N                     8.060092113247    -0.508217094034    -1.497205908245
N                     6.521924787918    -0.619354251514     4.799282752046
O                    -0.947421404552    -1.000088946509     5.917255039955
O                    10.090630093491    -0.229361389548    -0.517473043753
O                     4.891064480447    -0.595817856795    -3.863945606526
O                     6.883140432241    -0.118413682801    -5.398168661889
O                     9.062159240589    -1.134792603600     4.476592568646
S                     6.195260002115    -0.982279191145    -4.425827175339
H                     6.250300422310     0.255782281617     0.275921639107
H                     3.457426968904    -1.116227093219     8.129014322792
H                     5.220933688266     0.125973423764     2.512297700732
H                     5.800274130911    -0.873044367527     7.346698329969
H                    10.025987721057    -0.949199069556     1.908922156181
H                     2.094669918923     0.195312344486    -0.332651034206
H                     1.044701469384    -1.177228334853    -0.640571601193
H                     2.866841785705    -2.658257057637    -0.192255425326
H                     3.894372539416    -1.243154422407    -0.039291762441
H                     0.578562234639     0.407865033783     1.528297493003
H                     0.385524875899    -1.346974614844     1.663423195379
H                     2.481034551430    -2.795402645301     2.163102687174
H                     4.052174416621    -1.989762494864     2.240029892678
H                     7.172390293708    -3.829809268392    -3.195386918058
H                     8.357555069613    -3.173436922531    -4.343455313140
H                     9.545748723577    -1.399486245320    -2.770626393669
H                     8.795315234356     0.071418973460    -3.460107817695
H                     5.932649630530    -1.015673321199    -1.551043640935
H                     7.014088312289    -2.361005253562    -1.076353336390
H                     6.549903762907    -2.878601516229    -5.962553868630
H                     5.320253847665    -3.243589675470    -4.699923459993
H                    -0.118255247144    -0.478121219698     3.625076812832
H                     2.935063343455     0.212509624855     2.308128702482
H                     1.506100885021     1.602009401900     5.200974171651
H                    -0.227347568630     1.697256452558     4.815581267257
H                     0.981490203799     1.779686328454     3.517432457780
H                     1.147811982265    -0.968906607859     8.612260200434
H                     1.502501792058    -2.617419113472     8.027287645359
H                    -0.135987250501    -1.928207098855     7.845022281421
H                    10.798030463307    -1.594858746671     5.401032796500
H                    10.994051032113    -0.500174574118     4.001931786897
H                    10.672454388127    -2.242388678927     3.741396975335
H                     7.238851474674    -0.812819746368     5.487221291121
