64
0 1 C28H29N5O2
C                     1.323259501106    -2.946287059799    -8.451783380055
C                     0.945772239650    -2.176130268085    -7.346909387008
C                     1.519032568439    -4.324179138932    -8.299826963656
C                     0.761893594317    -2.780404350248    -6.100519622761
C                     1.347906834586    -4.926449258749    -7.052734335655
C                    -1.169558509154    -8.053120796175    -4.554453988889
C                    -1.563660871378    -6.259819711777    -6.121987966482
C                    -2.045854130880    -8.865800913845    -5.267092747415
C                    -2.437242030976    -7.084243658195    -6.835823872028
C                     2.919280622563    -3.248642772779    -2.037000276465
C                     2.386383428396    -3.399453737479    -3.283866077946
C                    -0.902887236946    -6.737108276426    -4.979173094578
C                     0.961570137345    -4.163289385701    -5.936125049487
C                    -2.684212628309    -8.400170509446    -6.428583452566
C                     0.031326301310    -5.907863541493    -4.203334209647
C                     0.774437226794    -4.807137969688    -4.628418071894
C                     2.481520918204    -4.147818704735    -1.009834316355
C                     1.102844593152    -5.264885173554    -2.437671236028
C                     3.679955749310    -1.887793279640     2.760092343400
C                     2.830933688184    -0.635490568618     2.970020938161
C                     1.517229608764    -1.161743858237     3.568481987498
C                    -3.856107999901   -10.461999584839    -9.018199510721
C                    -3.057550664174   -10.665865438632    -7.702010970756
C                    -4.017757217682    -8.961528669080    -8.647611862825
C                     1.443332731265    -2.614595101077     3.057633094108
C                    -3.635673724062    -9.315278141554    -7.167094589815
C                     3.275719262494    -4.317655415820     2.546013369442
C                     2.643212226740    -4.840337357237     1.262347547543
N                     0.248922557435    -6.176522276302    -2.865313125037
N                     1.621186752264    -5.119345507094    -1.196440293406
N                     1.458968224473    -4.383553737446    -3.487943607915
N                     2.847418119224    -2.976120414612     2.887423175503
N                    -4.778454892670    -9.594869518781    -6.279144977755
O                     4.880005105378    -1.928536839759     2.512937089680
O                     3.025865268500    -3.939126320856     0.207343013742
H                     1.461740848469    -2.477892905706    -9.422637704014
H                     0.781634677164    -1.107306377263    -7.457610915225
H                     1.813300336931    -4.929467315134    -9.153355455574
H                     0.431687041318    -2.182155940190    -5.254586633602
H                     1.502722310786    -5.994791391930    -6.934160179865
H                    -0.683429510023    -8.416823933228    -3.654696872187
H                    -1.411404051661    -5.237441418979    -6.451251970201
H                    -2.254790073862    -9.874180178082    -4.920217890170
H                    -2.937420610966    -6.683757355019    -7.713366986694
H                     3.657988693110    -2.486849600421    -1.820821664921
H                     2.657935656567    -2.786988563607    -4.135845303036
H                     3.359873599917     0.084042384693     3.597705529077
H                     2.680063386843    -0.171142117179     1.988422380036
H                     1.577065491053    -1.161659920148     4.660950553280
H                     0.639037066658    -0.580515067883     3.278060649397
H                    -4.807202391722   -11.003455955800    -9.020059859664
H                    -3.335727518967   -10.682884560909    -9.953742098709
H                    -3.282742221970   -11.545887346355    -7.092589179690
H                    -1.977864744339   -10.605363158190    -7.861197609469
H                    -3.257004529431    -8.352192244882    -9.143396573307
H                    -4.997888875411    -8.497420670474    -8.798615987791
H                     0.951827397509    -3.289827322726     3.766750876811
H                     0.901713400182    -2.676661327723     2.102921855429
H                     3.022263762489    -5.012471792813     3.357751488175
H                     4.362957535978    -4.284821425136     2.446178579915
H                     1.552600236867    -4.888187719669     1.323696315726
H                     3.005900042062    -5.848467072086     1.036781739748
H                    -5.460472261556   -10.180373161396    -6.762246225973
H                    -5.250348723203    -8.719282227211    -6.052797945644
