71
0 1 C27H33N5O5S
C                    -1.155256733021     1.730180530371     0.257418920894
C                    -1.430700456313    -0.247262078724     6.803433464140
C                    -1.245007130031     1.332909497343     1.587176368890
C                    -2.062210453409     0.691078803646     5.984629803041
C                    -2.575499822135     3.629787971703     0.693678529571
C                    -1.802796153424     2.882781603435    -0.210929951505
C                    -0.380380024553    -1.016115919726     6.306489871442
C                    -2.004818576069     2.087136853783     2.503807819693
C                    -2.668546495741     3.242541925759     2.021552111989
C                    -0.006234136175    -0.814038018143     4.953205797339
C                    -1.607392795749     0.827647820988     4.663587480363
C                     1.139341802494    -2.897246101561     6.513847919109
C                    -1.667046545825     3.229521165942    -1.651667730023
C                     2.982334420886    -1.583480182492     1.211175682638
C                     2.809033652278    -0.057059972103     1.467037668926
C                     2.526488085062    -2.272592653583     2.512566078246
C                     2.114653888818     0.058386481784     2.842384739058
C                    -1.629907878452     7.772758582380    -3.142827841554
C                    -1.470482347979     5.062270686279    -3.323528693068
C                    -1.553657845149     5.786569504801    -1.296646470084
C                    -0.297799396653     8.572179450647    -3.109816899301
C                     1.134164459668    -2.922793824773     4.987194108732
C                     1.450931271501    -1.316658502246     3.050743990007
C                    -1.117969848402     6.400525302083    -2.644271867062
C                     0.022116252422    -3.863959703807     4.484796572279
C                     0.225506026645    -1.899553301212     8.550849259220
C                    -2.856786201594     5.189102229099     3.354690055134
N                    -0.617250391094     0.076560792620     4.166548408221
N                     0.348332475872    -1.933169706862     7.096767229564
N                     1.041214620200    -1.561771920407     4.443573133099
N                    -1.912832495304     4.541625754325    -2.015926661900
N                    -2.197045002484     1.787942191455     3.845831029213
O                     1.779064603441    -3.725052294705     7.159254998775
O                    -1.366183821677     2.398711384118    -2.510912140166
O                     1.290057912180     7.048986152304    -1.432263254203
O                     1.316591206780     6.505997199473    -3.933536034593
O                    -3.453158308016     3.956283489592     2.922539814420
S                     0.624283087431     7.024524364230    -2.744202263036
H                    -0.580204001643     1.139487421479    -0.448800473558
H                    -1.758592139480    -0.362172454929     7.830931541159
H                    -0.739462677250     0.445198110280     1.934564379859
H                    -2.878213121323     1.298612437506     6.364448968544
H                    -3.146454054849     4.493877607763     0.369871104910
H                     2.348595709299    -1.904948194082     0.378230400888
H                     4.009030127667    -1.854748882805     0.950864215609
H                     3.767150056348     0.469924846800     1.461848160315
H                     2.196577765466     0.398544624988     0.683026732081
H                     2.170171838528    -3.292785545044     2.342919161859
H                     3.360168393958    -2.320065495701     3.223364194388
H                     2.850499507538     0.198251426465     3.642880038150
H                     1.403736205085     0.881720301981     2.896283152499
H                    -2.399275793947     8.194965932562    -2.493029088466
H                    -2.029184530150     7.695828482276    -4.156257377294
H                    -2.270690208593     5.126188747405    -4.067858229000
H                    -0.621635772599     4.517147276001    -3.746710644795
H                    -0.747309195219     5.675659253217    -0.565059235629
H                    -2.405787266606     6.296157363606    -0.833781043070
H                     0.015711885230     9.026734874540    -4.049795606306
H                    -0.200353604101     9.273800247512    -2.280397731685
H                     2.103270530293    -3.335471582409     4.717491841756
H                     0.567497197373    -1.386953582686     2.398719036020
H                    -0.966050506159    -3.491626871805     4.772653824540
H                     0.157255676363    -4.863789004226     4.907003139279
H                     0.053499482617    -3.939576523660     3.394048509779
H                    -0.766582675915    -2.237953496555     8.871299715951
H                     0.393319042366    -0.881966633973     8.916205953346
H                     0.976186392911    -2.570381662487     8.965043940373
H                    -3.541535389621     5.627670426276     4.083649681316
H                    -2.729791920906     5.879450281351     2.512618567333
H                    -1.880385708876     5.008589235494     3.820671573904
H                    -2.897195242339     2.373577509235     4.285664224512
