64
0 1 C25H31N5O3
C                     0.180866891448    -8.440427956795     1.306900717903
C                    -0.054080799658    -8.286726287496    -1.093441749131
C                    -1.506478146038    -3.341815686900     3.122208911924
C                     0.276974881677    -7.052342527556     1.386341388155
C                     0.011866740740    -6.897354978803    -1.003734448313
C                    -1.123368170340    -4.317781476415     2.198666978260
C                     0.019608576873    -9.083538883626     0.064677102334
C                    -0.893861696277    -2.091089146075     3.124174572424
C                     0.183089017683    -6.257296907051     0.233123850099
C                     0.136089360535    -1.870857047681     2.172318059584
C                    -0.114172025826    -3.993377981252     1.278252354909
C                    -0.540265965658     0.101868740346     4.117977782688
C                     1.571374158401     1.215985792356     0.697833893618
C                     3.109181373347    -0.687787977575     1.233421255387
C                    -0.754430068354   -11.212248772222    -1.067336590646
C                    -0.542695058392   -11.347914447023     1.048449234685
C                     2.450097788048     1.482027386017    -0.529560985858
C                     3.898157982134    -0.315945740474    -0.024295107837
C                    -0.387423325601   -13.726276030457    -0.192014612653
C                    -2.354071650950   -13.097932714458     0.044886922426
C                     0.839070497380     0.034989641678     3.465172297607
C                     1.639190493411    -0.274446652884     1.054564544117
C                    -1.025241220884   -12.333749328016    -0.039225176073
C                     1.822046297405    -0.623213122862     4.456706184321
C                    -2.609655247691    -1.095316131854     4.623325143416
N                     0.506349834036    -2.797554840768     1.284448956545
N                    -1.317199940492    -1.020480954367     3.949435735399
N                    -0.031055002738   -10.471333979788    -0.019248223068
N                     0.751026553997    -0.633010944753     2.164977228649
N                     0.300073879681    -4.846292267765     0.266164410400
O                    -0.886623239965     1.073980209438     4.788010393733
O                     3.801370083858     1.077567448832    -0.318854410638
O                    -1.683552450877   -14.377336807691    -0.103859076379
H                     0.260710175598    -9.032415761233     2.214557788889
H                    -0.172266470582    -8.755671939494    -2.066279910828
H                    -2.309955903765    -3.560689858362     3.817739127807
H                     0.437665870656    -6.583043326972     2.351813842296
H                    -0.075265440893    -6.294017027001    -1.904117036604
H                    -1.622110907345    -5.278451922542     2.168746018160
H                     1.938038888631     1.837353764244     1.521980027293
H                     0.536541246025     1.510711701310     0.489453703126
H                     3.173758466480    -1.764895677246     1.417149180467
H                     3.550589849825    -0.163687608396     2.087544621866
H                    -0.151300321326   -11.480259598329    -1.942755656781
H                    -1.672946527759   -10.705070114379    -1.401872183652
H                    -1.370580183609   -10.898433620909     1.619056750490
H                     0.217613285047   -11.716878510443     1.746799123709
H                     2.038061573111     0.955738366353    -1.406740333526
H                     2.486394095262     2.549679387447    -0.760869784584
H                     4.963979506674    -0.524461553793     0.099647688341
H                     3.532621558260    -0.902641280671    -0.883722443958
H                     0.098867067287   -13.919801851513    -1.156104247366
H                     0.277089665505   -14.033517472578     0.624959222445
H                    -2.880342832050   -13.023380879617     1.005065646505
H                    -3.058465955536   -12.909728706899    -0.775374770058
H                     1.129358472240     1.071342948973     3.303171298692
H                     1.251576595221    -0.837074483276     0.200584431201
H                     1.560148029009    -1.672756569016     4.622064870847
H                     1.782848146413    -0.098518381840     5.416001055455
H                     2.845868656601    -0.581478456162     4.080239044233
H                    -2.597589933203    -1.854912700194     5.413280031529
H                    -3.395613969429    -1.341266433191     3.902564223804
H                    -2.809180027986    -0.123177426011     5.071020933088
H                     0.987359043654    -4.425315725565    -0.347257605830
