
  -OEChem-05262117483D

 44 46  0     0  0  0  0  0  0999 V2000
   -0.9074   -7.5859    3.6781 C   0  0  0  0  0  0  0  0  0  0  0  0
   -1.7409   -6.7637    4.4413 C   0  0  0  0  0  0  0  0  0  0  0  0
   -1.5319   -6.3888    1.6971 C   0  0  0  0  0  0  0  0  0  0  0  0
   -3.7928   -2.5496    1.0676 C   0  0  0  0  0  0  0  0  0  0  0  0
   -0.7905   -7.4173    2.2914 C   0  0  0  0  0  0  0  0  0  0  0  0
   -2.4892   -5.7362    3.8541 C   0  0  0  0  0  0  0  0  0  0  0  0
   -2.3572   -5.5722    2.4676 C   0  0  0  0  0  0  0  0  0  0  0  0
   -4.7562   -3.5813    0.8422 C   0  0  0  0  0  0  0  0  0  0  0  0
   -2.7525   -3.2131    1.7130 C   0  0  0  0  0  0  0  0  0  0  0  0
   -3.9689   -1.1260    0.7593 C   0  0  0  0  0  0  0  0  0  0  0  0
   -1.6983   -1.6412   -1.0568 C   0  0  0  0  0  0  0  0  0  0  0  0
   -1.2090    0.6727   -0.5815 C   0  0  0  0  0  0  0  0  0  0  0  0
   -0.2114   -1.8543   -1.3311 C   0  0  0  0  0  0  0  0  0  0  0  0
    0.2638    0.3850   -0.8446 C   0  0  0  0  0  0  0  0  0  0  0  0
    0.0801   -8.3297    1.4593 C   0  0  0  0  0  0  0  0  0  0  0  0
   -3.3904   -4.8359    4.6616 C   0  0  0  0  0  0  0  0  0  0  0  0
   -6.0905   -3.4455    0.1761 C   0  0  0  0  0  0  0  0  0  0  0  0
   -4.3278   -4.7641    1.2847 N   0  0  0  0  0  0  0  0  0  0  0  0
   -3.1591   -0.2313    0.3030 N   0  0  0  0  0  0  0  0  0  0  0  0
   -3.0911   -4.5281    1.8178 N   0  0  0  0  0  0  0  0  0  0  0  0
   -1.8675   -0.5444   -0.0887 N   0  0  0  0  0  0  0  0  0  0  0  0
    0.4273   -0.6684   -1.7938 O   0  0  0  0  0  0  0  0  0  0  0  0
   -1.2798   -2.6124    2.3635 Cl  0  0  0  0  0  0  0  0  0  0  0  0
   -0.3394   -8.3725    4.1703 H   0  0  0  0  0  0  0  0  0  0  0  0
   -1.8118   -6.9229    5.5147 H   0  0  0  0  0  0  0  0  0  0  0  0
   -1.4754   -6.2130    0.6258 H   0  0  0  0  0  0  0  0  0  0  0  0
   -4.9602   -0.7289    0.9820 H   0  0  0  0  0  0  0  0  0  0  0  0
   -2.2253   -1.3966   -1.9941 H   0  0  0  0  0  0  0  0  0  0  0  0
   -2.1179   -2.5675   -0.6663 H   0  0  0  0  0  0  0  0  0  0  0  0
   -1.3114    1.4475    0.1820 H   0  0  0  0  0  0  0  0  0  0  0  0
   -1.6910    1.0314   -1.5052 H   0  0  0  0  0  0  0  0  0  0  0  0
    0.2794   -2.2120   -0.4135 H   0  0  0  0  0  0  0  0  0  0  0  0
   -0.0809   -2.6037   -2.1164 H   0  0  0  0  0  0  0  0  0  0  0  0
    0.7548    1.2644   -1.2690 H   0  0  0  0  0  0  0  0  0  0  0  0
    0.7654    0.1182    0.0984 H   0  0  0  0  0  0  0  0  0  0  0  0
   -0.4926   -9.1910    1.0947 H   0  0  0  0  0  0  0  0  0  0  0  0
    0.4830   -7.8103    0.5848 H   0  0  0  0  0  0  0  0  0  0  0  0
    0.9216   -8.7170    2.0410 H   0  0  0  0  0  0  0  0  0  0  0  0
   -2.9978   -3.8137    4.6980 H   0  0  0  0  0  0  0  0  0  0  0  0
   -4.3908   -4.7840    4.2214 H   0  0  0  0  0  0  0  0  0  0  0  0
   -3.4828   -5.1974    5.6888 H   0  0  0  0  0  0  0  0  0  0  0  0
   -5.9863   -3.0658   -0.8459 H   0  0  0  0  0  0  0  0  0  0  0  0
   -6.5864   -4.4178    0.1404 H   0  0  0  0  0  0  0  0  0  0  0  0
   -6.7353   -2.7456    0.7196 H   0  0  0  0  0  0  0  0  0  0  0  0
  1  2  1  0  0  0  0
  1  5  2  0  0  0  0
  1 24  1  0  0  0  0
  2  6  2  0  0  0  0
  2 25  1  0  0  0  0
  3  5  1  0  0  0  0
  3  7  2  0  0  0  0
  3 26  1  0  0  0  0
  4  8  1  0  0  0  0
  4  9  2  0  0  0  0
  4 10  1  0  0  0  0
  5 15  1  0  0  0  0
  6  7  1  0  0  0  0
  6 16  1  0  0  0  0
  7 20  1  0  0  0  0
  8 17  1  0  0  0  0
  8 18  2  0  0  0  0
  9 20  1  0  0  0  0
  9 23  1  0  0  0  0
 10 19  2  0  0  0  0
 10 27  1  0  0  0  0
 11 13  1  0  0  0  0
 11 21  1  0  0  0  0
 11 28  1  0  0  0  0
 11 29  1  0  0  0  0
 12 14  1  0  0  0  0
 12 21  1  0  0  0  0
 12 30  1  0  0  0  0
 12 31  1  0  0  0  0
 13 22  1  0  0  0  0
 13 32  1  0  0  0  0
 13 33  1  0  0  0  0
 14 22  1  0  0  0  0
 14 34  1  0  0  0  0
 14 35  1  0  0  0  0
 15 36  1  0  0  0  0
 15 37  1  0  0  0  0
 15 38  1  0  0  0  0
 16 39  1  0  0  0  0
 16 40  1  0  0  0  0
 16 41  1  0  0  0  0
 17 42  1  0  0  0  0
 17 43  1  0  0  0  0
 17 44  1  0  0  0  0
 18 20  1  0  0  0  0
 19 21  1  0  0  0  0
M  END
$$$$
