
  -OEChem-05262117483D

 44 46  0     0  0  0  0  0  0999 V2000
   -0.9994   -7.9870    3.1682 C   0  0  0  0  0  0  0  0  0  0  0  0
   -0.5315   -7.4256    1.9771 C   0  0  0  0  0  0  0  0  0  0  0  0
   -2.4464   -6.1037    3.4883 C   0  0  0  0  0  0  0  0  0  0  0  0
   -2.9774   -2.1201    1.6734 C   0  0  0  0  0  0  0  0  0  0  0  0
   -1.9613   -7.3329    3.9497 C   0  0  0  0  0  0  0  0  0  0  0  0
   -0.9995   -6.1894    1.5147 C   0  0  0  0  0  0  0  0  0  0  0  0
   -1.9715   -5.5498    2.2995 C   0  0  0  0  0  0  0  0  0  0  0  0
   -3.5522   -2.8985    0.6209 C   0  0  0  0  0  0  0  0  0  0  0  0
   -2.2944   -3.0616    2.4388 C   0  0  0  0  0  0  0  0  0  0  0  0
   -3.0393   -0.6596    1.7956 C   0  0  0  0  0  0  0  0  0  0  0  0
   -3.5174    0.7483    5.0270 C   0  0  0  0  0  0  0  0  0  0  0  0
   -4.4943   -1.3259    4.2775 C   0  0  0  0  0  0  0  0  0  0  0  0
   -3.5651    0.2209    6.4556 C   0  0  0  0  0  0  0  0  0  0  0  0
   -4.5362   -1.7826    5.7339 C   0  0  0  0  0  0  0  0  0  0  0  0
   -2.4454   -7.9180    5.2561 C   0  0  0  0  0  0  0  0  0  0  0  0
   -0.4872   -5.5716    0.2378 C   0  0  0  0  0  0  0  0  0  0  0  0
   -4.4024   -2.4070   -0.5093 C   0  0  0  0  0  0  0  0  0  0  0  0
   -3.2686   -4.1936    0.7530 N   0  0  0  0  0  0  0  0  0  0  0  0
   -3.1722    0.1190    2.8160 N   0  0  0  0  0  0  0  0  0  0  0  0
   -2.4930   -4.2879    1.8752 N   0  0  0  0  0  0  0  0  0  0  0  0
   -3.3839   -0.3767    4.0920 N   0  0  0  0  0  0  0  0  0  0  0  0
   -4.6492   -0.6895    6.6393 O   0  0  0  0  0  0  0  0  0  0  0  0
   -1.2770   -2.8463    3.8068 Cl  0  0  0  0  0  0  0  0  0  0  0  0
   -0.6083   -8.9483    3.4946 H   0  0  0  0  0  0  0  0  0  0  0  0
    0.2197   -7.9553    1.3960 H   0  0  0  0  0  0  0  0  0  0  0  0
   -3.2046   -5.5656    4.0517 H   0  0  0  0  0  0  0  0  0  0  0  0
   -2.9223   -0.1157    0.8574 H   0  0  0  0  0  0  0  0  0  0  0  0
   -4.4284    1.3297    4.8120 H   0  0  0  0  0  0  0  0  0  0  0  0
   -2.6532    1.4037    4.8959 H   0  0  0  0  0  0  0  0  0  0  0  0
   -4.3645   -2.1998    3.6403 H   0  0  0  0  0  0  0  0  0  0  0  0
   -5.4476   -0.8437    4.0041 H   0  0  0  0  0  0  0  0  0  0  0  0
   -2.6145   -0.2777    6.7004 H   0  0  0  0  0  0  0  0  0  0  0  0
   -3.7254    1.0407    7.1604 H   0  0  0  0  0  0  0  0  0  0  0  0
   -5.4117   -2.4159    5.9010 H   0  0  0  0  0  0  0  0  0  0  0  0
   -3.6288   -2.3636    5.9579 H   0  0  0  0  0  0  0  0  0  0  0  0
   -1.8478   -7.5458    6.0969 H   0  0  0  0  0  0  0  0  0  0  0  0
   -3.4882   -7.6511    5.4520 H   0  0  0  0  0  0  0  0  0  0  0  0
   -2.3694   -9.0092    5.2562 H   0  0  0  0  0  0  0  0  0  0  0  0
   -1.2572   -5.5850   -0.5393 H   0  0  0  0  0  0  0  0  0  0  0  0
   -0.2077   -4.5240    0.3902 H   0  0  0  0  0  0  0  0  0  0  0  0
    0.3893   -6.1115   -0.1291 H   0  0  0  0  0  0  0  0  0  0  0  0
   -3.8562   -1.6901   -1.1328 H   0  0  0  0  0  0  0  0  0  0  0  0
   -4.7084   -3.2482   -1.1349 H   0  0  0  0  0  0  0  0  0  0  0  0
   -5.2991   -1.8994   -0.1387 H   0  0  0  0  0  0  0  0  0  0  0  0
  1  2  1  0  0  0  0
  1  5  2  0  0  0  0
  1 24  1  0  0  0  0
  2  6  2  0  0  0  0
  2 25  1  0  0  0  0
  3  5  1  0  0  0  0
  3  7  2  0  0  0  0
  3 26  1  0  0  0  0
  4  8  1  0  0  0  0
  4  9  2  0  0  0  0
  4 10  1  0  0  0  0
  5 15  1  0  0  0  0
  6  7  1  0  0  0  0
  6 16  1  0  0  0  0
  7 20  1  0  0  0  0
  8 17  1  0  0  0  0
  8 18  2  0  0  0  0
  9 20  1  0  0  0  0
  9 23  1  0  0  0  0
 10 19  2  0  0  0  0
 10 27  1  0  0  0  0
 11 13  1  0  0  0  0
 11 21  1  0  0  0  0
 11 28  1  0  0  0  0
 11 29  1  0  0  0  0
 12 14  1  0  0  0  0
 12 21  1  0  0  0  0
 12 30  1  0  0  0  0
 12 31  1  0  0  0  0
 13 22  1  0  0  0  0
 13 32  1  0  0  0  0
 13 33  1  0  0  0  0
 14 22  1  0  0  0  0
 14 34  1  0  0  0  0
 14 35  1  0  0  0  0
 15 36  1  0  0  0  0
 15 37  1  0  0  0  0
 15 38  1  0  0  0  0
 16 39  1  0  0  0  0
 16 40  1  0  0  0  0
 16 41  1  0  0  0  0
 17 42  1  0  0  0  0
 17 43  1  0  0  0  0
 17 44  1  0  0  0  0
 18 20  1  0  0  0  0
 19 21  1  0  0  0  0
M  END
$$$$
