
  -OEChem-05262117483D

 32 34  0     0  0  0  0  0  0999 V2000
    7.7159   -2.7101    1.8111 C   0  0  0  0  0  0  0  0  0  0  0  0
    2.3117    0.5415    0.2314 C   0  0  0  0  0  0  0  0  0  0  0  0
    0.9756    0.6219    0.6330 C   0  0  0  0  0  0  0  0  0  0  0  0
    3.1670   -0.3472    0.8774 C   0  0  0  0  0  0  0  0  0  0  0  0
    0.5137   -0.1865    1.6742 C   0  0  0  0  0  0  0  0  0  0  0  0
    6.1040   -5.5709    5.2970 C   0  0  0  0  0  0  0  0  0  0  0  0
    6.2485   -6.5393    6.2471 C   0  0  0  0  0  0  0  0  0  0  0  0
    8.3753   -6.0762    5.0838 C   0  0  0  0  0  0  0  0  0  0  0  0
    2.7051   -1.1640    1.9275 C   0  0  0  0  0  0  0  0  0  0  0  0
    7.3374   -5.2819    4.6017 C   0  0  0  0  0  0  0  0  0  0  0  0
    1.3523   -1.0899    2.3423 C   0  0  0  0  0  0  0  0  0  0  0  0
    3.6926   -2.0667    2.5405 C   0  0  0  0  0  0  0  0  0  0  0  0
    5.5591   -3.0043    2.8691 C   0  0  0  0  0  0  0  0  0  0  0  0
    7.6503   -4.3519    3.5373 C   0  0  0  0  0  0  0  0  0  0  0  0
    6.9565   -3.4189    2.8110 C   0  0  0  0  0  0  0  0  0  0  0  0
    0.7807   -1.9299    3.4580 C   0  0  0  0  0  0  0  0  0  0  0  0
    8.3686   -2.1628    1.0162 N   0  0  0  0  0  0  0  0  0  0  0  0
    5.0062   -2.1052    2.1012 N   0  0  0  0  0  0  0  0  0  0  0  0
    3.4467   -2.9041    3.5346 N   0  0  0  0  0  0  0  0  0  0  0  0
    4.6935   -3.5328    3.7580 O   0  0  0  0  0  0  0  0  0  0  0  0
    7.8802   -7.1355    6.3355 S   0  0  0  0  0  0  0  0  0  0  0  0
    2.6847    1.1643   -0.5768 H   0  0  0  0  0  0  0  0  0  0  0  0
    0.2942    1.3103    0.1395 H   0  0  0  0  0  0  0  0  0  0  0  0
    4.2070   -0.4239    0.5801 H   0  0  0  0  0  0  0  0  0  0  0  0
   -0.5272   -0.1175    1.9804 H   0  0  0  0  0  0  0  0  0  0  0  0
    5.1641   -5.0819    5.0972 H   0  0  0  0  0  0  0  0  0  0  0  0
    5.4900   -6.9422    6.9061 H   0  0  0  0  0  0  0  0  0  0  0  0
    9.4050   -6.0736    4.7476 H   0  0  0  0  0  0  0  0  0  0  0  0
    8.6951   -4.4109    3.2410 H   0  0  0  0  0  0  0  0  0  0  0  0
    0.8824   -2.9989    3.2486 H   0  0  0  0  0  0  0  0  0  0  0  0
    1.3048   -1.7543    4.4021 H   0  0  0  0  0  0  0  0  0  0  0  0
   -0.2789   -1.7015    3.5995 H   0  0  0  0  0  0  0  0  0  0  0  0
  1 15  1  0  0  0  0
  1 17  3  0  0  0  0
  2  3  1  0  0  0  0
  2  4  2  0  0  0  0
  2 22  1  0  0  0  0
  3  5  2  0  0  0  0
  3 23  1  0  0  0  0
  4  9  1  0  0  0  0
  4 24  1  0  0  0  0
  5 11  1  0  0  0  0
  5 25  1  0  0  0  0
  6  7  2  0  0  0  0
  6 10  1  0  0  0  0
  6 26  1  0  0  0  0
  7 21  1  0  0  0  0
  7 27  1  0  0  0  0
  8 10  2  0  0  0  0
  8 21  1  0  0  0  0
  8 28  1  0  0  0  0
  9 11  2  0  0  0  0
  9 12  1  0  0  0  0
 10 14  1  0  0  0  0
 11 16  1  0  0  0  0
 12 18  1  0  0  0  0
 12 19  2  0  0  0  0
 13 15  1  0  0  0  0
 13 18  2  0  0  0  0
 13 20  1  0  0  0  0
 14 15  2  0  0  0  0
 14 29  1  0  0  0  0
 16 30  1  0  0  0  0
 16 31  1  0  0  0  0
 16 32  1  0  0  0  0
 19 20  1  0  0  0  0
M  END
$$$$
