
  -OEChem-05262117483D

 18 18  0     1  0  0  0  0  0999 V2000
    0.9875    1.5708    1.4213 C   0  0  0  0  0  0  0  0  0  0  0  0
    4.6052   -3.1024    0.7010 C   0  0  0  0  0  0  0  0  0  0  0  0
    4.1596   -3.7339    1.8310 C   0  0  0  0  0  0  0  0  0  0  0  0
    3.7473   -2.0239    0.3165 C   0  0  0  0  0  0  0  0  0  0  0  0
    2.6643   -1.8397    1.1436 C   0  0  0  0  0  0  0  0  0  0  0  0
    2.0822    0.5960    1.3513 C   0  0  0  0  0  0  0  0  0  0  0  0
    1.5375   -0.8364    1.1117 C   0  0  1  0  0  0  0  0  0  0  0  0
    0.0847    2.3030    1.4694 N   0  0  0  0  0  0  0  0  0  0  0  0
    0.8493   -0.8799   -0.1818 N   0  0  0  0  0  0  0  0  0  0  0  0
    2.6998   -3.0208    2.4259 S   0  0  0  0  0  0  0  0  0  0  0  0
    4.1507   -0.9665   -1.2168 Br  0  0  0  0  0  0  0  0  0  0  0  0
    5.5008   -3.3799    0.1571 H   0  0  0  0  0  0  0  0  0  0  0  0
    4.6059   -4.5754    2.3452 H   0  0  0  0  0  0  0  0  0  0  0  0
    2.7514    0.8737    0.5335 H   0  0  0  0  0  0  0  0  0  0  0  0
    2.6466    0.6287    2.2876 H   0  0  0  0  0  0  0  0  0  0  0  0
    0.8711   -1.0657    1.9590 H   0  0  0  0  0  0  0  0  0  0  0  0
    0.0218   -0.2849   -0.1546 H   0  0  0  0  0  0  0  0  0  0  0  0
    0.5382   -1.8298   -0.3735 H   0  0  0  0  0  0  0  0  0  0  0  0
  1  6  1  0  0  0  0
  1  8  3  0  0  0  0
  2  3  2  0  0  0  0
  2  4  1  0  0  0  0
  2 12  1  0  0  0  0
  3 10  1  0  0  0  0
  3 13  1  0  0  0  0
  4  5  2  0  0  0  0
  4 11  1  0  0  0  0
  5  7  1  0  0  0  0
  5 10  1  0  0  0  0
  6  7  1  0  0  0  0
  6 14  1  0  0  0  0
  6 15  1  0  0  0  0
  7  9  1  0  0  0  0
  7 16  1  0  0  0  0
  9 17  1  0  0  0  0
  9 18  1  0  0  0  0
M  END
$$$$
