32
0 1 C16H11N3OS
C                     7.922402526119    -3.348618736203     4.497664103543
C                     0.866364669432    -0.150535580880     2.031357802745
C                     0.444494886684    -0.727089058827     0.829802508879
C                     2.036905019275    -0.606063706572     2.633281359115
C                     1.192737534628    -1.754684652622     0.252009470359
C                     9.263150640815    -3.747344244545    -0.116551698700
C                     9.038524942794    -3.620033960393    -1.455264402049
C                     7.070015326567    -2.930122230627    -0.097591506788
C                     2.798230901697    -1.633325093207     2.046526799783
C                     8.131056497024    -3.352559254302     0.694737571923
C                     2.375216820857    -2.230385775600     0.837735923038
C                     4.021933881111    -2.056076776236     2.750918749531
C                     6.000303460510    -2.691662078158     3.139938094766
C                     8.231630732327    -3.423363763060     2.133081003483
C                     7.382523193206    -3.151552529104     3.176421561376
C                     3.121233643616    -3.359886347796     0.163870841297
N                     8.389968967677    -3.518910253934     5.551280420309
N                     5.189673163683    -2.469551712881     2.134464754263
N                     4.102928215654    -2.030592612498     4.068022337437
O                     5.414375073807    -2.445351650563     4.333608875739
S                     7.439373203667    -3.011208562628    -1.769189437009
H                     0.291514993934     0.647284515741     2.493232805817
H                    -0.466093947760    -0.382812424644     0.346300477717
H                     2.381446586028    -0.166222568323     3.563973477039
H                     0.848967450038    -2.208843431737    -0.674373509913
H                    10.198257911755    -4.108968048541     0.299644547626
H                     9.708877658425    -3.843852922465    -2.274908285431
H                     6.107515414279    -2.585668269161     0.249983150276
H                     9.209158615926    -3.766253593110     2.465247427783
H                     3.969060722057    -2.983171864989    -0.417273873381
H                     3.522489968427    -4.079412448263     0.880577316248
H                     2.459282357053    -3.891893116638    -0.524551651504
