
  -OEChem-05262117483D

 44 46  0     0  0  0  0  0  0999 V2000
   -4.8473   -5.2083    2.0057 C   0  0  0  0  0  0  0  0  0  0  0  0
   -5.5915   -4.2005    1.3870 C   0  0  0  0  0  0  0  0  0  0  0  0
   -3.2151   -5.0839    0.2544 C   0  0  0  0  0  0  0  0  0  0  0  0
   -2.5617   -2.1588   -3.0993 C   0  0  0  0  0  0  0  0  0  0  0  0
   -3.6486   -5.6739    1.4477 C   0  0  0  0  0  0  0  0  0  0  0  0
   -5.1699   -3.6104    0.1889 C   0  0  0  0  0  0  0  0  0  0  0  0
   -3.9612   -4.0741   -0.3514 C   0  0  0  0  0  0  0  0  0  0  0  0
   -3.0957   -3.3506   -3.6883 C   0  0  0  0  0  0  0  0  0  0  0  0
   -2.8513   -2.3080   -1.7478 C   0  0  0  0  0  0  0  0  0  0  0  0
   -1.9640   -0.9766   -3.7301 C   0  0  0  0  0  0  0  0  0  0  0  0
    0.2007   -2.9281   -4.2780 C   0  0  0  0  0  0  0  0  0  0  0  0
    0.5214   -1.5407   -6.2218 C   0  0  0  0  0  0  0  0  0  0  0  0
    1.4632   -2.3146   -3.6703 C   0  0  0  0  0  0  0  0  0  0  0  0
    1.7795   -0.9623   -5.5744 C   0  0  0  0  0  0  0  0  0  0  0  0
   -2.8632   -6.7926    2.0915 C   0  0  0  0  0  0  0  0  0  0  0  0
   -5.9719   -2.5300   -0.4934 C   0  0  0  0  0  0  0  0  0  0  0  0
   -3.1486   -3.7183   -5.1370 C   0  0  0  0  0  0  0  0  0  0  0  0
   -3.6377   -4.1485   -2.7652 N   0  0  0  0  0  0  0  0  0  0  0  0
   -1.0870   -0.8725   -4.6710 N   0  0  0  0  0  0  0  0  0  0  0  0
   -3.4740   -3.5032   -1.5701 N   0  0  0  0  0  0  0  0  0  0  0  0
   -0.4581   -1.9866   -5.2132 N   0  0  0  0  0  0  0  0  0  0  0  0
    2.3814   -1.9091   -4.6861 O   0  0  0  0  0  0  0  0  0  0  0  0
   -2.4843   -1.2557   -0.4328 Cl  0  0  0  0  0  0  0  0  0  0  0  0
   -5.2079   -5.6422    2.9359 H   0  0  0  0  0  0  0  0  0  0  0  0
   -6.5224   -3.8685    1.8405 H   0  0  0  0  0  0  0  0  0  0  0  0
   -2.2908   -5.4052   -0.2188 H   0  0  0  0  0  0  0  0  0  0  0  0
   -2.3431   -0.0136   -3.3869 H   0  0  0  0  0  0  0  0  0  0  0  0
    0.4711   -3.8158   -4.8598 H   0  0  0  0  0  0  0  0  0  0  0  0
   -0.4906   -3.2399   -3.4965 H   0  0  0  0  0  0  0  0  0  0  0  0
    0.0386   -0.8001   -6.8623 H   0  0  0  0  0  0  0  0  0  0  0  0
    0.7860   -2.4116   -6.8312 H   0  0  0  0  0  0  0  0  0  0  0  0
    1.1965   -1.4547   -3.0376 H   0  0  0  0  0  0  0  0  0  0  0  0
    1.9890   -3.0504   -3.0550 H   0  0  0  0  0  0  0  0  0  0  0  0
    2.5358   -0.7235   -6.3275 H   0  0  0  0  0  0  0  0  0  0  0  0
    1.5218   -0.0443   -5.0261 H   0  0  0  0  0  0  0  0  0  0  0  0
   -3.1464   -7.7632    1.6670 H   0  0  0  0  0  0  0  0  0  0  0  0
   -1.7876   -6.6681    1.9345 H   0  0  0  0  0  0  0  0  0  0  0  0
   -3.0454   -6.8386    3.1690 H   0  0  0  0  0  0  0  0  0  0  0  0
   -5.4975   -1.5494   -0.3769 H   0  0  0  0  0  0  0  0  0  0  0  0
   -6.0616   -2.7235   -1.5664 H   0  0  0  0  0  0  0  0  0  0  0  0
   -6.9771   -2.4674   -0.0691 H   0  0  0  0  0  0  0  0  0  0  0  0
   -2.1443   -3.8015   -5.5620 H   0  0  0  0  0  0  0  0  0  0  0  0
   -3.6835   -4.6630   -5.2573 H   0  0  0  0  0  0  0  0  0  0  0  0
   -3.6641   -2.9415   -5.7116 H   0  0  0  0  0  0  0  0  0  0  0  0
  1  2  1  0  0  0  0
  1  5  2  0  0  0  0
  1 24  1  0  0  0  0
  2  6  2  0  0  0  0
  2 25  1  0  0  0  0
  3  5  1  0  0  0  0
  3  7  2  0  0  0  0
  3 26  1  0  0  0  0
  4  8  1  0  0  0  0
  4  9  2  0  0  0  0
  4 10  1  0  0  0  0
  5 15  1  0  0  0  0
  6  7  1  0  0  0  0
  6 16  1  0  0  0  0
  7 20  1  0  0  0  0
  8 17  1  0  0  0  0
  8 18  2  0  0  0  0
  9 20  1  0  0  0  0
  9 23  1  0  0  0  0
 10 19  2  0  0  0  0
 10 27  1  0  0  0  0
 11 13  1  0  0  0  0
 11 21  1  0  0  0  0
 11 28  1  0  0  0  0
 11 29  1  0  0  0  0
 12 14  1  0  0  0  0
 12 21  1  0  0  0  0
 12 30  1  0  0  0  0
 12 31  1  0  0  0  0
 13 22  1  0  0  0  0
 13 32  1  0  0  0  0
 13 33  1  0  0  0  0
 14 22  1  0  0  0  0
 14 34  1  0  0  0  0
 14 35  1  0  0  0  0
 15 36  1  0  0  0  0
 15 37  1  0  0  0  0
 15 38  1  0  0  0  0
 16 39  1  0  0  0  0
 16 40  1  0  0  0  0
 16 41  1  0  0  0  0
 17 42  1  0  0  0  0
 17 43  1  0  0  0  0
 17 44  1  0  0  0  0
 18 20  1  0  0  0  0
 19 21  1  0  0  0  0
M  END
$$$$
