44
0 1 C17ClH21N4O
C                    -4.847325650314    -5.208331306535     2.005719256848
C                    -5.591527352907    -4.200480806750     1.386981745498
C                    -3.215077422147    -5.083889146991     0.254427011154
C                    -2.561663028724    -2.158782209254    -3.099291945589
C                    -3.648614382325    -5.673853504778     1.447661919442
C                    -5.169851540065    -3.610430447082     0.188850836739
C                    -3.961159296661    -4.074139430196    -0.351414620909
C                    -3.095677305399    -3.350601632004    -3.688315288710
C                    -2.851273662047    -2.308025269505    -1.747789505318
C                    -1.963999475903    -0.976551207680    -3.730068301983
C                     0.200659981831    -2.928121871977    -4.278000844192
C                     0.521385748298    -1.540722531576    -6.221805727087
C                     1.463180840202    -2.314575186889    -3.670336450643
C                     1.779536042126    -0.962301010449    -5.574399796927
C                    -2.863155018661    -6.792593655279     2.091469063562
C                    -5.971890454373    -2.530028746278    -0.493367116769
C                    -3.148596047778    -3.718261061929    -5.137008987293
N                    -3.637730990428    -4.148501031122    -2.765155145820
N                    -1.087029327862    -0.872461124281    -4.671005486502
N                    -3.473970032779    -3.503202247572    -1.570063746291
N                    -0.458137874233    -1.986620849140    -5.213202880186
O                     2.381424312959    -1.909065404452    -4.686141314713
Cl                   -2.484332944734    -1.255717899029    -0.432786571018
H                    -5.207921876836    -5.642240479380     2.935909095640
H                    -6.522437856975    -3.868451238260     1.840522821347
H                    -2.290754756302    -5.405204898422    -0.218799451640
H                    -2.343051334451    -0.013551111801    -3.386872898553
H                     0.471118167869    -3.815760581843    -4.859799272646
H                    -0.490594715028    -3.239897293856    -3.496488078874
H                     0.038573647799    -0.800051494041    -6.862310112191
H                     0.786010205389    -2.411629626434    -6.831184379627
H                     1.196452512108    -1.454707591204    -3.037550998883
H                     1.988970189577    -3.050394182704    -3.054978608925
H                     2.535762450148    -0.723542042193    -6.327517294128
H                     1.521777045498    -0.044284988641    -5.026059126795
H                    -3.146423500156    -7.763230291609     1.667000560326
H                    -1.787576514127    -6.668123708639     1.934469143837
H                    -3.045437792530    -6.838584907043     3.168998734433
H                    -5.497478618751    -1.549387924819    -0.376888148185
H                    -6.061616869071    -2.723507348851    -1.566444115960
H                    -6.977058793007    -2.467401618248    -0.069053482535
H                    -2.144326061544    -3.801544453041    -5.562042302534
H                    -3.683492912664    -4.663035421530    -5.257324151982
H                    -3.664100001963    -2.941481088247    -5.711568890643
