18
0 1 BrC7H7N2S
C                     0.907120569963     1.448135093828     1.579466098177
C                     4.168738783823    -3.495479297774     1.826194565185
C                     4.600834027150    -3.305542779902     0.540632659006
C                     3.019470458248    -2.694161868967     2.109248735202
C                     2.590715804817    -1.918712865930     1.062020201215
C                     1.981488745674     0.448317138969     1.546823659059
C                     1.470108145606    -0.917771901777     1.019314420249
N                     0.023448487801     2.204813614984     1.573873282447
N                     1.004290433642    -0.754325476479    -0.361715304028
S                     3.621781345877    -2.163853176877    -0.322895599410
Br                    2.177992892490    -2.692884075340     3.823370636975
H                     4.629340956950    -4.168908194615     2.539746852914
H                     5.434981334934    -3.786025071896     0.045028884796
H                     2.783634686072     0.809369897254     0.896367609666
H                     2.383593854855     0.325306324402     2.555752627291
H                     0.687759142709    -1.263221870006     1.710509806926
H                     0.284204320809    -0.033504405293    -0.403703060313
H                     0.576029058039    -1.620592671469    -0.683611943867
