
  -OEChem-05262117483D

 18 18  0     1  0  0  0  0  0999 V2000
    2.7750    0.9218    0.7683 C   0  0  0  0  0  0  0  0  0  0  0  0
    3.8950   -3.7845    1.1445 C   0  0  0  0  0  0  0  0  0  0  0  0
    4.4768   -3.3835   -0.0297 C   0  0  0  0  0  0  0  0  0  0  0  0
    2.7118   -3.0322    1.4141 C   0  0  0  0  0  0  0  0  0  0  0  0
    2.4067   -2.0842    0.4693 C   0  0  0  0  0  0  0  0  0  0  0  0
    1.6269    0.1715    1.2920 C   0  0  0  0  0  0  0  0  0  0  0  0
    1.2778   -1.0908    0.4640 C   0  0  1  0  0  0  0  0  0  0  0  0
    3.6865    1.5253    0.3732 N   0  0  0  0  0  0  0  0  0  0  0  0
    0.9653   -0.7019   -0.9139 N   0  0  0  0  0  0  0  0  0  0  0  0
    3.6039   -2.0994   -0.7961 S   0  0  0  0  0  0  0  0  0  0  0  0
    1.6577   -3.3238    2.9817 Br  0  0  0  0  0  0  0  0  0  0  0  0
    4.2749   -4.5706    1.7867 H   0  0  0  0  0  0  0  0  0  0  0  0
    5.3753   -3.7750   -0.4899 H   0  0  0  0  0  0  0  0  0  0  0  0
    1.8432   -0.1259    2.3220 H   0  0  0  0  0  0  0  0  0  0  0  0
    0.7601    0.8423    1.3214 H   0  0  0  0  0  0  0  0  0  0  0  0
    0.4329   -1.5578    0.9924 H   0  0  0  0  0  0  0  0  0  0  0  0
    0.2303    0.0031   -0.9272 H   0  0  0  0  0  0  0  0  0  0  0  0
    0.6222   -1.5079   -1.4330 H   0  0  0  0  0  0  0  0  0  0  0  0
  1  6  1  0  0  0  0
  1  8  3  0  0  0  0
  2  3  2  0  0  0  0
  2  4  1  0  0  0  0
  2 12  1  0  0  0  0
  3 10  1  0  0  0  0
  3 13  1  0  0  0  0
  4  5  2  0  0  0  0
  4 11  1  0  0  0  0
  5  7  1  0  0  0  0
  5 10  1  0  0  0  0
  6  7  1  0  0  0  0
  6 14  1  0  0  0  0
  6 15  1  0  0  0  0
  7  9  1  0  0  0  0
  7 16  1  0  0  0  0
  9 17  1  0  0  0  0
  9 18  1  0  0  0  0
M  END
$$$$
