16   
torsion grid (-165,)
C       -0.1838058305    1.2888622521   -2.6926898144
C        0.3774670945    0.2270099694   -1.8382941174
C       -0.3403215955   -0.2870536067   -0.6128474092
C        0.0773626601    0.4746803666    0.6541170878
C       -0.3309690286   -0.2286851593    1.9370812366
O       -0.2013680421   -0.0874636212   -3.1182166403
F        0.3265766355   -1.4694829439    2.0358053943
H       -1.1618595046    1.7057444974   -2.4497112400
H        0.4780593748    1.9407944572   -3.2623928711
H        1.4645983525    0.1232978932   -1.8190853181
H       -1.4220335390   -0.2114007922   -0.7704675934
H       -0.1062284144   -1.3503835215   -0.4906172633
H        1.1662378269    0.6077452624    0.6727448295
H       -0.3616090241    1.4805343390    0.6575231899
H       -1.4069490093   -0.4341509116    1.9656631297
H       -0.0504619208    0.3532758642    2.8207902501
16   
torsion grid (-150,)
C       -0.0706935668    1.2680326147   -2.7448154630
C        0.3630807929    0.1942225622   -1.8331328510
C       -0.4504877181   -0.2274874884   -0.6320017879
C       -0.0333788633    0.5351559130    0.6397272884
C       -0.2335825092   -0.2659700224    1.9148806863
O       -0.1736984876   -0.1163440813   -3.1314651262
F        0.5922531074   -1.4061612761    1.8947487796
H       -1.0243301524    1.7655813798   -2.5649997080
H        0.6671790706    1.8486668110   -3.2979973955
H        1.4361413135    0.0078603083   -1.7514942750
H       -1.5149345831   -0.0838153994   -0.8447235599
H       -0.2955204315   -1.3014173836   -0.4792754187
H        1.0284904854    0.8058810002    0.5851240479
H       -0.5882352871    1.4771048156    0.7262672678
H       -1.2648460472   -0.6207734413    2.0209864163
H        0.0424372394    0.3138140930    2.8013957095
16   
torsion grid (-135,)
C        0.0196869692    1.2359065044   -2.7345606860
C        0.3279770606    0.1530745837   -1.7834837253
C       -0.5725671860   -0.1800481167   -0.6169043409
C       -0.1578279551    0.5745596758    0.6668511500
C       -0.1403561799   -0.3038864533    1.9054228449
O       -0.1679457810   -0.1454096106   -3.1005565045
F        0.8198615816   -1.3223801250    1.7499428914
H       -0.9014346402    1.8064497252   -2.6109416246
H        0.8247641809    1.7479443108   -3.2611454999
H        1.3786896444   -0.1100799778   -1.6441106561
H       -1.6094784419    0.0403892283   -0.8886356109
H       -0.5106847320   -1.2604385937   -0.4455683279
H        0.8470140188    0.9981049500    0.5489389050
H       -0.8266587464    1.4226687210    0.8540021320
H       -1.1041324888   -0.7973851659    2.0731200290
H        0.1361437652    0.2638559172    2.7996219287
16   
torsion grid (-120,)
C        0.1258482363    1.1998544284   -2.7204518849
C        0.3027691962    0.1128253704   -1.7415133736
C       -0.6837726444   -0.1290086308   -0.6226496073
C       -0.2801376310    0.6132076571    0.6753871224
C       -0.0497904055   -0.3125050355    1.8557614158
O       -0.1446519082   -0.1695726569   -3.0795756812
F        1.0077980689   -1.1976652064    1.5661626466
H       -0.7553033801    1.8389219968   -2.6533307300
H        0.9934854658    1.6424881776   -3.2092487839
H        1.3215761090   -0.2249615880   -1.5411958224
H       -1.6773226540    0.1812435968   -0.9602777913
H       -0.7346296542   -1.2079422829   -0.4396685736
H        0.6340230491    1.1964588411    0.5143645827
H       -1.0540348695    1.3337529370    0.9648400980
H       -0.9306154243   -0.9280499414    2.0687637152
H        0.2328001101    0.2409761096    2.7570866168
16   
torsion grid (-105,)
C        0.2304541564    1.1585877131   -2.6727899149
C        0.2769959535    0.0698977477   -1.6811329945
C       -0.7843341900   -0.0804042437   -0.6154547499
C       -0.3940033320    0.6368732187    0.6985161830
C        0.0456363644   -0.3109283097    1.7986860129
O       -0.1260542238   -0.1888280398   -3.0389268649
F        1.1783040992   -1.0401521117    1.3814758207
H       -0.6014268812    1.8636187448   -2.6518189131
H        1.1522285746    1.5301097450   -3.1199624912
H        1.2551995911   -0.3427348605   -1.4287465647
H       -1.7215001879    0.3232554770   -1.0116179029
H       -0.9537968152   -1.1473816659   -0.4317052133
H        0.4008437941    1.3690087072    0.5159309102
H       -1.2485552156    1.2023302792    1.0898764230
H       -0.7339961020   -1.0433645508    2.0340782340
H        0.3279293818    0.2255549279    2.7103722762
16   
torsion grid (-90,)
C        0.3344064791    1.1104722699   -2.6002572509
C        0.2284880037    0.0073189600   -1.6297683556
C       -0.8931581023   -0.0428574273   -0.6161330017
C       -0.5230114654    0.6423758944    0.7150226384
C        0.1156074666   -0.2861228210    1.7314370775
O       -0.1449868774   -0.1856703282   -3.0083466664
F        1.3235277728   -0.8130609400    1.2269113967
H       -0.4198189935    1.8984046004   -2.5977626831
H        1.3073847457    1.3909725143   -3.0028794245
H        1.1467929510   -0.5076191450   -1.3477912517
H       -1.7645281848    0.4496306468   -1.0605717056
H       -1.1784351341   -1.0869956828   -0.4396486077
H        0.1359397833    1.4996013083    0.5352243515
H       -1.4299467545    1.0404897056    1.1879494228
H       -0.5323208408   -1.1402897388    1.9555212103
H        0.3608892055    0.2379667582    2.6607934675
16   
torsion grid (-75,)
C        0.4379235059    1.0496125144   -2.5305323113
C        0.1795766304   -0.0575636324   -1.5941669374
C       -0.9730443556   -0.0043326913   -0.6152112808
C       -0.6071671098    0.6324964998    0.7366558049
C        0.2227211257   -0.2468896121    1.6549912857
O       -0.1782753678   -0.1696499856   -2.9876661194
F        1.4967201289   -0.4937246077    1.1016005399
H       -0.2191331085    1.9202727533   -2.5233487360
H        1.4477696493    1.2252550403   -2.9001442199
H        1.0258957972   -0.6804403203   -1.3099985372
H       -1.7805481253    0.5702201052   -1.0817723703
H       -1.3607432873   -1.0188700225   -0.4563713537
H       -0.0854431326    1.5841085487    0.5799575744
H       -1.5304312202    0.8664944078    1.2826540086
H       -0.2492310783   -1.2232921897    1.8106209751
H        0.3882852812    0.2339140757    2.6243663583
16   
torsion grid (-60,)
C        0.5431769960    0.9849518165   -2.4597663214
C        0.1304720069   -0.1098363552   -1.5670473621
C       -1.0449238296    0.0384507358   -0.6255480644
C       -0.6867962942    0.6137849630    0.7548212679
C        0.3122325834   -0.1969705107    1.5627450455
O       -0.1896683097   -0.1449277312   -2.9740120668
F        1.5949023562   -0.1422898040    0.9798315878
H       -0.0125436166    1.9233779335   -2.4472441311
H        1.5789753869    1.0555003411   -2.7898410987
H        0.8941078007   -0.8299913246   -1.2792589664
H       -1.7870952645    0.6851889396   -1.1056022467
H       -1.5197732049   -0.9436687285   -0.4999163356
H       -0.2969854004    1.6334675742    0.6492063074
H       -1.6022726993    0.6878698095    1.3557292115
H        0.0310342537   -1.2549713411    1.6155237941
H        0.4126821710    0.1995375440    2.5779781019
16   
torsion grid (-45,)
C        0.6233155187    0.8915043811   -2.4237045984
C        0.0903215803   -0.1574506887   -1.5420389551
C       -1.0998031577    0.0840569635   -0.6392413555
C       -0.7537189918    0.5807259450    0.7774352909
C        0.3848856510   -0.1441285096    1.4766062354
O       -0.1894947607   -0.1745136269   -2.9573839959
F        1.6201667632    0.1702961639    0.8764765421
H        0.1506328278    1.8742257792   -2.4297045578
H        1.6710697373    0.8699775316   -2.7207625913
H        0.7809151232   -0.9400706515   -1.2314255800
H       -1.7673863397    0.8024646797   -1.1256889670
H       -1.6588304611   -0.8582227171   -0.5646702004
H       -0.4927995954    1.6455409374    0.7477270018
H       -1.6432121503    0.4953917964    1.4136636119
H        0.2742083326   -1.2337187006    1.4297770209
H        0.4589267134    0.1622727473    2.5247054723
16   
torsion grid (-30,)
C        0.6764561821    0.8176479751   -2.3959885822
C        0.0439066481   -0.1846330351   -1.5279703451
C       -1.1436769069    0.1410382311   -0.6478849890
C       -0.8084672426    0.5352788197    0.8095142250
C        0.4453387867   -0.0813462427    1.4089043349
O       -0.2124568288   -0.1772214108   -2.9474154932
F        1.5989602140    0.4381908356    0.7911491405
H        0.2869187935    1.8359083537   -2.4055298325
H        1.7239381443    0.7100889922   -2.6743585337
H        0.6620672240   -1.0240091958   -1.2103386883
H       -1.7245281769    0.9372642025   -1.1228636740
H       -1.7892578795   -0.7467624546   -0.6408059156
H       -0.6885651590    1.6226438153    0.8812755391
H       -1.6516056946    0.2753510167    1.4603730577
H        0.4790243082   -1.1700326943    1.2875923697
H        0.5233565048    0.1589437252    2.4738955328
16   
torsion grid (-15,)
C        0.7291386945    0.7441927066   -2.3437162403
C       -0.0137068487   -0.2189064724   -1.5214351917
C       -1.1831810652    0.1902733021   -0.6512369668
C       -0.8554484156    0.4801434704    0.8390157752
C        0.4899398900   -0.0006229315    1.3591086695
O       -0.2408873349   -0.1411457811   -2.9435543040
F        1.5422151659    0.7103929728    0.7514058894
H        0.4400835755    1.7948410218   -2.3200662365
H        1.7665055243    0.5451122817   -2.6089446791
H        0.5121100497   -1.1271914016   -1.2249195472
H       -1.6564034692    1.0653936795   -1.1054363920
H       -1.9221413680   -0.6180798552   -0.7093962093
H       -0.8945981787    1.5595072272    1.0221316380
H       -1.6259892260    0.0358001083    1.4798191348
H        0.6664094987   -1.0636927293    1.1636405934
H        0.5693304789    0.1776923521    2.4362489453
16   
torsion grid (0,)
C       -1.2058772111    0.6343835987   -2.1110122394
C        0.1585817733    0.6203924655   -1.5683514241
C        0.6826916835   -0.5329954306   -0.7391745244
C        0.4697534357   -0.4157307715    0.7979818926
C       -0.2349036318    0.8300142486    1.3098472031
O       -0.0794519629    0.3341782502   -2.9618647457
F       -1.5886046552    0.8380239807    0.9170850192
H       -1.8642754008   -0.2074235122   -1.9004940460
H       -1.7010909818    1.5831124731   -2.3130645923
H        0.6446381058    1.5854976018   -1.4142756212
H        0.2001509980   -1.4416605207   -1.1105552607
H        1.7505331516   -0.6467422679   -0.9560797174
H       -0.0894093793   -1.2822979623    1.1647271794
H        1.4408884617   -0.4469057969    1.3070992229
H        0.2123117337    1.7556150044    0.9349818030
H       -0.2264939899    0.8504202637    2.4043311138
16   
torsion grid (15,)
C       -1.1643700536    0.7347962656   -2.0712360100
C        0.2143365245    0.6038310497   -1.5777176914
C        0.6553079218   -0.5735921547   -0.7350546999
C        0.5237650031   -0.3806738237    0.8003974648
C       -0.3354199487    0.7798874610    1.2719927759
O       -0.1038564993    0.3103833048   -2.9526020754
F       -1.6915222301    0.5650357772    0.9477682326
H       -1.8895571225   -0.0350271762   -1.8131867967
H       -1.5749366006    1.7214667439   -2.2827792726
H        0.7952950799    1.5221729653   -1.4666630961
H        0.0504457809   -1.4291833740   -1.0506139346
H        1.6913599579   -0.8217181310   -0.9890833358
H        0.1491400400   -1.2997772042    1.2613787722
H        1.5167150633   -0.2070035677    1.2355615126
H       -0.0459201727    1.7300987090    0.8144853634
H       -0.2856596163    0.8783897506    2.3610768671
16   
torsion grid (30,)
C       -1.1227981565    0.8104698291   -2.0589468112
C        0.2487527392    0.5768160292   -1.5789620516
C        0.6046371506   -0.6126054535   -0.7148303830
C        0.5761032963   -0.3376288190    0.8066150854
C       -0.4112892972    0.7193687496    1.2687176293
O       -0.1123967104    0.2824224488   -2.9421989648
F       -1.7355264479    0.3183600533    0.9936642536
H       -1.9050541830    0.1088648176   -1.7749070116
H       -1.4528663773    1.8231884365   -2.2892640482
H        0.9036386368    1.4475955183   -1.4922769083
H       -0.1057906473   -1.4092016161   -0.9573969347
H        1.5951403801   -0.9826594208   -1.0013859546
H        0.3867056661   -1.2703140088    1.3473930617
H        1.5632576542    0.0136397807    1.1373809152
H       -0.2590101091    1.6777251991    0.7643552156
H       -0.3452895746    0.8691814850    2.3510580291
16   
torsion grid (45,)
C       -1.0571905278    0.8999722854   -2.0710052411
C        0.2992899195    0.5611782182   -1.6067508509
C        0.5694751930   -0.6260032203   -0.7101960606
C        0.6407192575   -0.2723761835    0.7872111889
C       -0.4597386935    0.6540417171    1.2750798211
O       -0.1129183256    0.2620327588   -2.9536276949
F       -1.7257568999    0.0720815986    1.0563989634
H       -1.8912509870    0.2763046840   -1.7530810975
H       -1.3028602171    1.9305173331   -2.3272818271
H        1.0272432994    1.3750696596   -1.5527868724
H       -0.2238132734   -1.3610504164   -0.8781556373
H        1.5092653753   -1.1004086952   -1.0149855919
H        0.6320174040   -1.1930617880    1.3800451689
H        1.5917063534    0.2318585027    1.0090595163
H       -0.4560904400    1.6110533209    0.7454390988
H       -0.3754328579    0.8377522587    2.3508393095
16   
torsion grid (60,)
C       -0.9970714458    0.9815778885   -2.1047365787
C        0.3314051129    0.5335037583   -1.6482774821
C        0.5054524342   -0.6309419836   -0.7003580160
C        0.6585370034   -0.1971731909    0.7662980209
C       -0.5302558167    0.5804444598    1.3076196686
O       -0.1361477129    0.2204100342   -2.9732125541
F       -1.7066244503   -0.1868237970    1.1887196879
H       -1.8809310736    0.4523247091   -1.7496920456
H       -1.1503187000    2.0188508052   -2.4025864800
H        1.1345431283    1.2749784255   -1.6391060050
H       -0.3532084258   -1.3009810030   -0.8026090181
H        1.3928566127   -1.2004516154   -1.0007533920
H        0.8190222854   -1.0830599696    1.3904780775
H        1.5473946148    0.4371590618    0.8867350392
H       -0.7010748394    1.5083011880    0.7534205940
H       -0.4054605584    0.8131079892    2.3698095929
16   
torsion grid (75,)
C       -0.9152813663    1.0591666078   -2.1646242674
C        0.3671546213    0.4997964505   -1.6960915218
C        0.4415356060   -0.6253883058   -0.6896801671
C        0.6615604469   -0.1219363255    0.7463556920
C       -0.5795696187    0.4898878507    1.3761444344
O       -0.1478791483    0.1720270920   -2.9993194324
F       -1.6147577889   -0.4639583261    1.4263344480
H       -1.8463087285    0.6396341214   -1.7830742744
H       -0.9672548870    2.0906007420   -2.5131427279
H        1.2407167200    1.1554514332   -1.7316561622
H       -0.4706425011   -1.2265955573   -0.7434275269
H        1.2726457753   -1.2825264346   -0.9718897280
H        0.9933467949   -0.9530510087    1.3783621631
H        1.4613879878    0.6303573433    0.7736467472
H       -0.9584548552    1.3388297944    0.7980118069
H       -0.3891308429    0.8112619069    2.4049420753
16   
torsion grid (90,)
C       -0.8147863700    1.1351892166   -2.2239682160
C        0.4060499877    0.4620015346   -1.7401742060
C        0.3761942169   -0.6100476119   -0.6752853246
C        0.6454254844   -0.0411881431    0.7316927683
C       -0.6165930472    0.3940108728    1.4579451556
O       -0.1601756603    0.1299747602   -3.0202279172
F       -1.4568246334   -0.7166034018    1.6646122830
H       -1.7818798632    0.8382160667   -1.8174869118
H       -0.7601803302    2.1480756895   -2.6226827545
H        1.3443919020    1.0167110113   -1.8161932164
H       -0.5842941922   -1.1327850587   -0.6997048526
H        1.1429959299   -1.3530521569   -0.9229163139
H        1.1445372538   -0.7941694988    1.3510876923
H        1.3259557860    0.8188767299    0.6800595825
H       -1.1922313237    1.1252040660    0.8800596963
H       -0.3893305544    0.8123049522    2.4435895751
16   
torsion grid (105,)
C       -0.7447268686    1.1925639433   -2.2796271703
C        0.4108981135    0.4227583718   -1.7816110306
C        0.2884215827   -0.5940527386   -0.6704652716
C        0.5988127299    0.0226672582    0.7130020228
C       -0.6431633048    0.2611381953    1.5537739202
O       -0.2008964870    0.0976669780   -3.0416555672
F       -1.2735582726   -0.9656173905    1.8351973512
H       -1.7312247769    1.0074823777   -1.8536876285
H       -0.5978062560    2.1788753960   -2.7193335694
H        1.3972829313    0.8808652680   -1.8868639757
H       -0.7139103184   -1.0320692421   -0.6823825276
H        0.9834626907   -1.4143431495   -0.8796360740
H        1.2693118213   -0.6292618248    1.2824537415
H        1.1210267041    0.9820735952    0.6031518984
H       -1.3774874332    0.8837470242    1.0302152115
H       -0.3977038629    0.7237347527    2.5150843903
16   
torsion grid (120,)
C       -0.6575909828    1.2310956009   -2.3592016324
C        0.4240315775    0.3901345227   -1.8142958780
C        0.2000038550   -0.5587225290   -0.6599713594
C        0.5452816766    0.0960413404    0.7001910765
C       -0.6328535886    0.1504565059    1.6552982932
O       -0.2018567055    0.0610413056   -3.0662966723
F       -1.0636717845   -1.1533416089    1.9654315141
H       -1.6593931140    1.1490470819   -1.9364397627
H       -0.4244044093    2.1809354300   -2.8400027325
H        1.4463389923    0.7591222668   -1.9269528272
H       -0.8416861039   -0.8940546290   -0.6741041905
H        0.8082632131   -1.4550987696   -0.8170283986
H        1.3661016563   -0.4353053805    1.1923562413
H        0.8903176430    1.1282443637    0.5536948164
H       -1.4887221498    0.6719063482    1.2117000285
H       -0.3654372666    0.6335336554    2.6007361087
16   
torsion grid (135,)
C       -0.5558747619    1.2573133313   -2.4404007109
C        0.4440758895    0.3626155350   -1.8302936407
C        0.1138023268   -0.5127596359   -0.6440820940
C        0.4796430646    0.1699991632    0.6942907029
C       -0.6037536787    0.0439147921    1.7487579102
O       -0.1740924653    0.0262426070   -3.0848324746
F       -0.8328471035   -1.3115247689    2.0521010308
H       -1.5709869965    1.2703790870   -2.0421391957
H       -0.2385634426    2.1647606840   -2.9538343122
H        1.4940144564    0.6482152908   -1.9305111682
H       -0.9563352782   -0.7437636656   -0.6761267322
H        0.6339313956   -1.4706408630   -0.7407310674
H        1.4189157010   -0.2265793303    1.0932112977
H        0.6387087387    1.2458358163    0.5382662261
H       -1.5553440525    0.4571702578    1.3957506193
H       -0.3186214298    0.5381601684    2.6833066399
16   
torsion grid (150,)
C       -0.4607754892    1.2924339602   -2.5048517540
C        0.4444856949    0.3442162604   -1.8317409562
C        0.0128478776   -0.4461429932   -0.6188241747
C        0.4014474477    0.2615177741    0.6940248337
C       -0.5512088159   -0.0298895164    1.8381697714
O       -0.1739954089    0.0055317646   -3.0862427690
F       -0.5655071524   -1.4083462170    2.1241192657
H       -1.4788160318    1.4103871106   -2.1319486066
H       -0.0553711930    2.1455745546   -3.0485024800
H        1.5170501171    0.5337204404   -1.9184803560
H       -1.0740540244   -0.5784135200   -0.6695672526
H        0.4476616895   -1.4497827241   -0.6547542225
H        1.4228372957    0.0001980763    0.9913918661
H        0.3869348051    1.3506763047    0.5479333995
H       -1.5785183841    0.2539894239    1.5838138340
H       -0.2496641940    0.4850063920    2.7562959732
16   
torsion grid (165,)
C       -0.3754604334    1.2850092229   -2.5989187607
C        0.4245563625    0.2972220431   -1.8533659734
C       -0.1070827552   -0.3962775081   -0.6212713124
C        0.2989599881    0.3383735460    0.6658531059
C       -0.4961880176   -0.0997598210    1.8819578732
O       -0.1843987577   -0.0481687578   -3.1109911435
F       -0.2838783953   -1.4677061944    2.1385613479
H       -1.3901388062    1.5072536711   -2.2665482327
H        0.1180062058    2.0733824374   -3.1669477494
H        1.5115043347    0.3903552954   -1.9127632630
H       -1.1999366625   -0.4434606522   -0.6981426791
H        0.2516287644   -1.4301562875   -0.5937162613
H        1.3689288226    0.2078112403    0.8646479709
H        0.1293090394    1.4175015860    0.5460490259
H       -1.5725569383    0.0323676427    1.7253703095
H       -0.1911478839    0.4457940644    2.7809164509
16   
torsion grid (180,)
C       -0.2838096393    1.2915685385   -2.6561535253
C        0.3994029028    0.2593429299   -1.8565564357
C       -0.2261263811   -0.3437000480   -0.6211791191
C        0.1883010640    0.4072049434    0.6513665147
C       -0.4235469464   -0.1735537365    1.9138470550
O       -0.2030931651   -0.0693494619   -3.1219574310
F        0.0293948362   -1.4918189848    2.1113428852
H       -1.2826214166    1.6171437907   -2.3630746275
H        0.2968929902    2.0122467847   -3.2315754689
H        1.4914090153    0.2487138076   -1.8837290187
H       -1.3165701244   -0.3257380801   -0.7340903750
H        0.0698857407   -1.3951714031   -0.5415463470
H        1.2799741229    0.4061036516    0.7568515621
H       -0.1218530754    1.4587082450    0.5847840145
H       -1.5165812291   -0.2176008917    1.8503326291
H       -0.1356006336    0.4001904984    2.8006633812
