
  -OEChem-05262117483D

 28 29  0     0  0  0  0  0  0999 V2000
    2.2356   -1.0130    0.0568 C   0  0  0  0  0  0  0  0  0  0  0  0
    1.2125   -0.4353    0.8130 C   0  0  0  0  0  0  0  0  0  0  0  0
    3.3085   -1.7206    2.0831 C   0  0  0  0  0  0  0  0  0  0  0  0
    3.3035   -1.6666    0.6828 C   0  0  0  0  0  0  0  0  0  0  0  0
    1.2160   -0.4863    2.2126 C   0  0  0  0  0  0  0  0  0  0  0  0
    2.2887   -1.1461    2.8542 C   0  0  0  0  0  0  0  0  0  0  0  0
    2.8029    0.1048    5.0480 C   0  0  0  0  0  0  0  0  0  0  0  0
    5.1755   -1.5396   -1.1433 C   0  0  0  0  0  0  0  0  0  0  0  0
    5.8438   -2.0004    0.1360 C   0  0  0  0  0  0  0  0  0  0  0  0
    4.3868   -2.3242   -0.1169 C   0  0  0  0  0  0  0  0  0  0  0  0
    0.1041    0.1577    3.0076 C   0  0  0  0  0  0  0  0  0  0  0  0
    2.3696   -1.1992    4.3628 C   0  0  0  0  0  0  0  0  0  0  0  0
    2.6213    0.3224    6.2237 O   0  0  0  0  0  0  0  0  0  0  0  0
    3.4456    1.0119    4.2652 O   0  0  0  0  0  0  0  0  0  0  0  0
    2.2085   -0.9527   -1.0285 H   0  0  0  0  0  0  0  0  0  0  0  0
    0.3946    0.0711    0.3054 H   0  0  0  0  0  0  0  0  0  0  0  0
    4.1339   -2.2230    2.5844 H   0  0  0  0  0  0  0  0  0  0  0  0
    4.9574   -0.4797   -1.2390 H   0  0  0  0  0  0  0  0  0  0  0  0
    5.4437   -2.0330   -2.0728 H   0  0  0  0  0  0  0  0  0  0  0  0
    6.5680   -2.8076    0.0792 H   0  0  0  0  0  0  0  0  0  0  0  0
    6.0676   -1.2435    0.8825 H   0  0  0  0  0  0  0  0  0  0  0  0
    4.1795   -3.3600   -0.3814 H   0  0  0  0  0  0  0  0  0  0  0  0
   -0.4268   -0.5763    3.6246 H   0  0  0  0  0  0  0  0  0  0  0  0
    0.4812    0.9312    3.6857 H   0  0  0  0  0  0  0  0  0  0  0  0
   -0.6278    0.6263    2.3452 H   0  0  0  0  0  0  0  0  0  0  0  0
    3.0968   -1.9554    4.6770 H   0  0  0  0  0  0  0  0  0  0  0  0
    1.4179   -1.4788    4.8202 H   0  0  0  0  0  0  0  0  0  0  0  0
    3.4689    0.6792    3.3475 H   0  0  0  0  0  0  0  0  0  0  0  0
  1  2  1  0  0  0  0
  1  4  2  0  0  0  0
  1 15  1  0  0  0  0
  2  5  2  0  0  0  0
  2 16  1  0  0  0  0
  3  4  1  0  0  0  0
  3  6  2  0  0  0  0
  3 17  1  0  0  0  0
  4 10  1  0  0  0  0
  5  6  1  0  0  0  0
  5 11  1  0  0  0  0
  6 12  1  0  0  0  0
  7 12  1  0  0  0  0
  7 13  2  0  0  0  0
  7 14  1  0  0  0  0
  8  9  1  0  0  0  0
  8 10  1  0  0  0  0
  8 18  1  0  0  0  0
  8 19  1  0  0  0  0
  9 10  1  0  0  0  0
  9 20  1  0  0  0  0
  9 21  1  0  0  0  0
 10 22  1  0  0  0  0
 11 23  1  0  0  0  0
 11 24  1  0  0  0  0
 11 25  1  0  0  0  0
 12 26  1  0  0  0  0
 12 27  1  0  0  0  0
 14 28  1  0  0  0  0
M  END
$$$$
