46
0 1 C17H25NO3
C                    -3.520417885099     3.091142971093    -3.532280868680
C                    -2.284401359458     3.655543227634    -3.202465007216
C                    -3.695537414612     1.707249011662    -3.426735495034
C                    -1.235443389679     2.841932874638    -2.764951878270
C                    -2.643458357644     0.898548306617    -2.988942992272
C                    -1.400778115061     1.453607717539    -2.647857275502
C                    -0.340844274375     1.685018160623     0.149692807963
C                    -1.502083308137    -0.538464238967    -0.143077314939
C                    -0.922475593958    -1.148733099869     1.128017722401
C                    -0.343684379049     0.341392136833    -0.612650735153
C                     2.131846766432     4.357842614895     0.000960779435
C                     1.065661178554    -2.287457326099     2.952953369710
C                     2.844248548820    -1.679480601577     1.291160050724
C                     1.572868618345     0.143863312433     2.467161694592
C                    -0.276066654830     0.582103832498    -2.133223817829
C                     0.862440312405     3.697993998102     0.505894836887
C                     1.479536940477    -1.275011303247     1.871697910269
N                     0.485231964382    -1.407095776567     0.773468731955
O                    -1.178496444537     2.036602774419     0.958652878634
O                     0.832709676181    -0.395866342705    -0.254033276850
O                     0.737416946946     2.424238675798    -0.176784458605
H                    -4.337174540578     3.721763003248    -3.873888274803
H                    -2.135942947300     4.729094930534    -3.289482341519
H                    -4.649982593574     1.257888673907    -3.689472509309
H                    -0.275078262928     3.284697589973    -2.513655315449
H                    -2.787079793758    -0.177228099611    -2.917689937035
H                    -1.688613988562    -1.314087722314    -0.890370878263
H                    -2.415618183240     0.026361047418     0.037148674114
H                    -1.044638746010    -0.449968817462     1.963917945570
H                    -1.397252170264    -2.097793546162     1.388083936959
H                     3.005598516888     3.734442152717     0.211847655915
H                     2.082502108101     4.528965951575    -1.078727548155
H                     2.268184104700     5.324412725448     0.496615973795
H                     0.139222682301    -1.995604960526     3.456901654687
H                     0.926796685724    -3.281565734028     2.516448318059
H                     1.850145332119    -2.352778992735     3.712915440749
H                     3.141288211043    -0.995140620996     0.493009451184
H                     2.794599354296    -2.690367467280     0.875494796686
H                     3.611878498185    -1.657158351050     2.072077137131
H                     1.902201737900     0.855311676240     1.706195530963
H                     0.619271424697     0.488976443492     2.877181739064
H                     2.303822141923     0.154477585967     3.282372729274
H                    -0.292485213891    -0.402559529527    -2.609353521429
H                     0.691574155849     1.038415632596    -2.353708032122
H                    -0.029167898595     4.295061533339     0.293449380061
H                     0.894411246810     3.512954883021     1.583306527699
