27
0 1 C12H10O4S
C                     1.815695498822    -1.069373843530    -0.102533355172
C                     0.459616157230     3.053862986946     5.804235652054
C                     2.978635456308    -1.353731773899     0.620654900305
C                    -0.308571661335     1.937264861125     6.149771500452
C                     0.619994995156    -0.779626285604     0.557706810422
C                     1.613481535194     2.912301759424     5.030849990337
C                     2.935254053630    -1.349340915410     2.015360511078
C                     0.089938583010     0.672087083356     5.716644155186
C                     0.570181782156    -0.781779137250     1.957712231503
C                     2.021311484528     1.643009967515     4.600632918642
C                     1.738998914038    -1.075424249378     2.679078662139
C                     1.250585917273     0.524111254354     4.956681449134
O                     0.672775347111    -2.045855321529     4.927799597280
O                     3.125910559430    -1.377349884163     4.897991341342
O                    -0.568285470330    -0.487241123248     2.650136473499
O                     3.130037062152     1.453371095949     3.827924106329
S                     1.738309195045    -1.140087735982     4.477161190726
H                     1.835684834573    -1.067241613920    -1.189150364027
H                     0.159703401426     4.045383427267     6.132982591428
H                     3.908414071489    -1.573137773750     0.104659081195
H                    -1.208470216522     2.050972682119     6.746540251652
H                    -0.280010512037    -0.552717791181    -0.011585975187
H                     2.203172705247     3.786661603287     4.760000726465
H                     3.819014339050    -1.550227289836     2.612352278722
H                    -0.486730964667    -0.216884052392     5.951049429068
H                    -1.289285324036    -0.314971117762     2.023963794792
H                     3.561645658240     2.308111308427     3.670621883539
