
  -OEChem-05262117483D

 46 47  0     1  0  0  0  0  0999 V2000
   -3.8527    3.3527   -3.2357 C   0  0  0  0  0  0  0  0  0  0  0  0
   -2.5793    3.8948   -3.0335 C   0  0  0  0  0  0  0  0  0  0  0  0
   -4.0358    1.9690   -3.1374 C   0  0  0  0  0  0  0  0  0  0  0  0
   -1.5015    3.0595   -2.7263 C   0  0  0  0  0  0  0  0  0  0  0  0
   -2.9549    1.1388   -2.8291 C   0  0  0  0  0  0  0  0  0  0  0  0
   -1.6762    1.6723   -2.6118 C   0  0  0  0  0  0  0  0  0  0  0  0
   -0.5010    1.8940    0.0304 C   0  0  0  0  0  0  0  0  0  0  0  0
   -1.5682   -0.4432   -0.1536 C   0  0  0  0  0  0  0  0  0  0  0  0
   -0.8782   -1.0041    1.0834 C   0  0  0  0  0  0  0  0  0  0  0  0
   -0.4905    0.5157   -0.6685 C   0  0  1  0  0  0  0  0  0  0  0  0
   -3.4030    3.8776    0.9167 C   0  0  0  0  0  0  0  0  0  0  0  0
    1.2905   -2.2102    2.6719 C   0  0  0  0  0  0  0  0  0  0  0  0
    2.9000   -1.4287    0.9125 C   0  0  0  0  0  0  0  0  0  0  0  0
    1.6742    0.2647    2.3111 C   0  0  0  0  0  0  0  0  0  0  0  0
   -0.5239    0.7876   -2.1922 C   0  0  0  0  0  0  0  0  0  0  0  0
   -1.9102    3.6070    0.9007 C   0  0  0  0  0  0  0  0  0  0  0  0
    1.5784   -1.1142    1.6317 C   0  0  0  0  0  0  0  0  0  0  0  0
    0.4983   -1.2176    0.6145 N   0  0  2  0  0  0  0  0  0  0  0  0
    0.4699    2.6204    0.1004 O   0  0  0  0  0  0  0  0  0  0  0  0
    0.7381   -0.1533   -0.3937 O   0  0  0  0  0  0  0  0  0  0  0  0
   -1.7306    2.2333    0.4666 O   0  0  0  0  0  0  0  0  0  0  0  0
   -4.6921    4.0001   -3.4762 H   0  0  0  0  0  0  0  0  0  0  0  0
   -2.4244    4.9677   -3.1176 H   0  0  0  0  0  0  0  0  0  0  0  0
   -5.0197    1.5373   -3.3035 H   0  0  0  0  0  0  0  0  0  0  0  0
   -0.5155    3.4875   -2.5619 H   0  0  0  0  0  0  0  0  0  0  0  0
   -3.1067    0.0643   -2.7549 H   0  0  0  0  0  0  0  0  0  0  0  0
   -1.7210   -1.2369   -0.8904 H   0  0  0  0  0  0  0  0  0  0  0  0
   -2.5169    0.0441    0.0602 H   0  0  0  0  0  0  0  0  0  0  0  0
   -0.9584   -0.2904    1.9164 H   0  0  0  0  0  0  0  0  0  0  0  0
   -1.2964   -1.9617    1.4020 H   0  0  0  0  0  0  0  0  0  0  0  0
   -3.8233    3.7416   -0.0839 H   0  0  0  0  0  0  0  0  0  0  0  0
   -3.9185    3.2043    1.6083 H   0  0  0  0  0  0  0  0  0  0  0  0
   -3.5886    4.9082    1.2370 H   0  0  0  0  0  0  0  0  0  0  0  0
    0.3981   -1.9884    3.2658 H   0  0  0  0  0  0  0  0  0  0  0  0
    1.1524   -3.1803    2.1839 H   0  0  0  0  0  0  0  0  0  0  0  0
    2.1354   -2.2898    3.3626 H   0  0  0  0  0  0  0  0  0  0  0  0
    3.1130   -0.6749    0.1513 H   0  0  0  0  0  0  0  0  0  0  0  0
    2.8424   -2.4060    0.4235 H   0  0  0  0  0  0  0  0  0  0  0  0
    3.7277   -1.4417    1.6294 H   0  0  0  0  0  0  0  0  0  0  0  0
    1.8536    1.0495    1.5741 H   0  0  0  0  0  0  0  0  0  0  0  0
    0.7663    0.5153    2.8701 H   0  0  0  0  0  0  0  0  0  0  0  0
    2.5028    0.2644    3.0271 H   0  0  0  0  0  0  0  0  0  0  0  0
   -0.5644   -0.1859   -2.6895 H   0  0  0  0  0  0  0  0  0  0  0  0
    0.4297    1.2543   -2.4527 H   0  0  0  0  0  0  0  0  0  0  0  0
   -1.4520    3.7205    1.8879 H   0  0  0  0  0  0  0  0  0  0  0  0
   -1.3829    4.2613    0.2030 H   0  0  0  0  0  0  0  0  0  0  0  0
  1  2  1  0  0  0  0
  1  3  2  0  0  0  0
  1 22  1  0  0  0  0
  2  4  2  0  0  0  0
  2 23  1  0  0  0  0
  3  5  1  0  0  0  0
  3 24  1  0  0  0  0
  4  6  1  0  0  0  0
  4 25  1  0  0  0  0
  5  6  2  0  0  0  0
  5 26  1  0  0  0  0
  6 15  1  0  0  0  0
  7 10  1  0  0  0  0
  7 19  2  0  0  0  0
  7 21  1  0  0  0  0
  8  9  1  0  0  0  0
  8 10  1  0  0  0  0
  8 27  1  0  0  0  0
  8 28  1  0  0  0  0
  9 18  1  0  0  0  0
  9 29  1  0  0  0  0
  9 30  1  0  0  0  0
 10 15  1  0  0  0  0
 10 20  1  0  0  0  0
 11 16  1  0  0  0  0
 11 31  1  0  0  0  0
 11 32  1  0  0  0  0
 11 33  1  0  0  0  0
 12 17  1  0  0  0  0
 12 34  1  0  0  0  0
 12 35  1  0  0  0  0
 12 36  1  0  0  0  0
 13 17  1  0  0  0  0
 13 37  1  0  0  0  0
 13 38  1  0  0  0  0
 13 39  1  0  0  0  0
 14 17  1  0  0  0  0
 14 40  1  0  0  0  0
 14 41  1  0  0  0  0
 14 42  1  0  0  0  0
 15 43  1  0  0  0  0
 15 44  1  0  0  0  0
 16 21  1  0  0  0  0
 16 45  1  0  0  0  0
 16 46  1  0  0  0  0
 17 18  1  0  0  0  0
 18 20  1  0  0  0  0
M  END
$$$$
