32
0 1 C13F3H13O2S
C                     1.205695946786     1.002787702658    -1.874660080249
C                    -0.041395061933     0.570497806786    -2.336954181088
C                     1.510233023480     0.918344577355    -0.517307538288
C                    -0.961682349372     0.023913713946    -1.441045537400
C                     0.595002696344     0.391852247807     0.411910768187
C                    -0.648832263830    -0.082395405293    -0.080647263086
C                     0.272354032188    -0.494453051906     2.683992760470
C                     0.887881935587     0.382482540863     1.861538602134
C                    -0.698657145188    -1.531293233986     2.193040438067
C                     1.848783939077     1.392267458525     2.458493412041
C                    -0.124817843614     3.075392000834     2.404425915898
C                     1.411404379750     2.872751970175     2.356466490043
C                     2.111699534785     3.669316953704     3.479798242408
O                    -0.775778616938     2.489303220518     3.517271037564
O                     1.900268695883     3.391006619252     1.120854377502
F                     3.456160970637     3.512547781701     3.436489416384
F                     1.865855740945     5.002654222029     3.336243736627
F                     1.705636153609     3.315920077298     4.714715476478
S                    -1.872047315398    -0.769625529545     1.012735890253
H                     1.935005115683     1.414597440331    -2.566574147788
H                    -0.293003902809     0.641929252953    -3.391851598838
H                     2.468365625664     1.285418779619    -0.170352759410
H                    -1.920240955086    -0.342534910895    -1.798522031427
H                     0.488719342744    -0.473544519465     3.750652014870
H                    -0.189831846619    -2.367010266589     1.698248141234
H                    -1.300605890393    -1.934244412859     3.010306929329
H                     1.978703178004     1.144970147182     3.513469005140
H                     2.838149400459     1.322340558421     1.997914242248
H                    -0.514224403689     2.694234932465     1.453632430114
H                    -0.339293277138     4.148146530017     2.446983945295
H                    -0.902669914449     1.547414882298     3.313585807829
H                     1.577204881622     4.301691589320     1.013086417237
