
  -OEChem-05262117483D

 27 28  0     0  0  0  0  0  0999 V2000
    1.9154   -0.4115    0.0362 C   0  0  0  0  0  0  0  0  0  0  0  0
    0.4285    3.5144    5.9015 C   0  0  0  0  0  0  0  0  0  0  0  0
    0.6667   -0.3902    0.6681 C   0  0  0  0  0  0  0  0  0  0  0  0
   -0.4546    2.4533    6.1245 C   0  0  0  0  0  0  0  0  0  0  0  0
    3.0819   -0.5483    0.7846 C   0  0  0  0  0  0  0  0  0  0  0  0
    1.6477    3.3003    5.2556 C   0  0  0  0  0  0  0  0  0  0  0  0
    0.6090   -0.5067    2.0547 C   0  0  0  0  0  0  0  0  0  0  0  0
   -0.1056    1.1702    5.6991 C   0  0  0  0  0  0  0  0  0  0  0  0
    3.0350   -0.6602    2.1854 C   0  0  0  0  0  0  0  0  0  0  0  0
    2.0034    2.0134    4.8328 C   0  0  0  0  0  0  0  0  0  0  0  0
    1.7771   -0.6311    2.8171 C   0  0  0  0  0  0  0  0  0  0  0  0
    1.1170    0.9486    5.0619 C   0  0  0  0  0  0  0  0  0  0  0  0
    0.2866   -1.5161    4.7986 O   0  0  0  0  0  0  0  0  0  0  0  0
    2.7611   -1.1600    5.2766 O   0  0  0  0  0  0  0  0  0  0  0  0
    4.1704   -0.8032    2.9167 O   0  0  0  0  0  0  0  0  0  0  0  0
    3.1715    1.7505    4.1807 O   0  0  0  0  0  0  0  0  0  0  0  0
    1.5302   -0.7503    4.6021 S   0  0  0  0  0  0  0  0  0  0  0  0
    1.9831   -0.3279   -1.0453 H   0  0  0  0  0  0  0  0  0  0  0  0
    0.1681    4.5184    6.2258 H   0  0  0  0  0  0  0  0  0  0  0  0
   -0.2466   -0.2949    0.0891 H   0  0  0  0  0  0  0  0  0  0  0  0
   -1.4036    2.6218    6.6242 H   0  0  0  0  0  0  0  0  0  0  0  0
    4.0493   -0.5742    0.2848 H   0  0  0  0  0  0  0  0  0  0  0  0
    2.3275    4.1318    5.0766 H   0  0  0  0  0  0  0  0  0  0  0  0
   -0.3481   -0.5154    2.5667 H   0  0  0  0  0  0  0  0  0  0  0  0
   -0.7674    0.3237    5.8531 H   0  0  0  0  0  0  0  0  0  0  0  0
    4.9264   -0.8427    2.3093 H   0  0  0  0  0  0  0  0  0  0  0  0
    3.7076    2.5580    4.1381 H   0  0  0  0  0  0  0  0  0  0  0  0
  1  3  1  0  0  0  0
  1  5  2  0  0  0  0
  1 18  1  0  0  0  0
  2  4  1  0  0  0  0
  2  6  2  0  0  0  0
  2 19  1  0  0  0  0
  3  7  2  0  0  0  0
  3 20  1  0  0  0  0
  4  8  2  0  0  0  0
  4 21  1  0  0  0  0
  5  9  1  0  0  0  0
  5 22  1  0  0  0  0
  6 10  1  0  0  0  0
  6 23  1  0  0  0  0
  7 11  1  0  0  0  0
  7 24  1  0  0  0  0
  8 12  1  0  0  0  0
  8 25  1  0  0  0  0
  9 11  2  0  0  0  0
  9 15  1  0  0  0  0
 10 12  2  0  0  0  0
 10 16  1  0  0  0  0
 11 17  1  0  0  0  0
 12 17  1  0  0  0  0
 13 17  2  0  0  0  0
 14 17  2  0  0  0  0
 15 26  1  0  0  0  0
 16 27  1  0  0  0  0
M  END
$$$$
