
  -OEChem-05262117483D

 30 32  0     0  0  0  0  0  0999 V2000
    5.6188    5.1058   -3.0642 C   0  0  0  0  0  0  0  0  0  0  0  0
    5.6773    5.8539   -1.8815 C   0  0  0  0  0  0  0  0  0  0  0  0
    4.5570    4.2203   -3.2719 C   0  0  0  0  0  0  0  0  0  0  0  0
    0.2834    1.0484   -0.1241 C   0  0  0  0  0  0  0  0  0  0  0  0
    4.6811    5.7178   -0.9157 C   0  0  0  0  0  0  0  0  0  0  0  0
    3.5639    4.0757   -2.3006 C   0  0  0  0  0  0  0  0  0  0  0  0
   -0.3832    2.2690   -0.0780 C   0  0  0  0  0  0  0  0  0  0  0  0
    1.6808    0.9995   -0.0644 C   0  0  0  0  0  0  0  0  0  0  0  0
    3.6171    4.8225   -1.1132 C   0  0  0  0  0  0  0  0  0  0  0  0
    1.7532    3.4584   -0.0104 C   0  0  0  0  0  0  0  0  0  0  0  0
    0.3393    3.4719    0.0029 C   0  0  0  0  0  0  0  0  0  0  0  0
    2.3730    2.1991   -0.0063 C   0  0  0  0  0  0  0  0  0  0  0  0
    2.5405    4.7221   -0.0893 C   0  0  0  0  0  0  0  0  0  0  0  0
   -0.1249    5.7389    0.9363 C   0  0  0  0  0  0  0  0  0  0  0  0
    1.2359    5.6884    1.6238 C   0  0  0  0  0  0  0  0  0  0  0  0
    2.3033    5.7563    0.6383 N   0  0  0  0  0  0  0  0  0  0  0  0
   -0.3715    4.6837    0.0588 N   0  0  0  0  0  0  0  0  0  0  0  0
   -0.9538    6.6174    1.1084 O   0  0  0  0  0  0  0  0  0  0  0  0
    3.7230    2.1482    0.0626 F   0  0  0  0  0  0  0  0  0  0  0  0
    6.3953    5.2129   -3.8173 H   0  0  0  0  0  0  0  0  0  0  0  0
    6.5016    6.5425   -1.7143 H   0  0  0  0  0  0  0  0  0  0  0  0
    4.5010    3.6429   -4.1910 H   0  0  0  0  0  0  0  0  0  0  0  0
   -0.2857    0.1250   -0.1781 H   0  0  0  0  0  0  0  0  0  0  0  0
    4.7096    6.2988    0.0003 H   0  0  0  0  0  0  0  0  0  0  0  0
    2.7387    3.3913   -2.4764 H   0  0  0  0  0  0  0  0  0  0  0  0
   -1.4696    2.3006   -0.0812 H   0  0  0  0  0  0  0  0  0  0  0  0
    2.2272    0.0622   -0.0553 H   0  0  0  0  0  0  0  0  0  0  0  0
    1.2939    6.5535    2.2837 H   0  0  0  0  0  0  0  0  0  0  0  0
    1.2815    4.7707    2.2308 H   0  0  0  0  0  0  0  0  0  0  0  0
   -1.3324    4.6661   -0.2690 H   0  0  0  0  0  0  0  0  0  0  0  0
  1  2  1  0  0  0  0
  1  3  2  0  0  0  0
  1 20  1  0  0  0  0
  2  5  2  0  0  0  0
  2 21  1  0  0  0  0
  3  6  1  0  0  0  0
  3 22  1  0  0  0  0
  4  7  1  0  0  0  0
  4  8  2  0  0  0  0
  4 23  1  0  0  0  0
  5  9  1  0  0  0  0
  5 24  1  0  0  0  0
  6  9  2  0  0  0  0
  6 25  1  0  0  0  0
  7 11  2  0  0  0  0
  7 26  1  0  0  0  0
  8 12  1  0  0  0  0
  8 27  1  0  0  0  0
  9 13  1  0  0  0  0
 10 11  1  0  0  0  0
 10 12  2  0  0  0  0
 10 13  1  0  0  0  0
 11 17  1  0  0  0  0
 12 19  1  0  0  0  0
 13 16  2  0  0  0  0
 14 15  1  0  0  0  0
 14 17  1  0  0  0  0
 14 18  2  0  0  0  0
 15 16  1  0  0  0  0
 15 28  1  0  0  0  0
 15 29  1  0  0  0  0
 17 30  1  0  0  0  0
M  END
$$$$
