
  -OEChem-05262117483D

 24 24  0     0  0  0  0  0  0999 V2000
    7.9075   -0.5986   -2.7807 C   0  0  0  0  0  0  0  0  0  0  0  0
    6.9192   -1.5668   -2.5793 C   0  0  0  0  0  0  0  0  0  0  0  0
    7.7073    0.6929   -2.2808 C   0  0  0  0  0  0  0  0  0  0  0  0
    5.7452   -1.2598   -1.8864 C   0  0  0  0  0  0  0  0  0  0  0  0
    6.5296    1.0141   -1.6044 C   0  0  0  0  0  0  0  0  0  0  0  0
    5.5386    0.0399   -1.3979 C   0  0  0  0  0  0  0  0  0  0  0  0
    3.2073   -0.3409   -0.4958 C   0  0  0  0  0  0  0  0  0  0  0  0
    1.5219   -1.8057   -1.4333 C   0  0  0  0  0  0  0  0  0  0  0  0
    2.8799   -0.4309   -2.9721 C   0  0  0  0  0  0  0  0  0  0  0  0
    4.3743    0.4210   -0.6796 N   0  0  0  0  0  0  0  0  0  0  0  0
    2.6762   -0.9336   -1.6171 N   0  0  0  0  0  0  0  0  0  0  0  0
    2.6954   -0.4296    0.6219 O   0  0  0  0  0  0  0  0  0  0  0  0
    8.8200   -0.8464   -3.3156 H   0  0  0  0  0  0  0  0  0  0  0  0
    7.0652   -2.5779   -2.9510 H   0  0  0  0  0  0  0  0  0  0  0  0
    8.4648    1.4585   -2.4272 H   0  0  0  0  0  0  0  0  0  0  0  0
    4.9970   -2.0263   -1.7159 H   0  0  0  0  0  0  0  0  0  0  0  0
    6.3662    2.0247   -1.2370 H   0  0  0  0  0  0  0  0  0  0  0  0
    0.5788   -1.2491   -1.5199 H   0  0  0  0  0  0  0  0  0  0  0  0
    1.5627   -2.2607   -0.4447 H   0  0  0  0  0  0  0  0  0  0  0  0
    1.5397   -2.5882   -2.1991 H   0  0  0  0  0  0  0  0  0  0  0  0
    3.3345   -1.1927   -3.6164 H   0  0  0  0  0  0  0  0  0  0  0  0
    3.5250    0.4454   -2.9659 H   0  0  0  0  0  0  0  0  0  0  0  0
    1.9125   -0.1427   -3.4026 H   0  0  0  0  0  0  0  0  0  0  0  0
    4.5646    0.9450    0.1678 H   0  0  0  0  0  0  0  0  0  0  0  0
  1  2  1  0  0  0  0
  1  3  2  0  0  0  0
  1 13  1  0  0  0  0
  2  4  2  0  0  0  0
  2 14  1  0  0  0  0
  3  5  1  0  0  0  0
  3 15  1  0  0  0  0
  4  6  1  0  0  0  0
  4 16  1  0  0  0  0
  5  6  2  0  0  0  0
  5 17  1  0  0  0  0
  6 10  1  0  0  0  0
  7 10  1  0  0  0  0
  7 11  1  0  0  0  0
  7 12  2  0  0  0  0
  8 11  1  0  0  0  0
  8 18  1  0  0  0  0
  8 19  1  0  0  0  0
  8 20  1  0  0  0  0
  9 11  1  0  0  0  0
  9 21  1  0  0  0  0
  9 22  1  0  0  0  0
  9 23  1  0  0  0  0
 10 24  1  0  0  0  0
M  END
$$$$
