
  -OEChem-05262117483D

 18 18  0     0  0  0  0  0  0999 V2000
    1.3851   -0.0362    1.5660 C   0  0  0  0  0  0  0  0  0  0  0  0
    0.1972   -0.4472    0.9523 C   0  0  0  0  0  0  0  0  0  0  0  0
    1.7223   -0.5278    2.8256 C   0  0  0  0  0  0  0  0  0  0  0  0
   -0.6137   -1.3495    1.6427 C   0  0  0  0  0  0  0  0  0  0  0  0
    0.8297   -1.4323    3.4263 C   0  0  0  0  0  0  0  0  0  0  0  0
    2.0890   -1.8466    5.5668 C   0  0  0  0  0  0  0  0  0  0  0  0
    1.9860   -2.6909    6.8268 C   0  0  0  0  0  0  0  0  0  0  0  0
   -0.3136   -1.8372    2.8528 N   0  0  0  0  0  0  0  0  0  0  0  0
    1.0344   -2.0103    4.6917 N   0  0  0  0  0  0  0  0  0  0  0  0
    3.0463   -1.1101    5.3504 O   0  0  0  0  0  0  0  0  0  0  0  0
    2.0498    0.6655    1.0684 H   0  0  0  0  0  0  0  0  0  0  0  0
   -0.0942   -0.0827   -0.0280 H   0  0  0  0  0  0  0  0  0  0  0  0
    2.6288   -0.2381    3.3390 H   0  0  0  0  0  0  0  0  0  0  0  0
   -1.5487   -1.7005    1.2089 H   0  0  0  0  0  0  0  0  0  0  0  0
    2.4880   -3.6495    6.6561 H   0  0  0  0  0  0  0  0  0  0  0  0
    0.9530   -2.8926    7.1250 H   0  0  0  0  0  0  0  0  0  0  0  0
    2.5061   -2.1755    7.6351 H   0  0  0  0  0  0  0  0  0  0  0  0
    0.2824   -2.6382    4.9531 H   0  0  0  0  0  0  0  0  0  0  0  0
  1  2  1  0  0  0  0
  1  3  2  0  0  0  0
  1 11  1  0  0  0  0
  2  4  2  0  0  0  0
  2 12  1  0  0  0  0
  3  5  1  0  0  0  0
  3 13  1  0  0  0  0
  4  8  1  0  0  0  0
  4 14  1  0  0  0  0
  5  8  2  0  0  0  0
  5  9  1  0  0  0  0
  6  7  1  0  0  0  0
  6  9  1  0  0  0  0
  6 10  2  0  0  0  0
  7 15  1  0  0  0  0
  7 16  1  0  0  0  0
  7 17  1  0  0  0  0
  9 18  1  0  0  0  0
M  END
$$$$
