
  -OEChem-05262117483D

 19 20  0     0  0  0  0  0  0999 V2000
    1.8661   -1.0144   -0.1724 C   0  0  0  0  0  0  0  0  0  0  0  0
    2.8017   -1.7934    0.5154 C   0  0  0  0  0  0  0  0  0  0  0  0
    0.9007   -0.3004    0.5486 C   0  0  0  0  0  0  0  0  0  0  0  0
    2.7726   -1.8580    1.9102 C   0  0  0  0  0  0  0  0  0  0  0  0
    0.8689   -0.3627    1.9407 C   0  0  0  0  0  0  0  0  0  0  0  0
    1.1523   -0.8532    6.1598 C   0  0  0  0  0  0  0  0  0  0  0  0
    2.2374   -1.7022    6.2170 C   0  0  0  0  0  0  0  0  0  0  0  0
    1.8066   -1.1439    2.6413 C   0  0  0  0  0  0  0  0  0  0  0  0
    1.7416   -1.1844    4.1044 C   0  0  0  0  0  0  0  0  0  0  0  0
    0.8545   -0.5399    4.8552 N   0  0  0  0  0  0  0  0  0  0  0  0
    2.6031   -1.9055    4.9000 N   0  0  0  0  0  0  0  0  0  0  0  0
    1.8889   -0.9643   -1.2578 H   0  0  0  0  0  0  0  0  0  0  0  0
    3.5554   -2.3519   -0.0336 H   0  0  0  0  0  0  0  0  0  0  0  0
    0.1697    0.3075    0.0215 H   0  0  0  0  0  0  0  0  0  0  0  0
    3.5132   -2.4729    2.4171 H   0  0  0  0  0  0  0  0  0  0  0  0
    0.1256    0.1862    2.5097 H   0  0  0  0  0  0  0  0  0  0  0  0
    0.5748   -0.4549    6.9841 H   0  0  0  0  0  0  0  0  0  0  0  0
    2.7638   -2.1635    7.0403 H   0  0  0  0  0  0  0  0  0  0  0  0
    3.3714   -2.4820    4.5869 H   0  0  0  0  0  0  0  0  0  0  0  0
  1  2  1  0  0  0  0
  1  3  2  0  0  0  0
  1 12  1  0  0  0  0
  2  4  2  0  0  0  0
  2 13  1  0  0  0  0
  3  5  1  0  0  0  0
  3 14  1  0  0  0  0
  4  8  1  0  0  0  0
  4 15  1  0  0  0  0
  5  8  2  0  0  0  0
  5 16  1  0  0  0  0
  6  7  2  0  0  0  0
  6 10  1  0  0  0  0
  6 17  1  0  0  0  0
  7 11  1  0  0  0  0
  7 18  1  0  0  0  0
  8  9  1  0  0  0  0
  9 10  2  0  0  0  0
  9 11  1  0  0  0  0
 11 19  1  0  0  0  0
M  END
$$$$
