
  -OEChem-05262117483D

 30 32  0     0  0  0  0  0  0999 V2000
    1.7792    1.3515   -0.1351 C   0  0  0  0  0  0  0  0  0  0  0  0
    4.4847    4.5301   -3.7122 C   0  0  0  0  0  0  0  0  0  0  0  0
    0.3819    1.3905   -0.0283 C   0  0  0  0  0  0  0  0  0  0  0  0
    5.8044    4.8259   -3.3557 C   0  0  0  0  0  0  0  0  0  0  0  0
    2.4869    2.5427   -0.2533 C   0  0  0  0  0  0  0  0  0  0  0  0
    3.4826    4.5804   -2.7440 C   0  0  0  0  0  0  0  0  0  0  0  0
   -0.2831    2.6124   -0.0143 C   0  0  0  0  0  0  0  0  0  0  0  0
    6.1131    5.1641   -2.0369 C   0  0  0  0  0  0  0  0  0  0  0  0
    1.8376    3.7924   -0.2405 C   0  0  0  0  0  0  0  0  0  0  0  0
    3.7640    4.9440   -1.4174 C   0  0  0  0  0  0  0  0  0  0  0  0
    0.4303    3.8209   -0.1075 C   0  0  0  0  0  0  0  0  0  0  0  0
    5.0969    5.2222   -1.0786 C   0  0  0  0  0  0  0  0  0  0  0  0
    2.6344    5.0293   -0.4371 C   0  0  0  0  0  0  0  0  0  0  0  0
   -0.0038    6.2117    0.5133 C   0  0  0  0  0  0  0  0  0  0  0  0
    1.3852    6.2663    1.1357 C   0  0  0  0  0  0  0  0  0  0  0  0
    2.4335    6.1613    0.1306 N   0  0  0  0  0  0  0  0  0  0  0  0
   -0.3010    5.0222   -0.1418 N   0  0  0  0  0  0  0  0  0  0  0  0
   -0.8196    7.1190    0.5690 O   0  0  0  0  0  0  0  0  0  0  0  0
    5.5545    5.5913    0.5757 Cl  0  0  0  0  0  0  0  0  0  0  0  0
    2.3045    0.4010   -0.1365 H   0  0  0  0  0  0  0  0  0  0  0  0
    4.2393    4.2607   -4.7355 H   0  0  0  0  0  0  0  0  0  0  0  0
   -0.1879    0.4686    0.0499 H   0  0  0  0  0  0  0  0  0  0  0  0
    6.5972    4.7868   -4.0978 H   0  0  0  0  0  0  0  0  0  0  0  0
    3.5668    2.5212   -0.3652 H   0  0  0  0  0  0  0  0  0  0  0  0
    2.4556    4.3454   -3.0108 H   0  0  0  0  0  0  0  0  0  0  0  0
   -1.3664    2.6435    0.0775 H   0  0  0  0  0  0  0  0  0  0  0  0
    7.1362    5.3773   -1.7439 H   0  0  0  0  0  0  0  0  0  0  0  0
    1.4713    7.2259    1.6444 H   0  0  0  0  0  0  0  0  0  0  0  0
    1.4596    5.4581    1.8792 H   0  0  0  0  0  0  0  0  0  0  0  0
   -1.2787    4.9555   -0.4073 H   0  0  0  0  0  0  0  0  0  0  0  0
  1  3  1  0  0  0  0
  1  5  2  0  0  0  0
  1 20  1  0  0  0  0
  2  4  1  0  0  0  0
  2  6  2  0  0  0  0
  2 21  1  0  0  0  0
  3  7  2  0  0  0  0
  3 22  1  0  0  0  0
  4  8  2  0  0  0  0
  4 23  1  0  0  0  0
  5  9  1  0  0  0  0
  5 24  1  0  0  0  0
  6 10  1  0  0  0  0
  6 25  1  0  0  0  0
  7 11  1  0  0  0  0
  7 26  1  0  0  0  0
  8 12  1  0  0  0  0
  8 27  1  0  0  0  0
  9 11  2  0  0  0  0
  9 13  1  0  0  0  0
 10 12  2  0  0  0  0
 10 13  1  0  0  0  0
 11 17  1  0  0  0  0
 12 19  1  0  0  0  0
 13 16  2  0  0  0  0
 14 15  1  0  0  0  0
 14 17  1  0  0  0  0
 14 18  2  0  0  0  0
 15 16  1  0  0  0  0
 15 28  1  0  0  0  0
 15 29  1  0  0  0  0
 17 30  1  0  0  0  0
M  END
$$$$
