
  -OEChem-05262117483D

 52 56  0     1  0  0  0  0  0999 V2000
   -3.0439   -0.6083   -1.0607 C   0  0  0  0  0  0  0  0  0  0  0  0
   -1.9531    0.2985   -0.7773 C   0  0  0  0  0  0  0  0  0  0  0  0
   -0.9231   -0.3327   -0.1311 C   0  0  0  0  0  0  0  0  0  0  0  0
   -4.3046   -0.3064   -1.7182 C   0  0  0  0  0  0  0  0  0  0  0  0
   -2.8145   -1.8941   -0.6152 C   0  0  0  0  0  0  0  0  0  0  0  0
   -4.9523   -2.7072   -1.3807 C   0  0  0  0  0  0  0  0  0  0  0  0
    0.2149    2.3963    1.5916 C   0  0  0  0  0  0  0  0  0  0  0  0
   -6.8522   -2.1433   -3.7207 C   0  0  0  0  0  0  0  0  0  0  0  0
   -0.5264    1.7334    3.7106 C   0  0  0  0  0  0  0  0  0  0  0  0
   -0.5767    0.5258    2.7562 C   0  0  0  0  0  0  0  0  0  0  0  0
   -2.3852   -6.5740   -0.7072 C   0  0  0  0  0  0  0  0  0  0  0  0
   -3.3294   -5.7392   -2.3672 C   0  0  0  0  0  0  0  0  0  0  0  0
   -6.3156   -0.7915   -4.1270 C   0  0  1  0  0  0  0  0  0  0  0  0
   -2.5990   -5.1112   -1.1561 C   0  0  0  0  0  0  0  0  0  0  0  0
   -6.3729   -1.1835   -2.6635 C   0  0  2  0  0  0  0  0  0  0  0  0
   -1.9645    1.7553   -1.1501 C   0  0  0  0  0  0  0  0  0  0  0  0
   -5.0017   -0.6946   -4.8733 C   0  0  0  0  0  0  0  0  0  0  0  0
    0.3688    0.2349    0.4012 C   0  0  0  0  0  0  0  0  0  0  0  0
   -3.4355   -4.2604   -0.2069 C   0  0  0  0  0  0  0  0  0  0  0  0
   -5.1377   -1.4405   -1.9436 N   0  0  0  0  0  0  0  0  0  0  0  0
   -3.7190   -2.9218   -0.7461 N   0  0  0  0  0  0  0  0  0  0  0  0
   -0.3988    2.8392    2.7604 N   0  0  0  0  0  0  0  0  0  0  0  0
    0.2140    1.0075    1.6281 N   0  0  0  0  0  0  0  0  0  0  0  0
   -4.6675    0.8075   -2.0782 O   0  0  0  0  0  0  0  0  0  0  0  0
   -5.7915   -3.5975   -1.4381 O   0  0  0  0  0  0  0  0  0  0  0  0
    0.6623    3.0995    0.6922 O   0  0  0  0  0  0  0  0  0  0  0  0
   -3.0825   -7.0848   -1.8696 O   0  0  0  0  0  0  0  0  0  0  0  0
   -1.2672   -2.0433    0.1590 S   0  0  0  0  0  0  0  0  0  0  0  0
   -7.9186   -2.3441   -3.7543 H   0  0  0  0  0  0  0  0  0  0  0  0
   -6.2300   -3.0079   -3.9248 H   0  0  0  0  0  0  0  0  0  0  0  0
   -1.4329    1.8210    4.3142 H   0  0  0  0  0  0  0  0  0  0  0  0
    0.3431    1.6654    4.3788 H   0  0  0  0  0  0  0  0  0  0  0  0
   -0.1426   -0.3764    3.1973 H   0  0  0  0  0  0  0  0  0  0  0  0
   -1.6080    0.3045    2.4489 H   0  0  0  0  0  0  0  0  0  0  0  0
   -1.3438   -6.9147   -0.6731 H   0  0  0  0  0  0  0  0  0  0  0  0
   -2.8908   -6.8579    0.2256 H   0  0  0  0  0  0  0  0  0  0  0  0
   -4.3993   -5.5206   -2.4348 H   0  0  0  0  0  0  0  0  0  0  0  0
   -2.8501   -5.5800   -3.3397 H   0  0  0  0  0  0  0  0  0  0  0  0
   -7.0471   -0.0356   -4.4025 H   0  0  0  0  0  0  0  0  0  0  0  0
   -1.6733   -4.5938   -1.4194 H   0  0  0  0  0  0  0  0  0  0  0  0
   -7.1219   -0.6876   -2.0534 H   0  0  0  0  0  0  0  0  0  0  0  0
   -2.7599    2.2795   -0.6116 H   0  0  0  0  0  0  0  0  0  0  0  0
   -1.0147    2.2403   -0.9218 H   0  0  0  0  0  0  0  0  0  0  0  0
   -2.1875    1.8741   -2.2137 H   0  0  0  0  0  0  0  0  0  0  0  0
   -4.2864   -1.4466   -4.5239 H   0  0  0  0  0  0  0  0  0  0  0  0
   -4.5484    0.2913   -4.7400 H   0  0  0  0  0  0  0  0  0  0  0  0
   -5.1591   -0.8645   -5.9441 H   0  0  0  0  0  0  0  0  0  0  0  0
    1.0861   -0.5750    0.5780 H   0  0  0  0  0  0  0  0  0  0  0  0
    0.8199    0.9113   -0.3287 H   0  0  0  0  0  0  0  0  0  0  0  0
   -2.9187   -4.1343    0.7510 H   0  0  0  0  0  0  0  0  0  0  0  0
   -4.3963   -4.7373   -0.0127 H   0  0  0  0  0  0  0  0  0  0  0  0
   -0.1166    3.7577    3.0799 H   0  0  0  0  0  0  0  0  0  0  0  0
  1  2  1  0  0  0  0
  1  4  1  0  0  0  0
  1  5  2  0  0  0  0
  2  3  2  0  0  0  0
  2 16  1  0  0  0  0
  3 18  1  0  0  0  0
  3 28  1  0  0  0  0
  4 20  1  0  0  0  0
  4 24  2  0  0  0  0
  5 21  1  0  0  0  0
  5 28  1  0  0  0  0
  6 20  1  0  0  0  0
  6 21  1  0  0  0  0
  6 25  2  0  0  0  0
  7 22  1  0  0  0  0
  7 23  1  0  0  0  0
  7 26  2  0  0  0  0
  8 13  1  0  0  0  0
  8 15  1  0  0  0  0
  8 29  1  0  0  0  0
  8 30  1  0  0  0  0
  9 10  1  0  0  0  0
  9 22  1  0  0  0  0
  9 31  1  0  0  0  0
  9 32  1  0  0  0  0
 10 23  1  0  0  0  0
 10 33  1  0  0  0  0
 10 34  1  0  0  0  0
 11 14  1  0  0  0  0
 11 27  1  0  0  0  0
 11 35  1  0  0  0  0
 11 36  1  0  0  0  0
 12 14  1  0  0  0  0
 12 27  1  0  0  0  0
 12 37  1  0  0  0  0
 12 38  1  0  0  0  0
 13 15  1  0  0  0  0
 13 17  1  0  0  0  0
 13 39  1  0  0  0  0
 14 19  1  0  0  0  0
 14 40  1  0  0  0  0
 15 20  1  0  0  0  0
 15 41  1  0  0  0  0
 16 42  1  0  0  0  0
 16 43  1  0  0  0  0
 16 44  1  0  0  0  0
 17 45  1  0  0  0  0
 17 46  1  0  0  0  0
 17 47  1  0  0  0  0
 18 23  1  0  0  0  0
 18 48  1  0  0  0  0
 18 49  1  0  0  0  0
 19 21  1  0  0  0  0
 19 50  1  0  0  0  0
 19 51  1  0  0  0  0
 22 52  1  0  0  0  0
M  END
$$$$
