
  -OEChem-05262117483D

 66 68  0     1  0  0  0  0  0999 V2000
    1.1226   -7.5063   -3.8848 C   0  0  0  0  0  0  0  0  0  0  0  0
    0.8666   -7.0347   -2.5992 C   0  0  0  0  0  0  0  0  0  0  0  0
   -1.2717   -2.1557   -0.3965 C   0  0  0  0  0  0  0  0  0  0  0  0
    1.1102   -2.4269   -0.2317 C   0  0  0  0  0  0  0  0  0  0  0  0
   -0.9370   -5.6628   -3.4810 C   0  0  0  0  0  0  0  0  0  0  0  0
   -1.4269   -3.5021   -0.7444 C   0  0  0  0  0  0  0  0  0  0  0  0
    0.3765   -7.0720   -4.9883 C   0  0  0  0  0  0  0  0  0  0  0  0
   -0.0162   -1.6025   -0.1214 C   0  0  0  0  0  0  0  0  0  0  0  0
   -0.1569   -6.1112   -2.3981 C   0  0  0  0  0  0  0  0  0  0  0  0
   -0.2873   -4.3152   -0.8344 C   0  0  0  0  0  0  0  0  0  0  0  0
    0.9850   -3.7690   -0.5945 C   0  0  0  0  0  0  0  0  0  0  0  0
   -0.6530   -6.1473   -4.7733 C   0  0  0  0  0  0  0  0  0  0  0  0
   -2.0102   -4.6635   -3.2184 C   0  0  0  0  0  0  0  0  0  0  0  0
   -2.8051   -4.0344   -1.0764 C   0  0  0  0  0  0  0  0  0  0  0  0
    0.1248   -0.1570    0.2961 C   0  0  0  0  0  0  0  0  0  0  0  0
    4.4080   -5.7775   -4.2149 C   0  0  0  0  0  0  0  0  0  0  0  0
    2.9191   -4.6322   -7.7364 C   0  0  0  0  0  0  0  0  0  0  0  0
    0.5533   -5.1378   -8.4448 C   0  0  0  0  0  0  0  0  0  0  0  0
    4.9799   -4.8676   -0.4449 C   0  0  0  0  0  0  0  0  0  0  0  0
   -2.7219   -6.2354   -5.9376 C   0  0  0  0  0  0  0  0  0  0  0  0
    5.0351   -5.1415   -2.9684 C   0  0  0  0  0  0  0  0  0  0  0  0
    1.8637   -6.8058   -7.0268 C   0  0  0  0  0  0  0  0  0  0  0  0
    2.9384   -4.3389   -1.8172 C   0  0  0  0  0  0  0  0  0  0  0  0
    0.7006   -7.5801   -6.3779 C   0  0  1  0  0  0  0  0  0  0  0  0
    1.6049   -5.3217   -7.3405 C   0  0  0  0  0  0  0  0  0  0  0  0
    4.1706   -5.2297   -1.6970 C   0  0  2  0  0  0  0  0  0  0  0  0
   -2.2170   -3.6457   -3.8413 O   0  0  0  0  0  0  0  0  0  0  0  0
   -0.3826   -5.6790   -1.0988 O   0  0  0  0  0  0  0  0  0  0  0  0
   -2.7325   -5.0347   -2.1106 O   0  0  0  0  0  0  0  0  0  0  0  0
    1.0515   -8.9708   -6.2410 O   0  0  0  0  0  0  0  0  0  0  0  0
   -1.3884   -5.7136   -5.8542 O   0  0  0  0  0  0  0  0  0  0  0  0
    2.0865   -4.5858   -0.6788 O   0  0  0  0  0  0  0  0  0  0  0  0
    1.9069   -8.2381   -4.0477 H   0  0  0  0  0  0  0  0  0  0  0  0
    1.4542   -7.3512   -1.7442 H   0  0  0  0  0  0  0  0  0  0  0  0
   -2.1542   -1.5203   -0.3605 H   0  0  0  0  0  0  0  0  0  0  0  0
    2.1038   -2.0343   -0.0289 H   0  0  0  0  0  0  0  0  0  0  0  0
   -3.2539   -4.5569   -0.2280 H   0  0  0  0  0  0  0  0  0  0  0  0
   -3.4616   -3.2136   -1.3799 H   0  0  0  0  0  0  0  0  0  0  0  0
    0.2147   -0.0719    1.3858 H   0  0  0  0  0  0  0  0  0  0  0  0
    1.0168    0.3006   -0.1425 H   0  0  0  0  0  0  0  0  0  0  0  0
   -0.7436    0.4327   -0.0105 H   0  0  0  0  0  0  0  0  0  0  0  0
    4.1827   -6.8353   -4.0422 H   0  0  0  0  0  0  0  0  0  0  0  0
    3.4734   -5.2894   -4.5049 H   0  0  0  0  0  0  0  0  0  0  0  0
    5.0908   -5.7171   -5.0689 H   0  0  0  0  0  0  0  0  0  0  0  0
    3.3414   -5.0858   -8.6419 H   0  0  0  0  0  0  0  0  0  0  0  0
    2.7557   -3.5690   -7.9443 H   0  0  0  0  0  0  0  0  0  0  0  0
    3.6694   -4.7089   -6.9432 H   0  0  0  0  0  0  0  0  0  0  0  0
    0.8819   -5.6176   -9.3759 H   0  0  0  0  0  0  0  0  0  0  0  0
   -0.4128   -5.5571   -8.1569 H   0  0  0  0  0  0  0  0  0  0  0  0
    0.3978   -4.0742   -8.6555 H   0  0  0  0  0  0  0  0  0  0  0  0
    5.3872   -3.8518   -0.5262 H   0  0  0  0  0  0  0  0  0  0  0  0
    5.8229   -5.5543   -0.3131 H   0  0  0  0  0  0  0  0  0  0  0  0
    4.3571   -4.9127    0.4524 H   0  0  0  0  0  0  0  0  0  0  0  0
   -3.1524   -5.8206   -6.8506 H   0  0  0  0  0  0  0  0  0  0  0  0
   -3.3310   -5.9259   -5.0825 H   0  0  0  0  0  0  0  0  0  0  0  0
   -2.7030   -7.3306   -5.9963 H   0  0  0  0  0  0  0  0  0  0  0  0
    5.2769   -4.0885   -3.1692 H   0  0  0  0  0  0  0  0  0  0  0  0
    5.9927   -5.6348   -2.7629 H   0  0  0  0  0  0  0  0  0  0  0  0
    2.1271   -7.3150   -7.9674 H   0  0  0  0  0  0  0  0  0  0  0  0
    2.7317   -6.9020   -6.3648 H   0  0  0  0  0  0  0  0  0  0  0  0
    2.3707   -4.5528   -2.7294 H   0  0  0  0  0  0  0  0  0  0  0  0
    3.2361   -3.2812   -1.8364 H   0  0  0  0  0  0  0  0  0  0  0  0
   -0.1925   -7.4898   -7.0044 H   0  0  0  0  0  0  0  0  0  0  0  0
    1.2293   -4.8381   -6.4302 H   0  0  0  0  0  0  0  0  0  0  0  0
    3.8140   -6.2631   -1.5946 H   0  0  0  0  0  0  0  0  0  0  0  0
    1.3719   -9.2753   -7.1047 H   0  0  0  0  0  0  0  0  0  0  0  0
  1  2  1  0  0  0  0
  1  7  2  0  0  0  0
  1 33  1  0  0  0  0
  2  9  2  0  0  0  0
  2 34  1  0  0  0  0
  3  6  1  0  0  0  0
  3  8  2  0  0  0  0
  3 35  1  0  0  0  0
  4  8  1  0  0  0  0
  4 11  2  0  0  0  0
  4 36  1  0  0  0  0
  5  9  1  0  0  0  0
  5 12  2  0  0  0  0
  5 13  1  0  0  0  0
  6 10  2  0  0  0  0
  6 14  1  0  0  0  0
  7 12  1  0  0  0  0
  7 24  1  0  0  0  0
  8 15  1  0  0  0  0
  9 28  1  0  0  0  0
 10 11  1  0  0  0  0
 10 28  1  0  0  0  0
 11 32  1  0  0  0  0
 12 31  1  0  0  0  0
 13 27  2  0  0  0  0
 13 29  1  0  0  0  0
 14 29  1  0  0  0  0
 14 37  1  0  0  0  0
 14 38  1  0  0  0  0
 15 39  1  0  0  0  0
 15 40  1  0  0  0  0
 15 41  1  0  0  0  0
 16 21  1  0  0  0  0
 16 42  1  0  0  0  0
 16 43  1  0  0  0  0
 16 44  1  0  0  0  0
 17 25  1  0  0  0  0
 17 45  1  0  0  0  0
 17 46  1  0  0  0  0
 17 47  1  0  0  0  0
 18 25  1  0  0  0  0
 18 48  1  0  0  0  0
 18 49  1  0  0  0  0
 18 50  1  0  0  0  0
 19 26  1  0  0  0  0
 19 51  1  0  0  0  0
 19 52  1  0  0  0  0
 19 53  1  0  0  0  0
 20 31  1  0  0  0  0
 20 54  1  0  0  0  0
 20 55  1  0  0  0  0
 20 56  1  0  0  0  0
 21 26  1  0  0  0  0
 21 57  1  0  0  0  0
 21 58  1  0  0  0  0
 22 24  1  0  0  0  0
 22 25  1  0  0  0  0
 22 59  1  0  0  0  0
 22 60  1  0  0  0  0
 23 26  1  0  0  0  0
 23 32  1  0  0  0  0
 23 61  1  0  0  0  0
 23 62  1  0  0  0  0
 24 30  1  0  0  0  0
 24 63  1  0  0  0  0
 25 64  1  0  0  0  0
 26 65  1  0  0  0  0
 30 66  1  0  0  0  0
M  END
$$$$
