67
0 1 C28F4H33NO
C                    -4.565638720748     2.137622942066    -4.174667097905
C                    -2.566281835589     3.312032397543    -4.851262824013
C                    -4.818492165257     1.793522153470    -5.503509730798
C                    -2.818567594661     2.979526977030    -6.180895185100
C                    -4.509106687582     2.512373605911    -0.360147812337
C                    -5.639055218871     2.733370233080     0.461177674510
C                    -3.442159518446     2.901191302878    -3.836839990897
C                    -3.945144388684     2.215699927938    -6.507839170092
C                    -4.327514548183     3.360627508106    -1.475227448276
C                    -6.572235374579     3.704369673306     0.063667818516
C                    -5.281478255259     4.366516644310    -1.739213315476
C                    -7.883677157922     3.907345329319     0.789346482490
C                    -2.118902382762    -0.441246950427    -0.745673709548
C                    -1.184150284983     0.736270209347    -0.408413346041
C                   -10.315879844905     2.025724261537     1.093247488177
C                    -3.450302243358     0.240969288547    -1.099969187067
C                    -2.084871578439     1.775489773253     0.305015934444
C                    -8.888379021553     1.539568136782     0.720970442037
C                    -9.698491666648     2.846305947481     2.260420614635
C                    -7.126415562857     2.332349646133     2.511184819890
C                    -3.557772996535     1.370140315636    -0.040536863500
C                    -5.876678371745     1.917229640418     1.724583227218
C                    -8.295784732405     2.684322882381     1.605509665727
C                    -4.973845968141     6.794553023862    -2.244623426039
C                    -6.372859562960     5.341521014086    -3.791800596641
C                    -3.128936394721     3.219710696716    -2.386155474729
C                    -5.154018859553     5.393166423802    -2.856602894608
C                    -4.234604809764     1.903106863768    -7.950666478911
N                    -6.386761609213     4.495369390071    -0.999046483279
O                    -4.708622810538     2.049724580625     2.566346823842
F                    -2.343263767350     4.402617050121    -2.329621970450
F                    -5.059727238350     0.836830209783    -8.091799215770
F                    -4.835470768435     2.948238908773    -8.583777538700
F                    -3.103442584083     1.630846749951    -8.650033393617
H                    -5.257250151840     1.822495261934    -3.399930653149
H                    -1.697673481242     3.910119519679    -4.596459890660
H                    -5.693763506282     1.203363317766    -5.755325887430
H                    -2.138513616105     3.306552635232    -6.961790665202
H                    -7.791707566319     4.774100378072     1.458591360339
H                    -8.638096118846     4.175727664287     0.043367495901
H                    -1.736409607612    -1.075144282883    -1.551776138614
H                    -2.252942171167    -1.077538217082     0.137981671782
H                    -0.327835892013     0.434244247854     0.202061534132
H                    -0.776525434152     1.155755329080    -1.336365209741
H                   -11.047564262754     1.258267178491     1.359140478294
H                   -10.751140732141     2.665408972308     0.320713468389
H                    -3.415082674182     0.618561290048    -2.125047294368
H                    -4.308061358906    -0.437818453613    -1.046305934687
H                    -1.960682011052     1.736800928867     1.390189247325
H                    -1.847090863050     2.799355233933     0.007924666860
H                    -8.672355887565     0.549671815406     1.137435859643
H                    -8.611534634976     1.540321589878    -0.337768151375
H                   -10.056921939096     3.870893041830     2.402523349197
H                    -9.765237735457     2.316988769438     3.216912010743
H                    -7.398134259594     1.521496909666     3.200360818706
H                    -6.867493953313     3.206734895794     3.121649142979
H                    -3.930902282573     0.884521565047     0.855062126851
H                    -5.985251554513     0.860324180366     1.435129034554
H                    -5.841542301441     7.059389638680    -1.633258533298
H                    -4.864890126749     7.542330318658    -3.037803469330
H                    -4.079979620397     6.832991974894    -1.613877052825
H                    -7.292032858286     5.547266775211    -3.237031926263
H                    -6.467317520437     4.357658598811    -4.263082412563
H                    -6.268959216050     6.087035155538    -4.587582921784
H                    -2.461780211073     2.446622115086    -2.017816380178
H                    -4.265104710899     5.181369971073    -3.448268033243
H                    -4.897975910534     1.585950111831     3.398399050256
