52
0 1 C19H24N4O4S
C                    -3.518745865033    -0.730145739857    -1.331917888043
C                    -2.546899550766     0.302537951028    -1.052210345834
C                    -1.445754161513    -0.197338638111    -0.411259911968
C                    -4.814613772562    -0.582902567288    -1.972157187115
C                    -3.127178378067    -1.978888723409    -0.893620206257
C                    -5.160265172096    -3.045070099037    -1.633646383151
C                     1.184357050394     2.140625176053    -1.289431525116
C                    -7.132412955732    -2.712270831710    -3.959962901072
C                     2.095996492106     0.773037611281    -2.957309709970
C                     1.381986069207    -0.111761565422    -1.916411299612
C                    -2.131370649821    -6.572449643723    -1.007426898720
C                    -3.194941880024    -5.853513835144    -2.648305478016
C                    -6.774648488758    -1.301098744880    -4.361285568830
C                    -2.541654737845    -5.146329311420    -1.436982895784
C                    -6.768946763067    -1.705721700397    -2.900116401085
C                    -2.716500460487     1.745067412454    -1.441600924758
C                    -5.490679300148    -1.034858466343    -5.118558826960
C                    -0.188399803127     0.526492610012    -0.010813058953
C                    -3.457725620646    -4.401651307003    -0.473491792248
N                    -5.505110444234    -1.809468300160    -2.191941141205
N                    -3.906575021929    -3.106820539181    -1.007102095040
N                     2.207757232011     2.041212056094    -2.232665592734
N                     0.633936528612     0.876739072229    -1.154452023820
O                    -5.312065412425     0.479782508050    -2.326964140867
O                    -5.882589572236    -4.032733678884    -1.690145919545
O                     0.838133440959     3.151809836231    -0.689041963520
O                    -2.690105312889    -7.147967453076    -2.213963279460
S                    -1.565188770031    -1.937658510761    -0.133749460620
H                    -8.165047586598    -3.046111488037    -3.986612736369
H                    -6.407635787470    -3.490022020203    -4.174689217512
H                     3.076022055096     0.377474603537    -3.234707467739
H                     1.482249804490     0.872818398275    -3.862874498934
H                     0.720025691379    -0.849499310177    -2.378213477316
H                     2.104204041227    -0.640691496873    -1.275338678728
H                    -1.055540378644    -6.763371986988    -0.923122645393
H                    -2.638642659815    -6.947759362124    -0.108084768077
H                    -4.288919447540    -5.827057297698    -2.662182631772
H                    -2.800315780530    -5.580801629360    -3.633301591963
H                    -7.598263926484    -0.642203001615    -4.625688840430
H                    -1.688049594608    -4.521940901849    -1.712542228423
H                    -7.569297194605    -1.312112705961    -2.280779623003
H                    -3.636886619396     2.151822920379    -1.014791717258
H                    -1.868209103128     2.350594088825    -1.118096702763
H                    -2.815890428943     1.836968697863    -2.527598632232
H                    -4.682820510753    -1.691758587094    -4.779243514883
H                    -5.165032704215     0.000025643928    -4.983470971339
H                    -5.635402477923    -1.218891276873    -6.188898487693
H                    -0.431708203115     1.465893212081     0.491681449223
H                     0.389960148231    -0.080093034626     0.701793610267
H                    -2.945888864531    -4.214230148335     0.476861968441
H                    -4.352108313054    -4.989048298052    -0.265305762166
H                     2.410063986863     2.894859221293    -2.738692628672
