
  -OEChem-05262117483D

 65 69  0     1  0  0  0  0  0999 V2000
    5.6118   -4.3570    1.4874 C   0  0  0  0  0  0  0  0  0  0  0  0
    7.0203   -2.5431    2.2642 C   0  0  0  0  0  0  0  0  0  0  0  0
    3.3054   -2.5340    2.2308 C   0  0  0  0  0  0  0  0  0  0  0  0
    0.7547   -0.0513   -2.8518 C   0  0  0  0  0  0  0  0  0  0  0  0
    6.7219   -5.2055    1.4981 C   0  0  0  0  0  0  0  0  0  0  0  0
    8.1250   -3.3891    2.2760 C   0  0  0  0  0  0  0  0  0  0  0  0
    2.2076   -1.6674    2.2517 C   0  0  0  0  0  0  0  0  0  0  0  0
    0.3703    0.5296   -1.6466 C   0  0  0  0  0  0  0  0  0  0  0  0
    4.7459   -0.7531    1.4471 C   0  0  0  0  0  0  0  0  0  0  0  0
    0.4210   -1.6819   -0.6320 C   0  0  0  0  0  0  0  0  0  0  0  0
    5.7507   -3.0113    1.8693 C   0  0  0  0  0  0  0  0  0  0  0  0
    4.5872   -2.0928    1.8516 C   0  0  0  0  0  0  0  0  0  0  0  0
    0.9979   -1.4321   -2.9659 C   0  0  0  0  0  0  0  0  0  0  0  0
    3.6548    0.1043    1.4233 C   0  0  0  0  0  0  0  0  0  0  0  0
    0.8229   -2.2655   -1.8438 C   0  0  0  0  0  0  0  0  0  0  0  0
    7.9761   -4.7289    1.8906 C   0  0  0  0  0  0  0  0  0  0  0  0
    2.3959   -0.3490    1.8321 C   0  0  0  0  0  0  0  0  0  0  0  0
    0.2167   -0.3088   -0.5353 C   0  0  0  0  0  0  0  0  0  0  0  0
    2.2638   -5.5625   -0.4018 C   0  0  0  0  0  0  0  0  0  0  0  0
    1.4178   -2.0115   -4.3027 C   0  0  0  0  0  0  0  0  0  0  0  0
    2.0768   -3.3892   -4.1689 C   0  0  0  0  0  0  0  0  0  0  0  0
    1.2136   -4.3055   -3.2963 C   0  0  0  0  0  0  0  0  0  0  0  0
    2.1462    1.9521    1.3638 C   0  0  0  0  0  0  0  0  0  0  0  0
    1.0812   -3.7597   -1.8664 C   0  0  1  0  0  0  0  0  0  0  0  0
    3.5801    1.5365    0.9212 C   0  0  0  0  0  0  0  0  0  0  0  0
    4.6338    2.4496    1.5653 C   0  0  0  0  0  0  0  0  0  0  0  0
    3.7236    1.5592   -0.6138 C   0  0  0  0  0  0  0  0  0  0  0  0
    2.3039   -4.1151   -0.9900 C   0  0  0  0  0  0  0  0  0  0  0  0
    9.1842   -5.6154    1.8947 C   0  0  0  0  0  0  0  0  0  0  0  0
    1.4341    0.7018    1.7475 N   0  0  1  0  0  0  0  0  0  0  0  0
    1.3970   -6.3475   -0.8608 O   0  5  0  0  0  0  0  0  0  0  0  0
    3.1321   -5.7812    0.4982 O   0  0  0  0  0  0  0  0  0  0  0  0
   -0.7108    1.7248    0.9008 O   0  0  0  0  0  0  0  0  0  0  0  0
   -0.7208   -0.6231    1.9151 O   0  0  0  0  0  0  0  0  0  0  0  0
    8.8950   -6.9138    1.6433 F   0  0  0  0  0  0  0  0  0  0  0  0
   10.1098   -5.2360    0.9608 F   0  0  0  0  0  0  0  0  0  0  0  0
    9.8446   -5.5848    3.0914 F   0  0  0  0  0  0  0  0  0  0  0  0
   -0.1041    0.3993    1.0695 S   0  0  0  0  0  0  0  0  0  0  0  0
    4.6506   -4.7562    1.1439 H   0  0  0  0  0  0  0  0  0  0  0  0
    7.1362   -1.5139    2.5942 H   0  0  0  0  0  0  0  0  0  0  0  0
    3.1630   -3.5731    2.5116 H   0  0  0  0  0  0  0  0  0  0  0  0
    0.8786    0.5807   -3.7297 H   0  0  0  0  0  0  0  0  0  0  0  0
    6.5962   -6.2390    1.1911 H   0  0  0  0  0  0  0  0  0  0  0  0
    9.0947   -3.0172    2.5964 H   0  0  0  0  0  0  0  0  0  0  0  0
    1.2309   -2.0134    2.5714 H   0  0  0  0  0  0  0  0  0  0  0  0
    0.1840    1.5953   -1.5608 H   0  0  0  0  0  0  0  0  0  0  0  0
    5.7181   -0.4055    1.1056 H   0  0  0  0  0  0  0  0  0  0  0  0
    0.2643   -2.3126    0.2361 H   0  0  0  0  0  0  0  0  0  0  0  0
    0.5235   -2.1043   -4.9363 H   0  0  0  0  0  0  0  0  0  0  0  0
    2.0819   -1.3040   -4.8147 H   0  0  0  0  0  0  0  0  0  0  0  0
    2.2246   -3.8250   -5.1643 H   0  0  0  0  0  0  0  0  0  0  0  0
    3.0717   -3.2774   -3.7208 H   0  0  0  0  0  0  0  0  0  0  0  0
    0.2181   -4.3925   -3.7542 H   0  0  0  0  0  0  0  0  0  0  0  0
    1.6224   -5.3164   -3.2321 H   0  0  0  0  0  0  0  0  0  0  0  0
    2.1798    2.5984    2.2467 H   0  0  0  0  0  0  0  0  0  0  0  0
    1.5979    2.4835    0.5856 H   0  0  0  0  0  0  0  0  0  0  0  0
    0.2284   -4.2636   -1.3999 H   0  0  0  0  0  0  0  0  0  0  0  0
    4.4933    3.4903    1.2485 H   0  0  0  0  0  0  0  0  0  0  0  0
    5.6446    2.1466    1.2725 H   0  0  0  0  0  0  0  0  0  0  0  0
    4.5723    2.4101    2.6576 H   0  0  0  0  0  0  0  0  0  0  0  0
    3.6042    2.5793   -1.0000 H   0  0  0  0  0  0  0  0  0  0  0  0
    2.9745    0.9203   -1.0873 H   0  0  0  0  0  0  0  0  0  0  0  0
    4.7120    1.1935   -0.9117 H   0  0  0  0  0  0  0  0  0  0  0  0
    2.3941   -3.4190   -0.1523 H   0  0  0  0  0  0  0  0  0  0  0  0
    3.2339   -3.9998   -1.5622 H   0  0  0  0  0  0  0  0  0  0  0  0
  1  5  1  0  0  0  0
  1 11  2  0  0  0  0
  1 39  1  0  0  0  0
  2  6  2  0  0  0  0
  2 11  1  0  0  0  0
  2 40  1  0  0  0  0
  3  7  2  0  0  0  0
  3 12  1  0  0  0  0
  3 41  1  0  0  0  0
  4  8  2  0  0  0  0
  4 13  1  0  0  0  0
  4 42  1  0  0  0  0
  5 16  2  0  0  0  0
  5 43  1  0  0  0  0
  6 16  1  0  0  0  0
  6 44  1  0  0  0  0
  7 17  1  0  0  0  0
  7 45  1  0  0  0  0
  8 18  1  0  0  0  0
  8 46  1  0  0  0  0
  9 12  2  0  0  0  0
  9 14  1  0  0  0  0
  9 47  1  0  0  0  0
 10 15  1  0  0  0  0
 10 18  2  0  0  0  0
 10 48  1  0  0  0  0
 11 12  1  0  0  0  0
 13 15  2  0  0  0  0
 13 20  1  0  0  0  0
 14 17  2  0  0  0  0
 14 25  1  0  0  0  0
 15 24  1  0  0  0  0
 16 29  1  0  0  0  0
 17 30  1  0  0  0  0
 18 38  1  0  0  0  0
 19 28  1  0  0  0  0
 19 31  1  0  0  0  0
 19 32  2  0  0  0  0
 20 21  1  0  0  0  0
 20 49  1  0  0  0  0
 20 50  1  0  0  0  0
 21 22  1  0  0  0  0
 21 51  1  0  0  0  0
 21 52  1  0  0  0  0
 22 24  1  0  0  0  0
 22 53  1  0  0  0  0
 22 54  1  0  0  0  0
 23 25  1  0  0  0  0
 23 30  1  0  0  0  0
 23 55  1  0  0  0  0
 23 56  1  0  0  0  0
 24 28  1  0  0  0  0
 24 57  1  0  0  0  0
 25 26  1  0  0  0  0
 25 27  1  0  0  0  0
 26 58  1  0  0  0  0
 26 59  1  0  0  0  0
 26 60  1  0  0  0  0
 27 61  1  0  0  0  0
 27 62  1  0  0  0  0
 27 63  1  0  0  0  0
 28 64  1  0  0  0  0
 28 65  1  0  0  0  0
 29 35  1  0  0  0  0
 29 36  1  0  0  0  0
 29 37  1  0  0  0  0
 30 38  1  0  0  0  0
 33 38  2  0  0  0  0
 34 38  2  0  0  0  0
M  CHG  1  31  -1
M  END
$$$$
