67
1 1 C24F2H31N6O3S
C                    -3.535335247790    -2.970016953457    -7.706502092451
C                     1.601743760232     2.045627135024    -9.028447784129
C                    -2.440057142610    -2.421403259634    -8.375870014585
C                    -3.918102517742    -2.495873119634    -6.450085234995
C                     1.146849017328     0.724153363582    -9.087561958662
C                    -2.019209185180    -0.934135601037    -6.514156789264
C                     0.857999758884     3.018617218206    -8.360360248590
C                    -1.671531968282    -1.389678003930    -7.801833695043
C                    -3.134839303005    -1.484549365226    -5.884001094236
C                    -0.374844672176     2.607754109769    -7.799057599645
C                    -0.068177895339     0.417634047266    -8.466781653941
C                     0.471934963477     5.318661902695    -7.666710278713
C                    -2.794100112640     3.860912246335    -5.250728783567
C                    -3.561404305806     2.827628277989    -7.379784785809
C                    -4.419401873897    -2.057578766372    -2.017979726600
C                    -2.624221331966    -2.937532918245    -2.888138771261
C                    -3.782594918757     3.009159387381    -4.456002468590
C                    -4.569406144982     1.957680179240    -6.648574060940
C                    -1.006345742053     4.938367430222    -7.551408147328
C                    -2.342956696398     3.048530965620    -6.465793336608
C                    -3.354074156362    -3.060466890989    -1.538592667387
C                    -1.706022040214     5.275713345808    -8.883541585124
C                     2.713786501077     4.671071649529    -8.409760020728
C                    -6.049819350002     3.541343954473    -5.393213573491
N                    -0.815336513182     1.348439753079    -7.861566064977
N                     1.313053043281     4.335864684103    -8.145751515326
N                    -1.144034440163     3.543187438538    -7.124006626483
N                    -3.826603544600    -2.190012496651    -3.395635882658
N                    -0.561895184543    -0.897135466966    -8.487750020450
N                    -4.963998784600     2.516877142103    -5.287828439996
O                     0.841247590634     6.457574468387    -7.406338443148
O                    -2.495821625399     0.042229992444    -3.815696075141
O                    -4.934922290785    -0.166406774910    -4.362153244827
F                    -3.844582610213    -4.304610869487    -1.290909464147
F                    -2.638725364921    -2.670863609285    -0.452900295165
S                    -3.597750408596    -0.810780995912    -4.299174563209
H                    -4.105901926990    -3.764471408933    -8.178264163150
H                     2.555094563679     2.296329278376    -9.479647150277
H                    -2.178648823518    -2.792284251625    -9.364252524007
H                    -4.778134952128    -2.898341323758    -5.926583095361
H                     1.738184023468    -0.041430511514    -9.579936407777
H                    -1.421546711881    -0.186545391552    -6.012654509524
H                    -3.233528826046     4.822759926543    -5.536987597854
H                    -1.948324712454     4.072981860340    -4.589640378655
H                    -3.261294690789     2.288491232534    -8.280797216691
H                    -4.004596612203     3.778844417611    -7.689852071278
H                    -5.456355458652    -2.388021073110    -1.970987414432
H                    -4.289642308901    -1.072026534802    -1.564652692349
H                    -1.722343812764    -2.324239592621    -2.815336121106
H                    -2.442800582482    -3.868158137587    -3.425807730965
H                    -3.285033294703     2.114184736178    -4.080530382746
H                    -4.207882090890     3.550870752964    -3.608993196486
H                    -5.496786814800     1.817402656254    -7.207046707205
H                    -4.142634376769     0.974927845459    -6.460970436677
H                    -1.396692015019     5.580297461065    -6.761204096125
H                    -2.056171535999     2.062921164862    -6.093979558657
H                    -1.367910145907     4.606204456157    -9.680279657227
H                    -1.472266341942     6.304515881693    -9.170025691316
H                    -2.791593363150     5.187710027359    -8.797632183855
H                     2.926318367250     4.630510200456    -9.483016130530
H                     3.371926415240     3.975039519645    -7.881853766715
H                     2.888189990323     5.683700418439    -8.051843214219
H                    -5.679144705374     4.405453413511    -5.943199434404
H                    -6.899646744758     3.104905563275    -5.918541993640
H                    -6.351760246259     3.843349913068    -4.390140374437
H                    -0.221110701901    -1.472829831003    -9.246895528719
H                    -5.320000858624     1.691418040392    -4.776508224340
