
  -OEChem-05262117483D

 67 71  0     1  0  0  0  0  0999 V2000
   -3.5353   -2.9700   -7.7065 C   0  0  0  0  0  0  0  0  0  0  0  0
    1.6017    2.0456   -9.0284 C   0  0  0  0  0  0  0  0  0  0  0  0
   -2.4401   -2.4214   -8.3759 C   0  0  0  0  0  0  0  0  0  0  0  0
   -3.9181   -2.4959   -6.4501 C   0  0  0  0  0  0  0  0  0  0  0  0
    1.1468    0.7242   -9.0876 C   0  0  0  0  0  0  0  0  0  0  0  0
   -2.0192   -0.9341   -6.5142 C   0  0  0  0  0  0  0  0  0  0  0  0
    0.8580    3.0186   -8.3604 C   0  0  0  0  0  0  0  0  0  0  0  0
   -1.6715   -1.3897   -7.8018 C   0  0  0  0  0  0  0  0  0  0  0  0
   -3.1348   -1.4845   -5.8840 C   0  0  0  0  0  0  0  0  0  0  0  0
   -0.3748    2.6078   -7.7991 C   0  0  0  0  0  0  0  0  0  0  0  0
   -0.0682    0.4176   -8.4668 C   0  0  0  0  0  0  0  0  0  0  0  0
    0.4719    5.3187   -7.6667 C   0  0  0  0  0  0  0  0  0  0  0  0
   -2.7941    3.8609   -5.2507 C   0  0  0  0  0  0  0  0  0  0  0  0
   -3.5614    2.8276   -7.3798 C   0  0  0  0  0  0  0  0  0  0  0  0
   -4.4194   -2.0576   -2.0180 C   0  0  0  0  0  0  0  0  0  0  0  0
   -2.6242   -2.9375   -2.8881 C   0  0  0  0  0  0  0  0  0  0  0  0
   -3.7826    3.0092   -4.4560 C   0  0  0  0  0  0  0  0  0  0  0  0
   -4.5694    1.9577   -6.6486 C   0  0  0  0  0  0  0  0  0  0  0  0
   -1.0063    4.9384   -7.5514 C   0  0  1  0  0  0  0  0  0  0  0  0
   -2.3430    3.0485   -6.4658 C   0  0  0  0  0  0  0  0  0  0  0  0
   -3.3541   -3.0605   -1.5386 C   0  0  0  0  0  0  0  0  0  0  0  0
   -1.7060    5.2757   -8.8835 C   0  0  0  0  0  0  0  0  0  0  0  0
    2.7138    4.6711   -8.4098 C   0  0  0  0  0  0  0  0  0  0  0  0
   -6.0498    3.5413   -5.3932 C   0  0  0  0  0  0  0  0  0  0  0  0
   -0.8153    1.3484   -7.8616 N   0  0  0  0  0  0  0  0  0  0  0  0
    1.3131    4.3359   -8.1458 N   0  0  0  0  0  0  0  0  0  0  0  0
   -1.1440    3.5432   -7.1240 N   0  0  1  0  0  0  0  0  0  0  0  0
   -3.8266   -2.1900   -3.3956 N   0  0  0  0  0  0  0  0  0  0  0  0
   -0.5619   -0.8971   -8.4878 N   0  0  0  0  0  0  0  0  0  0  0  0
   -4.9640    2.5169   -5.2878 N   0  3  0  0  0  0  0  0  0  0  0  0
    0.8412    6.4576   -7.4063 O   0  0  0  0  0  0  0  0  0  0  0  0
   -2.4958    0.0422   -3.8157 O   0  0  0  0  0  0  0  0  0  0  0  0
   -4.9349   -0.1664   -4.3622 O   0  0  0  0  0  0  0  0  0  0  0  0
   -3.8446   -4.3046   -1.2909 F   0  0  0  0  0  0  0  0  0  0  0  0
   -2.6387   -2.6709   -0.4529 F   0  0  0  0  0  0  0  0  0  0  0  0
   -3.5978   -0.8108   -4.2992 S   0  0  0  0  0  0  0  0  0  0  0  0
   -4.1059   -3.7645   -8.1783 H   0  0  0  0  0  0  0  0  0  0  0  0
    2.5551    2.2963   -9.4796 H   0  0  0  0  0  0  0  0  0  0  0  0
   -2.1786   -2.7923   -9.3643 H   0  0  0  0  0  0  0  0  0  0  0  0
   -4.7781   -2.8983   -5.9266 H   0  0  0  0  0  0  0  0  0  0  0  0
    1.7382   -0.0414   -9.5799 H   0  0  0  0  0  0  0  0  0  0  0  0
   -1.4215   -0.1865   -6.0127 H   0  0  0  0  0  0  0  0  0  0  0  0
   -3.2335    4.8228   -5.5370 H   0  0  0  0  0  0  0  0  0  0  0  0
   -1.9483    4.0730   -4.5896 H   0  0  0  0  0  0  0  0  0  0  0  0
   -3.2613    2.2885   -8.2808 H   0  0  0  0  0  0  0  0  0  0  0  0
   -4.0046    3.7788   -7.6899 H   0  0  0  0  0  0  0  0  0  0  0  0
   -5.4564   -2.3880   -1.9710 H   0  0  0  0  0  0  0  0  0  0  0  0
   -4.2896   -1.0720   -1.5647 H   0  0  0  0  0  0  0  0  0  0  0  0
   -1.7223   -2.3242   -2.8153 H   0  0  0  0  0  0  0  0  0  0  0  0
   -2.4428   -3.8682   -3.4258 H   0  0  0  0  0  0  0  0  0  0  0  0
   -3.2850    2.1142   -4.0805 H   0  0  0  0  0  0  0  0  0  0  0  0
   -4.2079    3.5509   -3.6090 H   0  0  0  0  0  0  0  0  0  0  0  0
   -5.4968    1.8174   -7.2070 H   0  0  0  0  0  0  0  0  0  0  0  0
   -4.1426    0.9749   -6.4610 H   0  0  0  0  0  0  0  0  0  0  0  0
   -1.3967    5.5803   -6.7612 H   0  0  0  0  0  0  0  0  0  0  0  0
   -2.0562    2.0629   -6.0940 H   0  0  0  0  0  0  0  0  0  0  0  0
   -1.3679    4.6062   -9.6803 H   0  0  0  0  0  0  0  0  0  0  0  0
   -1.4723    6.3045   -9.1700 H   0  0  0  0  0  0  0  0  0  0  0  0
   -2.7916    5.1877   -8.7976 H   0  0  0  0  0  0  0  0  0  0  0  0
    2.9263    4.6305   -9.4830 H   0  0  0  0  0  0  0  0  0  0  0  0
    3.3719    3.9750   -7.8819 H   0  0  0  0  0  0  0  0  0  0  0  0
    2.8882    5.6837   -8.0518 H   0  0  0  0  0  0  0  0  0  0  0  0
   -5.6791    4.4055   -5.9432 H   0  0  0  0  0  0  0  0  0  0  0  0
   -6.8996    3.1049   -5.9185 H   0  0  0  0  0  0  0  0  0  0  0  0
   -6.3518    3.8433   -4.3901 H   0  0  0  0  0  0  0  0  0  0  0  0
   -0.2211   -1.4728   -9.2469 H   0  0  0  0  0  0  0  0  0  0  0  0
   -5.3200    1.6914   -4.7765 H   0  0  0  0  0  0  0  0  0  0  0  0
  1  3  1  0  0  0  0
  1  4  2  0  0  0  0
  1 37  1  0  0  0  0
  2  5  2  0  0  0  0
  2  7  1  0  0  0  0
  2 38  1  0  0  0  0
  3  8  2  0  0  0  0
  3 39  1  0  0  0  0
  4  9  1  0  0  0  0
  4 40  1  0  0  0  0
  5 11  1  0  0  0  0
  5 41  1  0  0  0  0
  6  8  1  0  0  0  0
  6  9  2  0  0  0  0
  6 42  1  0  0  0  0
  7 10  2  0  0  0  0
  7 26  1  0  0  0  0
  8 29  1  0  0  0  0
  9 36  1  0  0  0  0
 10 25  1  0  0  0  0
 10 27  1  0  0  0  0
 11 25  2  0  0  0  0
 11 29  1  0  0  0  0
 12 19  1  0  0  0  0
 12 26  1  0  0  0  0
 12 31  2  0  0  0  0
 13 17  1  0  0  0  0
 13 20  1  0  0  0  0
 13 43  1  0  0  0  0
 13 44  1  0  0  0  0
 14 18  1  0  0  0  0
 14 20  1  0  0  0  0
 14 45  1  0  0  0  0
 14 46  1  0  0  0  0
 15 21  1  0  0  0  0
 15 28  1  0  0  0  0
 15 47  1  0  0  0  0
 15 48  1  0  0  0  0
 16 21  1  0  0  0  0
 16 28  1  0  0  0  0
 16 49  1  0  0  0  0
 16 50  1  0  0  0  0
 17 30  1  0  0  0  0
 17 51  1  0  0  0  0
 17 52  1  0  0  0  0
 18 30  1  0  0  0  0
 18 53  1  0  0  0  0
 18 54  1  0  0  0  0
 19 22  1  0  0  0  0
 19 27  1  0  0  0  0
 19 55  1  0  0  0  0
 20 27  1  0  0  0  0
 20 56  1  0  0  0  0
 21 34  1  0  0  0  0
 21 35  1  0  0  0  0
 22 57  1  0  0  0  0
 22 58  1  0  0  0  0
 22 59  1  0  0  0  0
 23 26  1  0  0  0  0
 23 60  1  0  0  0  0
 23 61  1  0  0  0  0
 23 62  1  0  0  0  0
 24 30  1  0  0  0  0
 24 63  1  0  0  0  0
 24 64  1  0  0  0  0
 24 65  1  0  0  0  0
 28 36  1  0  0  0  0
 29 66  1  0  0  0  0
 30 67  1  0  0  0  0
 32 36  2  0  0  0  0
 33 36  2  0  0  0  0
M  CHG  1  30   1
M  END
$$$$
