
  -OEChem-05262117483D

 66 68  0     1  0  0  0  0  0999 V2000
    0.1050   -7.1573   -3.8419 C   0  0  0  0  0  0  0  0  0  0  0  0
   -0.4192   -6.5409   -2.7071 C   0  0  0  0  0  0  0  0  0  0  0  0
   -1.3820   -1.6689   -1.7935 C   0  0  0  0  0  0  0  0  0  0  0  0
   -0.7455   -2.5991    0.3376 C   0  0  0  0  0  0  0  0  0  0  0  0
   -2.3404   -5.8286   -4.0162 C   0  0  0  0  0  0  0  0  0  0  0  0
   -1.8316   -2.9256   -2.2322 C   0  0  0  0  0  0  0  0  0  0  0  0
   -0.5680   -7.1249   -5.0717 C   0  0  0  0  0  0  0  0  0  0  0  0
   -0.8411   -1.4910   -0.5200 C   0  0  0  0  0  0  0  0  0  0  0  0
   -1.6361   -5.8703   -2.8119 C   0  0  0  0  0  0  0  0  0  0  0  0
   -1.7310   -4.0137   -1.3657 C   0  0  0  0  0  0  0  0  0  0  0  0
   -1.1831   -3.8603   -0.0756 C   0  0  0  0  0  0  0  0  0  0  0  0
   -1.8079   -6.4745   -5.1450 C   0  0  0  0  0  0  0  0  0  0  0  0
   -3.6450   -5.0875   -4.0659 C   0  0  0  0  0  0  0  0  0  0  0  0
   -2.3575   -3.0579   -3.6442 C   0  0  0  0  0  0  0  0  0  0  0  0
   -0.3741   -0.1323   -0.0494 C   0  0  0  0  0  0  0  0  0  0  0  0
   -3.1198   -6.0047    3.3842 C   0  0  0  0  0  0  0  0  0  0  0  0
    2.3462   -4.7160   -7.4014 C   0  0  0  0  0  0  0  0  0  0  0  0
    0.0853   -5.3235   -8.3560 C   0  0  0  0  0  0  0  0  0  0  0  0
    0.2981   -7.2648    1.9083 C   0  0  0  0  0  0  0  0  0  0  0  0
   -3.4228   -7.4463   -6.5825 C   0  0  0  0  0  0  0  0  0  0  0  0
   -2.0943   -6.8756    2.6495 C   0  0  0  0  0  0  0  0  0  0  0  0
    1.2968   -6.9119   -6.7630 C   0  0  0  0  0  0  0  0  0  0  0  0
   -0.6032   -4.9080    2.0064 C   0  0  0  0  0  0  0  0  0  0  0  0
    0.0795   -7.7315   -6.2976 C   0  0  1  0  0  0  0  0  0  0  0  0
    1.0207   -5.4471   -7.1437 C   0  0  0  0  0  0  0  0  0  0  0  0
   -0.6640   -6.3047    2.6231 C   0  0  2  0  0  0  0  0  0  0  0  0
   -4.7043   -5.6058   -4.3439 O   0  0  0  0  0  0  0  0  0  0  0  0
   -2.2136   -5.2719   -1.7002 O   0  0  0  0  0  0  0  0  0  0  0  0
   -3.6128   -3.7640   -3.7527 O   0  0  0  0  0  0  0  0  0  0  0  0
    0.4852   -9.0675   -5.9408 O   0  0  0  0  0  0  0  0  0  0  0  0
   -2.4738   -6.3831   -6.3486 O   0  0  0  0  0  0  0  0  0  0  0  0
   -1.1127   -4.9943    0.6713 O   0  0  0  0  0  0  0  0  0  0  0  0
    1.0483   -7.6914   -3.7805 H   0  0  0  0  0  0  0  0  0  0  0  0
    0.0888   -6.5729   -1.7481 H   0  0  0  0  0  0  0  0  0  0  0  0
   -1.4683   -0.8159   -2.4629 H   0  0  0  0  0  0  0  0  0  0  0  0
   -0.3235   -2.4663    1.3281 H   0  0  0  0  0  0  0  0  0  0  0  0
   -2.5689   -2.0638   -4.0418 H   0  0  0  0  0  0  0  0  0  0  0  0
   -1.6142   -3.5264   -4.2956 H   0  0  0  0  0  0  0  0  0  0  0  0
   -0.9697    0.2175    0.8015 H   0  0  0  0  0  0  0  0  0  0  0  0
    0.6719   -0.1622    0.2753 H   0  0  0  0  0  0  0  0  0  0  0  0
   -0.4571    0.6142   -0.8437 H   0  0  0  0  0  0  0  0  0  0  0  0
   -2.7894   -5.7672    4.4029 H   0  0  0  0  0  0  0  0  0  0  0  0
   -3.3016   -5.0613    2.8594 H   0  0  0  0  0  0  0  0  0  0  0  0
   -4.0820   -6.5215    3.4600 H   0  0  0  0  0  0  0  0  0  0  0  0
    2.8817   -5.1618   -8.2489 H   0  0  0  0  0  0  0  0  0  0  0  0
    2.1731   -3.6604   -7.6379 H   0  0  0  0  0  0  0  0  0  0  0  0
    3.0057   -4.7617   -6.5274 H   0  0  0  0  0  0  0  0  0  0  0  0
    0.5081   -5.8427   -9.2259 H   0  0  0  0  0  0  0  0  0  0  0  0
   -0.9042   -5.7384   -8.1500 H   0  0  0  0  0  0  0  0  0  0  0  0
   -0.0493   -4.2721   -8.6334 H   0  0  0  0  0  0  0  0  0  0  0  0
   -0.0026   -7.4068    0.8657 H   0  0  0  0  0  0  0  0  0  0  0  0
    0.3001   -8.2460    2.3942 H   0  0  0  0  0  0  0  0  0  0  0  0
    1.3257   -6.8832    1.9174 H   0  0  0  0  0  0  0  0  0  0  0  0
   -3.8234   -7.2739   -7.5831 H   0  0  0  0  0  0  0  0  0  0  0  0
   -4.2265   -7.4030   -5.8438 H   0  0  0  0  0  0  0  0  0  0  0  0
   -2.9214   -8.4208   -6.5449 H   0  0  0  0  0  0  0  0  0  0  0  0
   -2.4269   -7.0404    1.6191 H   0  0  0  0  0  0  0  0  0  0  0  0
   -2.0519   -7.8630    3.1256 H   0  0  0  0  0  0  0  0  0  0  0  0
    1.7415   -7.4222   -7.6315 H   0  0  0  0  0  0  0  0  0  0  0  0
    2.0442   -6.9472   -5.9611 H   0  0  0  0  0  0  0  0  0  0  0  0
    0.4340   -4.5455    1.9844 H   0  0  0  0  0  0  0  0  0  0  0  0
   -1.2034   -4.1941    2.5832 H   0  0  0  0  0  0  0  0  0  0  0  0
   -0.6568   -7.7765   -7.1051 H   0  0  0  0  0  0  0  0  0  0  0  0
    0.5330   -4.9647   -6.2864 H   0  0  0  0  0  0  0  0  0  0  0  0
   -0.3238   -6.1809    3.6618 H   0  0  0  0  0  0  0  0  0  0  0  0
    0.9905   -9.4277   -6.6872 H   0  0  0  0  0  0  0  0  0  0  0  0
  1  2  1  0  0  0  0
  1  7  2  0  0  0  0
  1 33  1  0  0  0  0
  2  9  2  0  0  0  0
  2 34  1  0  0  0  0
  3  6  1  0  0  0  0
  3  8  2  0  0  0  0
  3 35  1  0  0  0  0
  4  8  1  0  0  0  0
  4 11  2  0  0  0  0
  4 36  1  0  0  0  0
  5  9  1  0  0  0  0
  5 12  2  0  0  0  0
  5 13  1  0  0  0  0
  6 10  2  0  0  0  0
  6 14  1  0  0  0  0
  7 12  1  0  0  0  0
  7 24  1  0  0  0  0
  8 15  1  0  0  0  0
  9 28  1  0  0  0  0
 10 11  1  0  0  0  0
 10 28  1  0  0  0  0
 11 32  1  0  0  0  0
 12 31  1  0  0  0  0
 13 27  2  0  0  0  0
 13 29  1  0  0  0  0
 14 29  1  0  0  0  0
 14 37  1  0  0  0  0
 14 38  1  0  0  0  0
 15 39  1  0  0  0  0
 15 40  1  0  0  0  0
 15 41  1  0  0  0  0
 16 21  1  0  0  0  0
 16 42  1  0  0  0  0
 16 43  1  0  0  0  0
 16 44  1  0  0  0  0
 17 25  1  0  0  0  0
 17 45  1  0  0  0  0
 17 46  1  0  0  0  0
 17 47  1  0  0  0  0
 18 25  1  0  0  0  0
 18 48  1  0  0  0  0
 18 49  1  0  0  0  0
 18 50  1  0  0  0  0
 19 26  1  0  0  0  0
 19 51  1  0  0  0  0
 19 52  1  0  0  0  0
 19 53  1  0  0  0  0
 20 31  1  0  0  0  0
 20 54  1  0  0  0  0
 20 55  1  0  0  0  0
 20 56  1  0  0  0  0
 21 26  1  0  0  0  0
 21 57  1  0  0  0  0
 21 58  1  0  0  0  0
 22 24  1  0  0  0  0
 22 25  1  0  0  0  0
 22 59  1  0  0  0  0
 22 60  1  0  0  0  0
 23 26  1  0  0  0  0
 23 32  1  0  0  0  0
 23 61  1  0  0  0  0
 23 62  1  0  0  0  0
 24 30  1  0  0  0  0
 24 63  1  0  0  0  0
 25 64  1  0  0  0  0
 26 65  1  0  0  0  0
 30 66  1  0  0  0  0
M  END
$$$$
