65
-1 1 C29F3H27NO4S
C                     5.015572628390    -4.533352179763     0.730082153924
C                     6.681062996333    -2.941708512737     1.480811987675
C                     3.719826727959    -2.224308847390    -0.661998356877
C                    -0.585576256312    -0.887162535044    -3.725593320193
C                     5.841705663738    -5.579692812600     1.146832094241
C                     7.504908107551    -3.983454336896     1.895646195362
C                     2.855364371222    -1.205588624356    -1.069462930513
C                    -0.314872547923     0.101637061272    -2.784710037665
C                     4.508941711295    -0.868351327684     1.183389439281
C                    -0.316028969465    -1.622115744025    -1.060618950545
C                     5.424860540316    -3.197877993318     0.895455959043
C                     4.544241403192    -2.083407027590     0.469276297794
C                    -0.696693950654    -2.242504171854    -3.366061020328
C                     3.641881734758     0.144932731950     0.793085145942
C                    -0.545088770337    -2.624515660331    -2.016398613887
C                     7.083539640834    -5.310342443177     1.728970132753
C                     2.796971179472    -0.039440217816    -0.307097331292
C                    -0.185756986301    -0.292330249637    -1.449420295936
C                     1.350356110138    -5.785394482680    -0.668840036116
C                    -1.000673443905    -3.270568061021    -4.438973133193
C                    -0.591525843317    -4.694713583351    -4.045938047318
C                    -1.082757565996    -5.022882100283    -2.633322359765
C                     2.564967380565     2.200277513226     0.303241650883
C                    -0.467869199716    -4.079893237509    -1.588599067112
C                     3.428007097288     1.519374755590     1.408118422110
C                     2.675779353357     1.411535837953     2.748862758481
C                     4.747227801503     2.282210412345     1.603756819135
C                     1.016327288979    -4.394269803508    -1.293878539890
C                     7.976895819413    -6.414494945432     2.207779928422
N                     1.969809524170     1.114234180093    -0.540667505326
O                     0.396504906137    -6.554889739379    -0.394419249413
O                     2.594909227289    -5.959531626453    -0.493012573330
O                    -0.317056292935     2.228308289372    -0.563317718721
O                     0.025292072410     0.350693770421     1.106347291195
F                     7.563203697857    -7.642200737687     1.817344663724
F                     9.260601070306    -6.270480372985     1.759858111288
F                     8.070847470717    -6.451362515320     3.572145708873
S                     0.262905403755     0.919375986073    -0.230653857259
H                     4.049845380714    -4.797672095370     0.292044060018
H                     7.029334209359    -1.917588004517     1.585615259076
H                     3.752831230124    -3.147592484365    -1.230804696335
H                    -0.699933377743    -0.608411343057    -4.771722784864
H                     5.497276541850    -6.600158928839     1.013805389146
H                     8.476575713382    -3.769939301799     2.332986346861
H                     2.244249001412    -1.331915951255    -1.954924361912
H                    -0.203948061472     1.144360974253    -3.063809200710
H                     5.132755714879    -0.740253220377     2.064715419572
H                    -0.187693711391    -1.886745852728    -0.015450852696
H                    -2.084645635645    -3.251503139647    -4.625466840007
H                    -0.525579742281    -2.967807157051    -5.380215822299
H                    -1.001862960190    -5.406841183150    -4.771843828859
H                     0.498870893142    -4.793683951321    -4.092047490811
H                    -2.178426637883    -4.930002890098    -2.609224121726
H                    -0.832513679525    -6.044739804416    -2.341940654987
H                     1.785899043536     2.852854705966     0.699644790951
H                     3.198234182499     2.796178064544    -0.361890922069
H                    -1.012407197120    -4.211982055374    -0.647630692889
H                     2.499061211241     2.409132539720     3.170079764097
H                     3.267676726702     0.837487050996     3.470321567582
H                     1.713197333934     0.913015540589     2.619078941294
H                     4.554629696890     3.309831142058     1.935513072887
H                     5.323668781667     2.321642258577     0.673539087412
H                     5.368414059229     1.799381415218     2.365715227077
H                     1.400119511688    -3.647623614417    -0.592468059216
H                     1.618038925751    -4.271564292442    -2.203134366358
