52
0 1 C19H24N4O4S
C                    -3.043947502502    -0.608314381917    -1.060745603818
C                    -1.953130334749     0.298510679617    -0.777311315228
C                    -0.923104616325    -0.332650674366    -0.131070654453
C                    -4.304631279852    -0.306399362426    -1.718161122006
C                    -2.814454252577    -1.894148671482    -0.615231802290
C                    -4.952296617973    -2.707176278658    -1.380717742561
C                     0.214888350502     2.396345602145     1.591567370257
C                    -6.852196133375    -2.143334552788    -3.720705606637
C                    -0.526355277942     1.733413612624     3.710553558813
C                    -0.576740446839     0.525829423964     2.756243812176
C                    -2.385247946396    -6.574031470825    -0.707228900525
C                    -3.329444343939    -5.739235894499    -2.367234505432
C                    -6.315638392896    -0.791535302311    -4.126975827310
C                    -2.599043979884    -5.111169766815    -1.156147878027
C                    -6.372895171295    -1.183474732064    -2.663454821413
C                    -1.964541782001     1.755292497317    -1.150065261162
C                    -5.001680250206    -0.694622370044    -4.873265340378
C                     0.368769924177     0.234927788752     0.401173513869
C                    -3.435456986354    -4.260449173845    -0.206938447181
N                    -5.137682211833    -1.440486334675    -1.943606388524
N                    -3.719039677402    -2.921845036493    -0.746061855740
N                    -0.398781537625     2.839187270431     2.760439568319
N                     0.214001020863     1.007523023760     1.628149168576
O                    -4.667494300457     0.807476707573    -2.078202204591
O                    -5.791511744776    -3.597467282913    -1.438121917980
O                     0.662346010429     3.099523545287     0.692178523850
O                    -3.082535639173    -7.084775206120    -1.869618233247
S                    -1.267162070599    -2.043271941888     0.158982556230
H                    -7.918554852161    -2.344063422908    -3.754260865860
H                    -6.230006301653    -3.007871147796    -3.924848712246
H                    -1.432890223362     1.821027573065     4.314227474643
H                     0.343070935659     1.665395502344     4.378750528199
H                    -0.142598944032    -0.376412386122     3.197313874536
H                    -1.608016690389     0.304530070388     2.448904287058
H                    -1.343781977605    -6.914651654527    -0.673064732961
H                    -2.890779661882    -6.857896758378     0.225630086951
H                    -4.399259658849    -5.520648648212    -2.434803428928
H                    -2.850064603248    -5.579954548940    -3.339719092083
H                    -7.047144049392    -0.035618097826    -4.402522692533
H                    -1.673326508747    -4.593846490796    -1.419357976728
H                    -7.121913820575    -0.687586175846    -2.053416713525
H                    -2.759866464108     2.279461050980    -0.611559629954
H                    -1.014655083702     2.240316320427    -0.921807729984
H                    -2.187456935855     1.874121568353    -2.213656351386
H                    -4.286434595403    -1.446597257228    -4.523894163726
H                    -4.548398095474     0.291302269987    -4.740012713657
H                    -5.159146898939    -0.864527339698    -5.944077662195
H                     1.086106109425    -0.575044608507     0.577986712088
H                     0.819862348902     0.911297312769    -0.328689454854
H                    -2.918692828393    -4.134285775462     0.751003952838
H                    -4.396308209999    -4.737310803612    -0.012656897567
H                    -0.116594911311     3.757665634368     3.079904279034
