
  -OEChem-05262117483D

 52 56  0     1  0  0  0  0  0999 V2000
   -2.5647   -0.8097   -1.1434 C   0  0  0  0  0  0  0  0  0  0  0  0
   -1.5740    0.2079   -0.8725 C   0  0  0  0  0  0  0  0  0  0  0  0
   -0.5433   -0.2748   -0.1086 C   0  0  0  0  0  0  0  0  0  0  0  0
   -3.7966   -0.6741   -1.8974 C   0  0  0  0  0  0  0  0  0  0  0  0
   -2.2514   -2.0292   -0.5773 C   0  0  0  0  0  0  0  0  0  0  0  0
   -4.2600   -3.0875   -1.3918 C   0  0  0  0  0  0  0  0  0  0  0  0
    2.5422   -1.1259   -0.2984 C   0  0  0  0  0  0  0  0  0  0  0  0
   -6.0419   -2.8866   -3.8799 C   0  0  0  0  0  0  0  0  0  0  0  0
    3.1551   -0.3267   -2.4117 C   0  0  0  0  0  0  0  0  0  0  0  0
    1.8900    0.4095   -1.9338 C   0  0  0  0  0  0  0  0  0  0  0  0
   -1.4127   -6.6378   -0.2507 C   0  0  0  0  0  0  0  0  0  0  0  0
   -2.2978   -6.0112   -2.0306 C   0  0  0  0  0  0  0  0  0  0  0  0
   -5.5969   -1.5290   -4.3692 C   0  0  1  0  0  0  0  0  0  0  0  0
   -1.7238   -5.2361   -0.8209 C   0  0  0  0  0  0  0  0  0  0  0  0
   -5.7169   -1.8054   -2.8831 C   0  0  2  0  0  0  0  0  0  0  0  0
   -1.6820    1.6135   -1.3990 C   0  0  0  0  0  0  0  0  0  0  0  0
   -4.2495   -1.3747   -5.0427 C   0  0  0  0  0  0  0  0  0  0  0  0
    0.7269    0.4029    0.3297 C   0  0  0  0  0  0  0  0  0  0  0  0
   -2.6981   -4.3988   -0.0009 C   0  0  0  0  0  0  0  0  0  0  0  0
   -4.5155   -1.8906   -2.0719 N   0  0  0  0  0  0  0  0  0  0  0  0
   -3.0595   -3.1377   -0.6683 N   0  0  0  0  0  0  0  0  0  0  0  0
    3.1834   -1.4597   -1.4859 N   0  0  0  0  0  0  0  0  0  0  0  0
    1.8782    0.0797   -0.5102 N   0  0  0  0  0  0  0  0  0  0  0  0
   -4.2223    0.3715   -2.3794 O   0  0  0  0  0  0  0  0  0  0  0  0
   -5.0149   -4.0513   -1.4257 O   0  0  0  0  0  0  0  0  0  0  0  0
    2.5386   -1.7778    0.7407 O   0  0  0  0  0  0  0  0  0  0  0  0
   -1.9295   -7.2886   -1.4386 O   0  0  0  0  0  0  0  0  0  0  0  0
   -0.7489   -1.9860    0.2916 S   0  0  0  0  0  0  0  0  0  0  0  0
   -7.0827   -3.1850   -3.9587 H   0  0  0  0  0  0  0  0  0  0  0  0
   -5.3364   -3.7052   -3.9717 H   0  0  0  0  0  0  0  0  0  0  0  0
    3.0760   -0.6555   -3.4507 H   0  0  0  0  0  0  0  0  0  0  0  0
    4.0418    0.3128   -2.3047 H   0  0  0  0  0  0  0  0  0  0  0  0
    1.9470    1.4896   -2.0948 H   0  0  0  0  0  0  0  0  0  0  0  0
    0.9921    0.0236   -2.4368 H   0  0  0  0  0  0  0  0  0  0  0  0
   -0.3533   -6.8650   -0.0876 H   0  0  0  0  0  0  0  0  0  0  0  0
   -1.9864   -6.9151    0.6439 H   0  0  0  0  0  0  0  0  0  0  0  0
   -3.3800   -5.9239   -2.1683 H   0  0  0  0  0  0  0  0  0  0  0  0
   -1.7835   -5.8505   -2.9849 H   0  0  0  0  0  0  0  0  0  0  0  0
   -6.3702   -0.8670   -4.7516 H   0  0  0  0  0  0  0  0  0  0  0  0
   -0.8269   -4.6589   -1.0574 H   0  0  0  0  0  0  0  0  0  0  0  0
   -6.5449   -1.3320   -2.3640 H   0  0  0  0  0  0  0  0  0  0  0  0
   -2.5937    2.0944   -1.0350 H   0  0  0  0  0  0  0  0  0  0  0  0
   -0.8223    2.2204   -1.1074 H   0  0  0  0  0  0  0  0  0  0  0  0
   -1.7540    1.6108   -2.4904 H   0  0  0  0  0  0  0  0  0  0  0  0
   -3.4976   -2.0272   -4.5866 H   0  0  0  0  0  0  0  0  0  0  0  0
   -3.8927   -0.3438   -4.9693 H   0  0  0  0  0  0  0  0  0  0  0  0
   -4.3201   -1.6457   -6.1020 H   0  0  0  0  0  0  0  0  0  0  0  0
    0.5873    1.4864    0.3253 H   0  0  0  0  0  0  0  0  0  0  0  0
    0.9946    0.1114    1.3476 H   0  0  0  0  0  0  0  0  0  0  0  0
   -2.2649   -4.1507    0.9740 H   0  0  0  0  0  0  0  0  0  0  0  0
   -3.6249   -4.9467    0.1694 H   0  0  0  0  0  0  0  0  0  0  0  0
    4.0097   -2.0383   -1.3990 H   0  0  0  0  0  0  0  0  0  0  0  0
  1  2  1  0  0  0  0
  1  4  1  0  0  0  0
  1  5  2  0  0  0  0
  2  3  2  0  0  0  0
  2 16  1  0  0  0  0
  3 18  1  0  0  0  0
  3 28  1  0  0  0  0
  4 20  1  0  0  0  0
  4 24  2  0  0  0  0
  5 21  1  0  0  0  0
  5 28  1  0  0  0  0
  6 20  1  0  0  0  0
  6 21  1  0  0  0  0
  6 25  2  0  0  0  0
  7 22  1  0  0  0  0
  7 23  1  0  0  0  0
  7 26  2  0  0  0  0
  8 13  1  0  0  0  0
  8 15  1  0  0  0  0
  8 29  1  0  0  0  0
  8 30  1  0  0  0  0
  9 10  1  0  0  0  0
  9 22  1  0  0  0  0
  9 31  1  0  0  0  0
  9 32  1  0  0  0  0
 10 23  1  0  0  0  0
 10 33  1  0  0  0  0
 10 34  1  0  0  0  0
 11 14  1  0  0  0  0
 11 27  1  0  0  0  0
 11 35  1  0  0  0  0
 11 36  1  0  0  0  0
 12 14  1  0  0  0  0
 12 27  1  0  0  0  0
 12 37  1  0  0  0  0
 12 38  1  0  0  0  0
 13 15  1  0  0  0  0
 13 17  1  0  0  0  0
 13 39  1  0  0  0  0
 14 19  1  0  0  0  0
 14 40  1  0  0  0  0
 15 20  1  0  0  0  0
 15 41  1  0  0  0  0
 16 42  1  0  0  0  0
 16 43  1  0  0  0  0
 16 44  1  0  0  0  0
 17 45  1  0  0  0  0
 17 46  1  0  0  0  0
 17 47  1  0  0  0  0
 18 23  1  0  0  0  0
 18 48  1  0  0  0  0
 18 49  1  0  0  0  0
 19 21  1  0  0  0  0
 19 50  1  0  0  0  0
 19 51  1  0  0  0  0
 22 52  1  0  0  0  0
M  END
$$$$
