66
0 1 C26H34O6
C                     1.069800767828    -6.965078882429    -4.034915365396
C                     0.729726451586    -6.573428801483    -2.743809354249
C                    -1.435975686341    -1.702299553709    -0.419871741895
C                     0.956645376092    -1.944686751425    -0.258218444158
C                    -0.871867937795    -4.991567139241    -3.664780682609
C                    -1.559535501096    -3.033238485080    -0.844598753490
C                     0.491339309698    -6.363533597805    -5.160651836592
C                    -0.193673562041    -1.153725812767    -0.103964541397
C                    -0.215452633329    -5.567002195861    -2.561500745949
C                    -0.413646226016    -3.823633817969    -0.948253662718
C                     0.859867839106    -3.267943611937    -0.696091133143
C                    -0.490299767526    -5.385054168913    -4.963380075897
C                    -1.956196959019    -4.000987099741    -3.411923644987
C                    -2.909742594932    -3.561285748944    -1.279503292793
C                    -0.064897933276     0.276327523320     0.367886907332
C                     4.336606156627    -5.822606827396     0.898079164561
C                     4.145994731433    -4.407954315593    -6.720746715042
C                     1.843836661334    -3.895690206546    -7.634209706713
C                     4.083585497412    -4.745103504259    -2.876499312133
C                    -2.371070960833    -5.344391514698    -6.397605847287
C                     4.159067276532    -5.911580080047    -0.621716419206
C                     2.417885972177    -6.234942778888    -6.781433000983
C                     3.239824754244    -3.536363417943    -0.826682961597
C                     0.979134920703    -6.729870201122    -6.543586921626
C                     2.646828211039    -4.722384349657    -6.618626065176
C                     4.238773641371    -4.562596634426    -1.359323690028
O                    -2.125271258039    -2.941401701082    -3.971434573982
O                    -0.486859528270    -5.180604156398    -1.258262558774
O                    -2.766128477339    -4.460880789251    -2.396054988605
O                     0.922946154209    -8.167482621991    -6.648322828768
O                    -1.089119016916    -4.797897683615    -6.056862243584
O                     1.920736153828    -4.092023434415    -0.914767349994
H                     1.811742724978    -7.743823728137    -4.183827118379
H                     1.207104875818    -7.003993542606    -1.870690245733
H                    -2.327563449933    -1.082002303114    -0.367952287177
H                     1.926745998242    -1.512778879166    -0.037664590144
H                    -3.385496117037    -4.166965426322    -0.504261213920
H                    -3.569558984832    -2.728036772393    -1.538906083174
H                     0.338692115951     0.320596049257     1.385989442976
H                     0.612088897125     0.847457961461    -0.276802174110
H                    -1.033336526226     0.783212953486     0.370031472063
H                     5.266742447977    -5.305405209218     1.163264041485
H                     3.506456724460    -5.288594371091     1.371079303554
H                     4.375333239359    -6.822161691222     1.343456142030
H                     4.536319689142    -4.669914238425    -7.712301197333
H                     4.334207221703    -3.340325047615    -6.562149225193
H                     4.722914574639    -4.965001686542    -5.974465510056
H                     2.102448802753    -4.185525242756    -8.661160434576
H                     0.766463140075    -4.018981548535    -7.500214602032
H                     2.068281550086    -2.828858779049    -7.525357721641
H                     3.089288485434    -5.124270093717    -3.124858835599
H                     4.822471900679    -5.457425185092    -3.259179611812
H                     4.226367430923    -3.798424492999    -3.409373196044
H                    -2.717799283616    -4.787603287121    -7.269754307213
H                    -3.087701181348    -5.215408279129    -5.579070383782
H                    -2.283262654769    -6.410310529556    -6.641826093693
H                     3.196517441667    -6.381065233502    -0.848266094438
H                     4.931350106483    -6.569059004247    -1.039787138215
H                     2.720555772998    -6.530902967228    -7.798079881247
H                     3.071499262145    -6.778461766197    -6.088001052117
H                     3.292787413040    -2.619634640867    -1.427778419133
H                     3.454685582239    -3.275385092377     0.217015198380
H                     0.310945232795    -6.283253250321    -7.285417402305
H                     2.314033193006    -4.439853387732    -5.612161395838
H                     5.229861452863    -4.127683040901    -1.162432338955
H                     1.334364840508    -8.412923346841    -7.492637975024
