62
0 1 C27H28N2O5
C                     3.827553089603    -7.060836948935    -8.117676193043
C                     2.977923808211    -6.324029312504    -7.304767687781
C                     3.748332906327    -7.009553311219    -9.533079681393
C                     0.801068218091    -1.176781391780    -2.702648495566
C                    -0.622990820807    -2.180123481651    -0.536004475122
C                     0.375535084391    -4.054587549370    -8.526669226260
C                     2.005652898026    -5.503107995335    -7.916981740608
C                     0.195224194146    -2.438819238361    -2.810025076366
C                     0.986470216444    -4.605463147678    -7.418995732307
C                     0.692923314315    -4.325784218081    -6.009329853155
C                     0.612287587292    -3.045234556730    -5.354813966785
C                    -0.494698854721    -2.954789408252    -1.689694700721
C                     1.944688804633    -5.448449582876    -9.331400721217
C                     2.803503972681    -6.195446277785   -10.152948314323
C                     0.668675234457    -0.407763532302    -1.551463056209
C                    -0.071370077485    -0.899788089445    -0.458646413533
C                     0.295025222168    -3.274748396941    -4.007552283887
C                     0.393457580960    -5.291336630898    -5.055938705237
C                     0.781863673310    -1.750538845516    -6.035841149858
C                    -1.079896902788    -4.344836566204    -1.786217719344
C                    -0.135764959030    -5.257601483174    -2.569481383882
C                     0.242846544702    -6.771326621153    -5.204529522826
C                    -0.562420768640     1.506581642517    -5.074128531549
C                     3.493807907429    -6.764725093115   -12.368120594373
C                     2.372853965235     0.960455727181    -0.637981373998
C                    -1.017757914277     1.007823220700     0.579086358207
C                     0.204056484591     0.562698300920    -5.985114846872
N                     0.946501519931    -4.561259657619    -9.679153848587
N                     0.152234102140    -4.641104090084    -3.859746722945
O                     1.496448142354    -1.543958646014    -7.003569973291
O                     2.622260846820    -6.038939852850   -11.507298193664
O                     1.246643420051     0.848549394750    -1.523782071491
O                    -0.213796038779    -0.177195814509     0.708538566495
O                     0.010812095851    -0.776736919824    -5.475084008532
H                     4.585857232566    -7.696702122100    -7.667890476187
H                     3.065243080447    -6.365322486657    -6.222986660118
H                     4.436962482047    -7.605824683467   -10.121286403534
H                     1.396195096451    -0.773626998275    -3.511069202365
H                    -1.163180786035    -2.557563254744     0.328821241146
H                    -0.414009463837    -3.317813108225    -8.578243683895
H                    -1.254867797007    -4.762301440808    -0.790423659745
H                    -2.046870981933    -4.312951104502    -2.306094608786
H                     0.799337708068    -5.408516314778    -2.013789632653
H                    -0.589463772022    -6.235392336096    -2.740942579044
H                     0.974165750899    -7.330427310806    -4.608006913113
H                    -0.757265865525    -7.108412419681    -4.903543854936
H                     0.387635483328    -7.047897851745    -6.249310072452
H                    -1.625809221035     1.249144311548    -5.053858493747
H                    -0.175914925196     1.463658343259    -4.051965566251
H                    -0.462611411370     2.534289993392    -5.439664309827
H                     3.199231268783    -6.503909568918   -13.385851663490
H                     3.385265242311    -7.846720501050   -12.223060616471
H                     4.540321480670    -6.478719162034   -12.206114245477
H                     2.729141826703     1.988886960585    -0.725907617786
H                     3.167772270995     0.269806435510    -0.944720288273
H                     2.083510471152     0.753049730767     0.397057065514
H                    -1.049718270429     1.462666786877     1.571221141519
H                    -2.034691825551     0.744094523041     0.263617247647
H                    -0.579680931137     1.707327986069    -0.139072972776
H                     1.274570440421     0.787921434721    -6.000633058535
H                    -0.157002893701     0.603132472291    -7.017709022140
H                     0.707726221267    -4.306978254867   -10.626288693096
