62
0 1 C28H31NO2
C                     0.412158190283    -3.563561507289     7.751043007066
C                     0.097583473878    -6.918248567280    -0.727563265109
C                     1.610388859530    -3.187472988204     7.133024568168
C                    -0.435573863806    -4.473869031128     7.112493159157
C                     0.334283990410    -5.540821476161    -0.813409265656
C                     0.806575566410    -7.689845811112     0.198485042328
C                     1.750451875241    -0.909177344195     1.694557336569
C                    -0.404738406109    -1.810160220530     2.229937488417
C                     1.959489372622    -3.719328729869     5.889488968833
C                    -0.084717064469    -5.000181832016     5.865082569737
C                     1.278194690469    -4.944395144951     0.026685676470
C                     1.742759453676    -7.083259669047     1.043093426844
C                     2.355797816428    -2.067213903313     2.172290616454
C                     0.194117250674    -2.983612971236     2.699033802459
C                     0.352757931967    -0.761828071595     1.700801786408
C                     1.114942086907    -4.632373301120     5.243822512958
C                     1.989624908789    -5.705669993522     0.969262447783
C                     1.585214677219    -3.141246977554     2.655411640025
C                    -1.006214627815    -1.996111213780    -3.137262246699
C                    -1.237070625477     2.354165458194     1.598550540898
C                     0.231228374373     1.853668265898     1.545729045415
C                    -1.709819738676     0.876209783891     1.555384444552
C                    -0.284328661578     0.455221467498     1.069534237143
C                    -0.958008705924    -1.773431337405    -4.630276748637
C                     1.500976041866    -5.248408346790     3.913628223883
C                     2.940797465375    -5.034730505033     1.944389486127
C                    -0.207534814022     0.354647554993    -0.469772560182
C                    -0.796751862461    -0.937131125057    -1.014415826810
N                     2.252446522624    -4.333930112765     3.054939269891
O                    -1.248569349925    -3.059821183664    -2.595691441167
O                    -0.757566348221    -0.850515166377    -2.464660469713
H                     0.139626105839    -3.146901685851     8.717452380042
H                    -0.635291613862    -7.385767700396    -1.380537261381
H                     2.271809164389    -2.475038206326     7.620222563474
H                    -1.371823305545    -4.768057401872     7.580485392575
H                    -0.217376615831    -4.930100708505    -1.522530514470
H                     0.630216777953    -8.760765397149     0.265666052470
H                     2.374181395684    -0.102152781506     1.315228358500
H                    -1.488822508245    -1.735423411795     2.252108923439
H                     2.881649608713    -3.419310260334     5.400553674161
H                    -0.754107995229    -5.699491188116     5.367101255238
H                     1.457860645988    -3.875111192753    -0.044539364126
H                     2.286618802475    -7.687207539918     1.767431690235
H                     3.439429323879    -2.151534508216     2.172976033236
H                    -0.438203943336    -3.780787222947     3.071045984822
H                    -1.521278608192     2.912569634220     0.702377901284
H                    -1.528310420803     2.937247760522     2.475933373079
H                     0.919517657395     2.377975628035     0.874735840147
H                     0.682529628301     1.793244652941     2.539905473782
H                    -1.925555100805     0.495217601849     2.556886172503
H                    -2.552605594544     0.634866737480     0.899862571137
H                    -1.835977935247    -1.196648217716    -4.938566771277
H                    -0.961766012289    -2.735759595189    -5.141757876500
H                    -0.071479728295    -1.196895258805    -4.905732568921
H                     2.159232020466    -6.105495587200     4.101445154187
H                     0.606745456156    -5.662435585690     3.422479756654
H                     3.611532416289    -5.777143339940     2.389334893122
H                     3.565618440274    -4.306758545780     1.423562003911
H                     0.841770454761     0.417726600361    -0.781229951849
H                    -0.726862772068     1.207211340981    -0.922979296578
H                    -0.228976212040    -1.811329956171    -0.694759628029
H                    -1.836353217141    -1.082468481778    -0.704226317281
