
  -OEChem-05262117483D

 49 51  0     1  0  0  0  0  0999 V2000
   -2.4592   -1.6532    6.0572 C   0  0  0  0  0  0  0  0  0  0  0  0
   -1.7836   -0.6421    5.3824 C   0  0  0  0  0  0  0  0  0  0  0  0
   -3.1863   -2.6177    5.3482 C   0  0  0  0  0  0  0  0  0  0  0  0
   -2.6068   -1.5017    3.2364 C   0  0  0  0  0  0  0  0  0  0  0  0
   -1.8702   -0.5712    3.9921 C   0  0  0  0  0  0  0  0  0  0  0  0
   -3.2504   -2.5347    3.9444 C   0  0  0  0  0  0  0  0  0  0  0  0
   -5.9600   -3.9916    7.3750 C   0  0  0  0  0  0  0  0  0  0  0  0
   -3.7339   -3.7579    8.6509 C   0  0  0  0  0  0  0  0  0  0  0  0
   -3.8119   -3.7401    6.1272 C   0  0  0  0  0  0  0  0  0  0  0  0
   -6.0917   -5.4457    7.7958 C   0  0  0  0  0  0  0  0  0  0  0  0
   -4.1503   -5.0214    9.3748 C   0  0  0  0  0  0  0  0  0  0  0  0
   -4.8388   -6.0398    8.4567 C   0  0  0  0  0  0  0  0  0  0  0  0
   -2.2831   -2.6565   -1.1141 C   0  0  0  0  0  0  0  0  0  0  0  0
   -1.8757   -4.1273   -1.2174 C   0  0  0  0  0  0  0  0  0  0  0  0
   -0.0269   -3.0083   -0.3604 C   0  0  0  0  0  0  0  0  0  0  0  0
   -4.5657   -3.3474    7.4170 C   0  0  0  0  0  0  0  0  0  0  0  0
   -1.2594   -2.1263   -0.0965 C   0  0  2  0  0  0  0  0  0  0  0  0
   -2.2789    2.0193    2.9070 C   0  0  0  0  0  0  0  0  0  0  0  0
   -2.6631   -1.4676    1.7237 C   0  0  0  0  0  0  0  0  0  0  0  0
   -6.9161   -3.3237    7.0260 O   0  0  0  0  0  0  0  0  0  0  0  0
   -2.8069   -3.0569    9.0166 O   0  0  0  0  0  0  0  0  0  0  0  0
   -3.7329   -4.9033    5.7763 O   0  0  0  0  0  0  0  0  0  0  0  0
   -0.1174    1.3974    4.2990 O   0  0  0  0  0  0  0  0  0  0  0  0
   -0.3719    0.4189    1.9581 O   0  0  0  0  0  0  0  0  0  0  0  0
   -0.4444   -4.1040   -1.1914 O   0  0  0  0  0  0  0  0  0  0  0  0
   -1.6673   -2.3651    1.2573 O   0  0  0  0  0  0  0  0  0  0  0  0
   -0.9616    0.8244    3.2413 S   0  0  0  0  0  0  0  0  0  0  0  0
   -4.1892   -3.7107    3.0513 Cl  0  0  0  0  0  0  0  0  0  0  0  0
   -2.3956   -1.7187    7.1398 H   0  0  0  0  0  0  0  0  0  0  0  0
   -1.1854    0.0849    5.9208 H   0  0  0  0  0  0  0  0  0  0  0  0
   -6.9564   -5.4860    8.4678 H   0  0  0  0  0  0  0  0  0  0  0  0
   -6.3701   -6.0139    6.9018 H   0  0  0  0  0  0  0  0  0  0  0  0
   -3.2675   -5.4310    9.8721 H   0  0  0  0  0  0  0  0  0  0  0  0
   -4.8410   -4.7016   10.1698 H   0  0  0  0  0  0  0  0  0  0  0  0
   -4.1372   -6.3689    7.6879 H   0  0  0  0  0  0  0  0  0  0  0  0
   -5.1175   -6.9225    9.0394 H   0  0  0  0  0  0  0  0  0  0  0  0
   -2.1405   -2.1556   -2.0779 H   0  0  0  0  0  0  0  0  0  0  0  0
   -3.3184   -2.5094   -0.7952 H   0  0  0  0  0  0  0  0  0  0  0  0
   -2.2690   -4.7001   -0.3651 H   0  0  0  0  0  0  0  0  0  0  0  0
   -2.1838   -4.6123   -2.1472 H   0  0  0  0  0  0  0  0  0  0  0  0
    0.7610   -2.4640   -0.8897 H   0  0  0  0  0  0  0  0  0  0  0  0
    0.3666   -3.3738    0.5943 H   0  0  0  0  0  0  0  0  0  0  0  0
   -4.7020   -2.2662    7.4438 H   0  0  0  0  0  0  0  0  0  0  0  0
   -1.0377   -1.0598   -0.2139 H   0  0  0  0  0  0  0  0  0  0  0  0
   -1.7872    2.8929    2.4736 H   0  0  0  0  0  0  0  0  0  0  0  0
   -2.9927    1.5935    2.2010 H   0  0  0  0  0  0  0  0  0  0  0  0
   -2.7609    2.2778    3.8506 H   0  0  0  0  0  0  0  0  0  0  0  0
   -3.6611   -1.7665    1.3832 H   0  0  0  0  0  0  0  0  0  0  0  0
   -2.4654   -0.4628    1.3435 H   0  0  0  0  0  0  0  0  0  0  0  0
  1  2  1  0  0  0  0
  1  3  2  0  0  0  0
  1 29  1  0  0  0  0
  2  5  2  0  0  0  0
  2 30  1  0  0  0  0
  3  6  1  0  0  0  0
  3  9  1  0  0  0  0
  4  5  1  0  0  0  0
  4  6  2  0  0  0  0
  4 19  1  0  0  0  0
  5 27  1  0  0  0  0
  6 28  1  0  0  0  0
  7 10  1  0  0  0  0
  7 16  1  0  0  0  0
  7 20  2  0  0  0  0
  8 11  1  0  0  0  0
  8 16  1  0  0  0  0
  8 21  2  0  0  0  0
  9 16  1  0  0  0  0
  9 22  2  0  0  0  0
 10 12  1  0  0  0  0
 10 31  1  0  0  0  0
 10 32  1  0  0  0  0
 11 12  1  0  0  0  0
 11 33  1  0  0  0  0
 11 34  1  0  0  0  0
 12 35  1  0  0  0  0
 12 36  1  0  0  0  0
 13 14  1  0  0  0  0
 13 17  1  0  0  0  0
 13 37  1  0  0  0  0
 13 38  1  0  0  0  0
 14 25  1  0  0  0  0
 14 39  1  0  0  0  0
 14 40  1  0  0  0  0
 15 17  1  0  0  0  0
 15 25  1  0  0  0  0
 15 41  1  0  0  0  0
 15 42  1  0  0  0  0
 16 43  1  0  0  0  0
 17 26  1  0  0  0  0
 17 44  1  0  0  0  0
 18 27  1  0  0  0  0
 18 45  1  0  0  0  0
 18 46  1  0  0  0  0
 18 47  1  0  0  0  0
 19 26  1  0  0  0  0
 19 48  1  0  0  0  0
 19 49  1  0  0  0  0
 23 27  2  0  0  0  0
 24 27  2  0  0  0  0
M  END
$$$$
