45
0 1 C20FH22NO
C                    -1.324120197255    -6.142971933135     2.083988699180
C                     1.046049172613    -6.396214132390     2.352443266837
C                     0.346039746813    -8.967570041873     3.814350186990
C                    -1.533899960926    -7.721888237358     4.671544702205
C                    -1.108751131592    -5.155736156021     1.118858426899
C                     1.255819469303    -5.412163303570     1.388960354964
C                     0.136821800004    -9.962397262957     4.771198026283
C                    -1.759477484704    -8.705593926217     5.636125969005
C                    -0.253176089146    -6.783960748224     2.723387135664
C                    -0.481581932821    -7.832877288720     3.745582063266
C                     0.185205409019    -4.760278909633     0.749820246919
C                    -0.916483191225    -9.811903963336     5.667582225655
C                    -0.372797401967    -5.474433877287    -3.271686006088
C                     0.373911351746    -0.802596079700    -1.167235098401
C                     1.690635641303    -1.470545727533    -0.756641394082
C                    -0.597513292952    -1.830644633313    -1.757273329327
C                     1.452906039141    -2.649700923612     0.198814169386
C                    -0.834977682080    -3.002088293946    -0.793578693652
C                     0.459541574994    -3.714929409837    -0.340378037502
C                     1.111232448824    -4.461794254952    -1.540775438713
N                     0.284194404028    -5.528243653545    -2.079026530391
O                    -1.162151896200    -6.316179137920    -3.680999038056
F                    -1.128330312671   -10.774601332808     6.602190429567
H                    -2.343444592495    -6.440158648413     2.315991228062
H                     1.903215837231    -6.851150077032     2.841869876091
H                     1.148355108587    -9.091284281122     3.092642119547
H                    -2.170631000302    -6.842027993272     4.656741636499
H                    -1.974464622008    -4.708796232493     0.644023656976
H                     2.279970034788    -5.147125405616     1.142024429322
H                     0.765911446374   -10.845895145274     4.820796668508
H                    -2.564583610668    -8.619647837093     6.359448201569
H                    -0.105006300821    -4.573815963891    -3.859507841769
H                     0.561451628205     0.004336522573    -1.884868712992
H                    -0.085764470214    -0.339336225160    -0.283361140425
H                     2.224969980230    -1.809633324073    -1.653369336386
H                     2.350093783523    -0.744025412497    -0.268044550571
H                    -1.559800158494    -1.358494987933    -1.984941753976
H                    -0.207601479767    -2.195079590697    -2.716097439123
H                     2.412589146427    -3.117428065706     0.442446838585
H                     1.049898868027    -2.267851093481     1.144963648886
H                    -1.343088194531    -2.613209180671     0.097492407772
H                    -1.519039410700    -3.721213357463    -1.255162157122
H                     2.075137342481    -4.875450953385    -1.225038336938
H                     1.321839612814    -3.768513063381    -2.357290090870
H                     0.036929949298    -6.302591031340    -1.470134578008
