
  -OEChem-05262117483D

 49 51  0     1  0  0  0  0  0999 V2000
   -1.2141   -2.2797    5.9254 C   0  0  0  0  0  0  0  0  0  0  0  0
   -1.1546   -1.0115    5.3578 C   0  0  0  0  0  0  0  0  0  0  0  0
   -1.5127   -3.3974    5.1363 C   0  0  0  0  0  0  0  0  0  0  0  0
   -1.6339   -1.9608    3.1458 C   0  0  0  0  0  0  0  0  0  0  0  0
   -1.3546   -0.8665    3.9849 C   0  0  0  0  0  0  0  0  0  0  0  0
   -1.7228   -3.2277    3.7547 C   0  0  0  0  0  0  0  0  0  0  0  0
   -1.1601   -4.9688    8.2871 C   0  0  0  0  0  0  0  0  0  0  0  0
   -0.0367   -6.4863    6.5341 C   0  0  0  0  0  0  0  0  0  0  0  0
   -1.6592   -4.7249    5.8250 C   0  0  0  0  0  0  0  0  0  0  0  0
   -1.5558   -6.2571    8.9782 C   0  0  0  0  0  0  0  0  0  0  0  0
   -0.8299   -7.6905    7.0132 C   0  0  0  0  0  0  0  0  0  0  0  0
   -1.9636   -7.3637    7.9968 C   0  0  0  0  0  0  0  0  0  0  0  0
   -5.2761   -1.0531    0.3709 C   0  0  0  0  0  0  0  0  0  0  0  0
   -5.6723   -2.4381   -0.1439 C   0  0  0  0  0  0  0  0  0  0  0  0
   -3.5239   -1.9731   -0.9563 C   0  0  0  0  0  0  0  0  0  0  0  0
   -0.5743   -5.0852    6.8639 C   0  0  0  0  0  0  0  0  0  0  0  0
   -3.7510   -1.1212    0.3036 C   0  0  2  0  0  0  0  0  0  0  0  0
    0.4394    0.8771    2.6429 C   0  0  0  0  0  0  0  0  0  0  0  0
   -1.9035   -1.8122    1.6626 C   0  0  0  0  0  0  0  0  0  0  0  0
   -1.2591   -3.8742    8.8133 O   0  0  0  0  0  0  0  0  0  0  0  0
    1.0085   -6.5954    5.9196 O   0  0  0  0  0  0  0  0  0  0  0  0
   -2.5820   -5.4842    5.5924 O   0  0  0  0  0  0  0  0  0  0  0  0
   -2.1949    1.0881    2.3024 O   0  0  0  0  0  0  0  0  0  0  0  0
   -1.1823    1.7197    4.5553 O   0  0  0  0  0  0  0  0  0  0  0  0
   -4.7097   -2.7535   -1.1659 O   0  0  0  0  0  0  0  0  0  0  0  0
   -3.3136   -1.7761    1.5016 O   0  0  0  0  0  0  0  0  0  0  0  0
   -1.2163    0.8482    3.3724 S   0  0  0  0  0  0  0  0  0  0  0  0
   -2.0556   -4.6219    2.7530 Cl  0  0  0  0  0  0  0  0  0  0  0  0
   -1.0627   -2.4030    6.9942 H   0  0  0  0  0  0  0  0  0  0  0  0
   -0.9631   -0.1356    5.9679 H   0  0  0  0  0  0  0  0  0  0  0  0
   -0.6755   -6.5723    9.5588 H   0  0  0  0  0  0  0  0  0  0  0  0
   -2.3415   -6.0239    9.7011 H   0  0  0  0  0  0  0  0  0  0  0  0
   -1.2177   -8.1942    6.1213 H   0  0  0  0  0  0  0  0  0  0  0  0
   -0.0977   -8.3735    7.4584 H   0  0  0  0  0  0  0  0  0  0  0  0
   -2.8519   -7.0509    7.4449 H   0  0  0  0  0  0  0  0  0  0  0  0
   -2.2312   -8.2643    8.5570 H   0  0  0  0  0  0  0  0  0  0  0  0
   -5.6377   -0.2713   -0.3046 H   0  0  0  0  0  0  0  0  0  0  0  0
   -5.6208   -0.8389    1.3843 H   0  0  0  0  0  0  0  0  0  0  0  0
   -5.6201   -3.1840    0.6598 H   0  0  0  0  0  0  0  0  0  0  0  0
   -6.6663   -2.4707   -0.5987 H   0  0  0  0  0  0  0  0  0  0  0  0
   -3.3593   -1.3339   -1.8338 H   0  0  0  0  0  0  0  0  0  0  0  0
   -2.6628   -2.6427   -0.8495 H   0  0  0  0  0  0  0  0  0  0  0  0
    0.2566   -4.3846    6.7801 H   0  0  0  0  0  0  0  0  0  0  0  0
   -3.2762   -0.1355    0.2433 H   0  0  0  0  0  0  0  0  0  0  0  0
    0.5862    1.8947    2.2745 H   0  0  0  0  0  0  0  0  0  0  0  0
    1.1656    0.6413    3.4216 H   0  0  0  0  0  0  0  0  0  0  0  0
    0.4932    0.1620    1.8213 H   0  0  0  0  0  0  0  0  0  0  0  0
   -1.4601   -0.8938    1.2720 H   0  0  0  0  0  0  0  0  0  0  0  0
   -1.4636   -2.6572    1.1207 H   0  0  0  0  0  0  0  0  0  0  0  0
  1  2  1  0  0  0  0
  1  3  2  0  0  0  0
  1 29  1  0  0  0  0
  2  5  2  0  0  0  0
  2 30  1  0  0  0  0
  3  6  1  0  0  0  0
  3  9  1  0  0  0  0
  4  5  1  0  0  0  0
  4  6  2  0  0  0  0
  4 19  1  0  0  0  0
  5 27  1  0  0  0  0
  6 28  1  0  0  0  0
  7 10  1  0  0  0  0
  7 16  1  0  0  0  0
  7 20  2  0  0  0  0
  8 11  1  0  0  0  0
  8 16  1  0  0  0  0
  8 21  2  0  0  0  0
  9 16  1  0  0  0  0
  9 22  2  0  0  0  0
 10 12  1  0  0  0  0
 10 31  1  0  0  0  0
 10 32  1  0  0  0  0
 11 12  1  0  0  0  0
 11 33  1  0  0  0  0
 11 34  1  0  0  0  0
 12 35  1  0  0  0  0
 12 36  1  0  0  0  0
 13 14  1  0  0  0  0
 13 17  1  0  0  0  0
 13 37  1  0  0  0  0
 13 38  1  0  0  0  0
 14 25  1  0  0  0  0
 14 39  1  0  0  0  0
 14 40  1  0  0  0  0
 15 17  1  0  0  0  0
 15 25  1  0  0  0  0
 15 41  1  0  0  0  0
 15 42  1  0  0  0  0
 16 43  1  0  0  0  0
 17 26  1  0  0  0  0
 17 44  1  0  0  0  0
 18 27  1  0  0  0  0
 18 45  1  0  0  0  0
 18 46  1  0  0  0  0
 18 47  1  0  0  0  0
 19 26  1  0  0  0  0
 19 48  1  0  0  0  0
 19 49  1  0  0  0  0
 23 27  2  0  0  0  0
 24 27  2  0  0  0  0
M  END
$$$$
