39
0 1 C16H18O4S
C                     3.119847485080    -1.224798286280     1.734908326573
C                     1.868093276821    -0.910287409814    -0.306152421881
C                     0.929181565702     3.843974474471     4.153227557299
C                    -0.123665496736     4.280362159908     2.024186107430
C                     2.043257675270    -0.745848967748     2.482462430297
C                     0.783120686148    -0.427098646268     0.425350916819
C                     0.597428883895     2.493161832569     4.048423873140
C                    -0.465471550692     2.932764475941     1.904068458136
C                     3.050738174350    -1.310398626891     0.335455763383
C                     0.578973627586     4.753914812827     3.143392600640
C                     0.885505903452    -0.343937585052     1.815139592870
C                    -0.092574187150     2.050168951896     2.918571646811
C                     4.243058383954    -1.787201560322    -0.458988780604
C                     0.980490413420     6.206809987960     3.232792692920
C                     5.062294012410    -0.635945592226    -1.069960780433
C                     2.446220797672     6.454924311873     2.832922129763
O                    -1.699794529338     0.197431180621     1.920462018866
O                    -0.436278098129    -0.284980449148     4.108913331618
O                     4.351535626893     0.094439457441    -2.071460613930
O                     3.385655880928     5.864542459726     3.733229924146
S                    -0.496913800021     0.305994076184     2.762047616151
H                     4.023433945042    -1.545635830849     2.248457584810
H                     1.796439772021    -0.975187930766    -1.387745020123
H                     1.468225042043     4.195089120694     5.028065084139
H                    -0.416188044079     4.975448279693     1.240333331070
H                     2.088243818423    -0.702005693909     3.566236148832
H                    -0.139884460737    -0.134010117439    -0.065145985094
H                     0.850020380393     1.789483293078     4.835481817656
H                    -1.029448634801     2.571105333490     1.049876563208
H                     4.910025566669    -2.369826060861     0.186929283160
H                     3.921422178679    -2.458762959037    -1.265500745205
H                     0.344601490781     6.808489360797     2.573145062924
H                     0.823226450141     6.585046654306     4.251179370267
H                     5.312429571014     0.095357574610    -0.297042308109
H                     6.003387092535    -1.034994374926    -1.474846075552
H                     2.649446950302     6.001314755202     1.859416252262
H                     2.620286391395     7.536919809768     2.744519208435
H                     4.246975676465    -0.481367896514    -2.844871041140
H                     3.343801535510     6.350662007751     4.571434190183
