62
0 1 C28H31NO2
C                     0.398951673390    -4.701894391097     7.895848837029
C                     3.351530152797    -8.661745651653    -0.266181079482
C                     1.161094256168    -3.938627613669     7.007232064801
C                    -0.322597254590    -5.802058950391     7.416399102068
C                     2.216491275414    -7.846586714468    -0.287715893153
C                     4.295698075314    -8.502909566383     0.755471494397
C                     1.636234493636    -2.242992242579     0.437564395634
C                    -0.291804046402    -1.953375571344     1.820270394561
C                     1.201984821716    -4.269395782442     5.647917831169
C                    -0.277528448665    -6.130500755602     6.059629178924
C                     2.025544404787    -6.876707394227     0.702814059724
C                     4.101295280618    -7.534340129076     1.742986655911
C                     1.964492383308    -3.413528136749     1.121948239715
C                     0.024983646764    -3.111907530291     2.526835839158
C                     0.503064019274    -1.488245048906     0.763229332849
C                     0.482763633158    -5.366598372843     5.162155075586
C                     2.966891616975    -6.709930528652     1.724548079268
C                     1.163221463887    -3.877095856007     2.186870649840
C                    -1.581330490034    -2.780944719557    -3.901650890398
C                     0.543281365574     1.881915554900    -0.156220753909
C                     1.236824383445     0.593431018862    -0.673775370329
C                    -0.294299132826     1.005646185655     0.813032904240
C                     0.098986820090    -0.259483378779    -0.020222004387
C                    -2.790551138050    -2.838423598923    -4.806143555749
C                     0.498239547687    -5.741463476551     3.684965030746
C                     2.797664756166    -5.644581564652     2.801198199404
C                    -1.018775839559    -0.596235261195    -1.029800077262
C                    -0.638436159477    -1.700282880527    -2.003384638122
N                     1.480609810230    -5.043500728282     2.879231348237
O                    -0.602223626307    -3.497458875634    -3.991943461210
O                    -1.729528562880    -1.825609797909    -2.954366421032
H                     0.367400815730    -4.445334695240     8.951649316856
H                     3.500257196475    -9.414509293345    -1.036055581613
H                     1.724342149956    -3.082392052229     7.370202540130
H                    -0.915425408315    -6.404625255984     8.100159644187
H                     1.479330000437    -7.959970292709    -1.078618421231
H                     5.179567551160    -9.135415607284     0.783733764405
H                     2.273109919015    -1.931575047213    -0.386908171586
H                    -1.174215935371    -1.388899176786     2.115560200043
H                     1.791852980378    -3.672572002104     4.958523562630
H                    -0.836606203778    -6.990626452179     5.694242252905
H                     1.144006674235    -6.243128039065     0.679771826560
H                     4.837200505859    -7.419008929986     2.537378218676
H                     2.827771801433    -3.984556470148     0.797635016892
H                    -0.597104868689    -3.402561335941     3.366725121853
H                    -0.070609094198     2.364667540868    -0.921628741084
H                     1.188508313318     2.639162613467     0.296788112544
H                     1.376227060083     0.497553453558    -1.755115715086
H                     2.198853497352     0.427329002399    -0.181773012170
H                     0.138755185986     0.972166858070     1.816578976050
H                    -1.363674595638     1.226186275770     0.895655390058
H                    -3.646486830641    -3.227030641026    -4.245175203923
H                    -2.582345729500    -3.495091051038    -5.650624726063
H                    -3.055003644299    -1.837753361831    -5.157684845807
H                     0.687187350858    -6.817798349948     3.593251989547
H                    -0.496735403800    -5.581035578605     3.255685497024
H                     3.027189560929    -6.086175157902     3.778405375155
H                     3.541274542298    -4.853704844546     2.654642322196
H                    -1.284188738943     0.302476693474    -1.599491058138
H                    -1.916543308159    -0.902203222484    -0.479706962712
H                     0.278868537033    -1.469070032213    -2.552434157003
H                    -0.493963462443    -2.658595397671    -1.501167381762
