
  -OEChem-05262117483D

 29 30  0     1  0  0  0  0  0999 V2000
   -0.4698   -1.8243    0.3834 C   0  0  0  0  0  0  0  0  0  0  0  0
    3.8971   -4.2922   -0.3067 C   0  0  0  0  0  0  0  0  0  0  0  0
   -0.0195   -3.0662    0.7781 C   0  0  0  0  0  0  0  0  0  0  0  0
    3.4506   -3.0499   -0.6951 C   0  0  0  0  0  0  0  0  0  0  0  0
    0.3573   -0.9566   -0.3698 C   0  0  0  0  0  0  0  0  0  0  0  0
    3.0740   -5.1626    0.4526 C   0  0  0  0  0  0  0  0  0  0  0  0
    2.1412   -2.6285   -0.3366 C   0  0  0  0  0  0  0  0  0  0  0  0
    1.2911   -3.4874    0.4261 C   0  0  0  0  0  0  0  0  0  0  0  0
    1.6334   -1.3516   -0.7217 C   0  0  0  0  0  0  0  0  0  0  0  0
    1.8017   -4.7664    0.8137 C   0  0  0  0  0  0  0  0  0  0  0  0
    1.4812   -7.8210    0.9440 C   0  0  0  0  0  0  0  0  0  0  0  0
    0.3072   -7.2268    3.0761 C   0  0  0  0  0  0  0  0  0  0  0  0
    1.3607   -6.7693    2.0655 C   0  0  2  0  0  0  0  0  0  0  0  0
    0.8538   -7.7959   -0.0817 O   0  0  0  0  0  0  0  0  0  0  0  0
    2.4822   -0.5546   -1.4528 O   0  0  0  0  0  0  0  0  0  0  0  0
    2.3318   -8.8561    1.2224 O   0  0  0  0  0  0  0  0  0  0  0  0
    0.9299   -5.5230    1.5633 O   0  0  0  0  0  0  0  0  0  0  0  0
   -1.4725   -1.4990    0.6471 H   0  0  0  0  0  0  0  0  0  0  0  0
    4.8929   -4.6261   -0.5851 H   0  0  0  0  0  0  0  0  0  0  0  0
   -0.6551   -3.7329    1.3485 H   0  0  0  0  0  0  0  0  0  0  0  0
    4.0799   -2.3859   -1.2766 H   0  0  0  0  0  0  0  0  0  0  0  0
   -0.0156    0.0208   -0.6726 H   0  0  0  0  0  0  0  0  0  0  0  0
    3.4640   -6.1384    0.7188 H   0  0  0  0  0  0  0  0  0  0  0  0
   -0.6611   -7.3233    2.5791 H   0  0  0  0  0  0  0  0  0  0  0  0
    0.2245   -6.4876    3.8766 H   0  0  0  0  0  0  0  0  0  0  0  0
    0.5747   -8.1931    3.5141 H   0  0  0  0  0  0  0  0  0  0  0  0
    2.3327   -6.6486    2.5680 H   0  0  0  0  0  0  0  0  0  0  0  0
    2.0259    0.2751   -1.6645 H   0  0  0  0  0  0  0  0  0  0  0  0
    2.7776   -8.7077    2.0741 H   0  0  0  0  0  0  0  0  0  0  0  0
  1  3  1  0  0  0  0
  1  5  2  0  0  0  0
  1 18  1  0  0  0  0
  2  4  2  0  0  0  0
  2  6  1  0  0  0  0
  2 19  1  0  0  0  0
  3  8  2  0  0  0  0
  3 20  1  0  0  0  0
  4  7  1  0  0  0  0
  4 21  1  0  0  0  0
  5  9  1  0  0  0  0
  5 22  1  0  0  0  0
  6 10  2  0  0  0  0
  6 23  1  0  0  0  0
  7  8  1  0  0  0  0
  7  9  2  0  0  0  0
  8 10  1  0  0  0  0
  9 15  1  0  0  0  0
 10 17  1  0  0  0  0
 11 13  1  0  0  0  0
 11 14  2  0  0  0  0
 11 16  1  0  0  0  0
 12 13  1  0  0  0  0
 12 24  1  0  0  0  0
 12 25  1  0  0  0  0
 12 26  1  0  0  0  0
 13 17  1  0  0  0  0
 13 27  1  0  0  0  0
 15 28  1  0  0  0  0
 16 29  1  0  0  0  0
M  END
$$$$
