
  -OEChem-05262117483D

 39 40  0     0  0  0  0  0  0999 V2000
    2.4534   -0.8721   -0.0743 C   0  0  0  0  0  0  0  0  0  0  0  0
    3.4629   -1.0909    2.1105 C   0  0  0  0  0  0  0  0  0  0  0  0
   -0.1379    4.3472    1.5026 C   0  0  0  0  0  0  0  0  0  0  0  0
    0.9904    4.1966    3.6344 C   0  0  0  0  0  0  0  0  0  0  0  0
    1.2910   -0.3674    0.5078 C   0  0  0  0  0  0  0  0  0  0  0  0
    2.3061   -0.5867    2.7088 C   0  0  0  0  0  0  0  0  0  0  0  0
   -0.3981    2.9753    1.5298 C   0  0  0  0  0  0  0  0  0  0  0  0
    0.7381    2.8258    3.6769 C   0  0  0  0  0  0  0  0  0  0  0  0
    3.5550   -1.2365    0.7182 C   0  0  0  0  0  0  0  0  0  0  0  0
    0.5596    4.9740    2.5461 C   0  0  0  0  0  0  0  0  0  0  0  0
    1.2321   -0.2240    1.8961 C   0  0  0  0  0  0  0  0  0  0  0  0
    0.0502    2.2273    2.6185 C   0  0  0  0  0  0  0  0  0  0  0  0
    4.8002   -1.8184    0.0889 C   0  0  0  0  0  0  0  0  0  0  0  0
    0.8008    6.4661    2.5193 C   0  0  0  0  0  0  0  0  0  0  0  0
    4.6267   -3.2718   -0.3593 C   0  0  0  0  0  0  0  0  0  0  0  0
   -0.1256    7.2439    3.4574 C   0  0  0  0  0  0  0  0  0  0  0  0
   -1.3793    0.1810    1.7463 O   0  0  0  0  0  0  0  0  0  0  0  0
   -0.2658    0.0302    4.0602 O   0  0  0  0  0  0  0  0  0  0  0  0
    3.7370   -3.2925   -1.4806 O   0  0  0  0  0  0  0  0  0  0  0  0
    0.2484    6.9456    4.8067 O   0  0  0  0  0  0  0  0  0  0  0  0
   -0.2505    0.4558    2.6508 S   0  0  0  0  0  0  0  0  0  0  0  0
    2.5066   -1.0056   -1.1499 H   0  0  0  0  0  0  0  0  0  0  0  0
    4.3043   -1.3780    2.7375 H   0  0  0  0  0  0  0  0  0  0  0  0
   -0.4860    4.9380    0.6581 H   0  0  0  0  0  0  0  0  0  0  0  0
    1.5079    4.6779    4.4579 H   0  0  0  0  0  0  0  0  0  0  0  0
    0.4299   -0.1048   -0.0992 H   0  0  0  0  0  0  0  0  0  0  0  0
    2.2261   -0.4893    3.7870 H   0  0  0  0  0  0  0  0  0  0  0  0
   -0.9524    2.4910    0.7319 H   0  0  0  0  0  0  0  0  0  0  0  0
    1.0503    2.2256    4.5260 H   0  0  0  0  0  0  0  0  0  0  0  0
    5.0977   -1.2307   -0.7868 H   0  0  0  0  0  0  0  0  0  0  0  0
    5.6306   -1.7795    0.8018 H   0  0  0  0  0  0  0  0  0  0  0  0
    1.8343    6.6925    2.8049 H   0  0  0  0  0  0  0  0  0  0  0  0
    0.6548    6.8485    1.5036 H   0  0  0  0  0  0  0  0  0  0  0  0
    5.6072   -3.6828   -0.6411 H   0  0  0  0  0  0  0  0  0  0  0  0
    4.2265   -3.8706    0.4708 H   0  0  0  0  0  0  0  0  0  0  0  0
   -0.0191    8.3205    3.2598 H   0  0  0  0  0  0  0  0  0  0  0  0
   -1.1699    6.9591    3.2672 H   0  0  0  0  0  0  0  0  0  0  0  0
    3.4723   -4.2093   -1.6488 H   0  0  0  0  0  0  0  0  0  0  0  0
   -0.4431    7.2757    5.3997 H   0  0  0  0  0  0  0  0  0  0  0  0
  1  5  1  0  0  0  0
  1  9  2  0  0  0  0
  1 22  1  0  0  0  0
  2  6  2  0  0  0  0
  2  9  1  0  0  0  0
  2 23  1  0  0  0  0
  3  7  2  0  0  0  0
  3 10  1  0  0  0  0
  3 24  1  0  0  0  0
  4  8  1  0  0  0  0
  4 10  2  0  0  0  0
  4 25  1  0  0  0  0
  5 11  2  0  0  0  0
  5 26  1  0  0  0  0
  6 11  1  0  0  0  0
  6 27  1  0  0  0  0
  7 12  1  0  0  0  0
  7 28  1  0  0  0  0
  8 12  2  0  0  0  0
  8 29  1  0  0  0  0
  9 13  1  0  0  0  0
 10 14  1  0  0  0  0
 11 21  1  0  0  0  0
 12 21  1  0  0  0  0
 13 15  1  0  0  0  0
 13 30  1  0  0  0  0
 13 31  1  0  0  0  0
 14 16  1  0  0  0  0
 14 32  1  0  0  0  0
 14 33  1  0  0  0  0
 15 19  1  0  0  0  0
 15 34  1  0  0  0  0
 15 35  1  0  0  0  0
 16 20  1  0  0  0  0
 16 36  1  0  0  0  0
 16 37  1  0  0  0  0
 17 21  2  0  0  0  0
 18 21  2  0  0  0  0
 19 38  1  0  0  0  0
 20 39  1  0  0  0  0
M  END
$$$$
