62
0 1 C27H28N2O5
C                     0.237156053442    -2.370320370585    -9.807828811971
C                     0.043858074926    -2.695558277666    -8.472914844272
C                     1.217856682509    -3.015139989463   -10.605307980882
C                    -0.907422650774    -0.506145857389    -2.509855135146
C                    -3.135618638158    -1.333069578741    -1.061915307708
C                     1.982722088415    -5.199082680629    -6.636241115078
C                     0.859468162143    -3.695503007510    -7.902535123380
C                    -1.470688806467    -1.763707642658    -2.782437210962
C                     0.975830971037    -4.257827502941    -6.575123957176
C                     0.184180239301    -3.890572994126    -5.395704744003
C                    -0.020998201520    -2.569781639032    -4.851025736747
C                    -2.601826197862    -2.173833014562    -2.038961026200
C                     1.829707661560    -4.338551126298    -8.707700728863
C                     2.022457264316    -4.012317826300   -10.059822348804
C                    -1.452193756032     0.331498565618    -1.541803159066
C                    -2.576721734648    -0.080370953205    -0.801692398486
C                    -0.925811082585    -2.684165642665    -3.784833925745
C                    -0.604964303874    -4.762824812944    -4.659805884764
C                     0.559978864527    -1.328498307866    -5.388159909962
C                    -3.212568328402    -3.524175895270    -2.331684645008
C                    -2.117357381102    -4.543618709785    -2.634251213939
C                    -0.838026229656    -6.228178756405    -4.840993198305
C                     3.464762063558    -1.028918436278    -7.560501359179
C                     3.236150957334    -4.401037149225   -12.080924300324
C                    -1.569363591923     2.654311718734    -1.911461873410
C                    -2.367314305355     1.006246754164     1.298302249701
C                     2.303897269212    -0.467878767240    -6.758312962893
N                     2.499650032015    -5.254578785904    -7.921477751901
N                    -1.266707687295    -4.021249580893    -3.697957913508
O                     0.049187878999    -0.216122772765    -5.342422504507
O                     3.009767999382    -4.714756768175   -10.710096789870
O                    -0.863579599189     1.560070732094    -1.303466913441
O                    -3.171459286751     0.734530041841     0.137952529993
O                     1.751608132738    -1.558786334335    -5.986645248533
H                    -0.374188656480    -1.598102221965   -10.267384515997
H                    -0.709216082661    -2.186220492136    -7.878763890399
H                     1.330062973750    -2.719691039227   -11.642551623543
H                    -0.050808060865    -0.146183373494    -3.063280732597
H                    -4.002947309715    -1.638131001258    -0.481535497521
H                     2.394312296923    -5.813149250576    -5.846339552153
H                    -3.815290524310    -3.870137022225    -1.486909490294
H                    -3.877039937851    -3.453879364883    -3.203504861602
H                    -1.511159459315    -4.732017761480    -1.737949650881
H                    -2.544922793421    -5.493393492396    -2.960111438712
H                    -0.471595427504    -6.821552581794    -3.993990964258
H                    -1.902838475670    -6.459231258732    -4.969988938331
H                    -0.313879520429    -6.564330229067    -5.737603123507
H                     4.221512362310    -1.463615236483    -6.900100625344
H                     3.117155809323    -1.802273871392    -8.249799010543
H                     3.932286424944    -0.227052965094    -8.142149517181
H                     4.044121196741    -5.055736691837   -12.411008412300
H                     3.541126018131    -3.354503753005   -12.203390226408
H                     2.340810290130    -4.592776129344   -12.684837229624
H                    -1.011919084061     3.558418349310    -1.657141782512
H                    -2.590592443026     2.726013489786    -1.521060835894
H                    -1.595735677978     2.531940356617    -3.000688165131
H                    -2.973694417565     1.645830672551     1.943035067640
H                    -1.440436750770     1.518561182671     1.026390900708
H                    -2.133870821637     0.072408667138     1.824959740748
H                     1.521250789346    -0.065468857277    -7.406670290177
H                     2.619065590153     0.325797162724    -6.073151323565
H                     3.254644489031    -5.843533298945    -8.240180278096
