
  -OEChem-05262117483D

 39 40  0     0  0  0  0  0  0999 V2000
    3.1198   -1.2248    1.7349 C   0  0  0  0  0  0  0  0  0  0  0  0
    1.8681   -0.9103   -0.3062 C   0  0  0  0  0  0  0  0  0  0  0  0
    0.9292    3.8440    4.1532 C   0  0  0  0  0  0  0  0  0  0  0  0
   -0.1237    4.2804    2.0242 C   0  0  0  0  0  0  0  0  0  0  0  0
    2.0433   -0.7458    2.4825 C   0  0  0  0  0  0  0  0  0  0  0  0
    0.7831   -0.4271    0.4254 C   0  0  0  0  0  0  0  0  0  0  0  0
    0.5974    2.4932    4.0484 C   0  0  0  0  0  0  0  0  0  0  0  0
   -0.4655    2.9328    1.9041 C   0  0  0  0  0  0  0  0  0  0  0  0
    3.0507   -1.3104    0.3355 C   0  0  0  0  0  0  0  0  0  0  0  0
    0.5790    4.7539    3.1434 C   0  0  0  0  0  0  0  0  0  0  0  0
    0.8855   -0.3439    1.8151 C   0  0  0  0  0  0  0  0  0  0  0  0
   -0.0926    2.0502    2.9186 C   0  0  0  0  0  0  0  0  0  0  0  0
    4.2431   -1.7872   -0.4590 C   0  0  0  0  0  0  0  0  0  0  0  0
    0.9805    6.2068    3.2328 C   0  0  0  0  0  0  0  0  0  0  0  0
    5.0623   -0.6359   -1.0700 C   0  0  0  0  0  0  0  0  0  0  0  0
    2.4462    6.4549    2.8329 C   0  0  0  0  0  0  0  0  0  0  0  0
   -1.6998    0.1974    1.9205 O   0  0  0  0  0  0  0  0  0  0  0  0
   -0.4363   -0.2850    4.1089 O   0  0  0  0  0  0  0  0  0  0  0  0
    4.3515    0.0944   -2.0715 O   0  0  0  0  0  0  0  0  0  0  0  0
    3.3857    5.8645    3.7332 O   0  0  0  0  0  0  0  0  0  0  0  0
   -0.4969    0.3060    2.7620 S   0  0  0  0  0  0  0  0  0  0  0  0
    4.0234   -1.5456    2.2485 H   0  0  0  0  0  0  0  0  0  0  0  0
    1.7964   -0.9752   -1.3877 H   0  0  0  0  0  0  0  0  0  0  0  0
    1.4682    4.1951    5.0281 H   0  0  0  0  0  0  0  0  0  0  0  0
   -0.4162    4.9754    1.2403 H   0  0  0  0  0  0  0  0  0  0  0  0
    2.0882   -0.7020    3.5662 H   0  0  0  0  0  0  0  0  0  0  0  0
   -0.1399   -0.1340   -0.0651 H   0  0  0  0  0  0  0  0  0  0  0  0
    0.8500    1.7895    4.8355 H   0  0  0  0  0  0  0  0  0  0  0  0
   -1.0294    2.5711    1.0499 H   0  0  0  0  0  0  0  0  0  0  0  0
    4.9100   -2.3698    0.1869 H   0  0  0  0  0  0  0  0  0  0  0  0
    3.9214   -2.4588   -1.2655 H   0  0  0  0  0  0  0  0  0  0  0  0
    0.3446    6.8085    2.5731 H   0  0  0  0  0  0  0  0  0  0  0  0
    0.8232    6.5850    4.2512 H   0  0  0  0  0  0  0  0  0  0  0  0
    5.3124    0.0954   -0.2970 H   0  0  0  0  0  0  0  0  0  0  0  0
    6.0034   -1.0350   -1.4748 H   0  0  0  0  0  0  0  0  0  0  0  0
    2.6494    6.0013    1.8594 H   0  0  0  0  0  0  0  0  0  0  0  0
    2.6203    7.5369    2.7445 H   0  0  0  0  0  0  0  0  0  0  0  0
    4.2470   -0.4814   -2.8449 H   0  0  0  0  0  0  0  0  0  0  0  0
    3.3438    6.3507    4.5714 H   0  0  0  0  0  0  0  0  0  0  0  0
  1  5  1  0  0  0  0
  1  9  2  0  0  0  0
  1 22  1  0  0  0  0
  2  6  2  0  0  0  0
  2  9  1  0  0  0  0
  2 23  1  0  0  0  0
  3  7  2  0  0  0  0
  3 10  1  0  0  0  0
  3 24  1  0  0  0  0
  4  8  1  0  0  0  0
  4 10  2  0  0  0  0
  4 25  1  0  0  0  0
  5 11  2  0  0  0  0
  5 26  1  0  0  0  0
  6 11  1  0  0  0  0
  6 27  1  0  0  0  0
  7 12  1  0  0  0  0
  7 28  1  0  0  0  0
  8 12  2  0  0  0  0
  8 29  1  0  0  0  0
  9 13  1  0  0  0  0
 10 14  1  0  0  0  0
 11 21  1  0  0  0  0
 12 21  1  0  0  0  0
 13 15  1  0  0  0  0
 13 30  1  0  0  0  0
 13 31  1  0  0  0  0
 14 16  1  0  0  0  0
 14 32  1  0  0  0  0
 14 33  1  0  0  0  0
 15 19  1  0  0  0  0
 15 34  1  0  0  0  0
 15 35  1  0  0  0  0
 16 20  1  0  0  0  0
 16 36  1  0  0  0  0
 16 37  1  0  0  0  0
 17 21  2  0  0  0  0
 18 21  2  0  0  0  0
 19 38  1  0  0  0  0
 20 39  1  0  0  0  0
M  END
$$$$
