
  -OEChem-05262117483D

 47 50  0     1  0  0  0  0  0999 V2000
    1.9849   -3.9449    3.5928 C   0  0  0  0  0  0  0  0  0  0  0  0
    4.6152   -5.9835    5.2394 C   0  0  0  0  0  0  0  0  0  0  0  0
    5.7360   -5.7087    4.4442 C   0  0  0  0  0  0  0  0  0  0  0  0
    3.3931   -5.4020    4.9176 C   0  0  0  0  0  0  0  0  0  0  0  0
    5.6251   -4.8724    3.3379 C   0  0  0  0  0  0  0  0  0  0  0  0
    5.3205   -2.6944    1.1458 C   0  0  0  0  0  0  0  0  0  0  0  0
    4.6544   -1.9928    0.0931 C   0  0  0  0  0  0  0  0  0  0  0  0
    3.2739   -4.5435    3.8077 C   0  0  0  0  0  0  0  0  0  0  0  0
    4.4004   -4.2693    2.9893 C   0  0  0  0  0  0  0  0  0  0  0  0
    4.3511   -3.3944    1.8289 C   0  0  0  0  0  0  0  0  0  0  0  0
    3.3235   -2.3060    0.1892 C   0  0  0  0  0  0  0  0  0  0  0  0
    0.5078    1.8052    0.8719 C   0  0  0  0  0  0  0  0  0  0  0  0
    0.5303    1.5298   -0.6557 C   0  0  0  0  0  0  0  0  0  0  0  0
   -1.1910    0.0080    1.5242 C   0  0  0  0  0  0  0  0  0  0  0  0
    1.3074   -0.5433    1.3414 C   0  0  0  0  0  0  0  0  0  0  0  0
   -0.8287   -0.6271   -0.8152 C   0  0  0  0  0  0  0  0  0  0  0  0
    0.2517    0.5225    1.6805 C   0  0  1  0  0  0  0  0  0  0  0  0
    0.5762    0.0206   -0.9420 C   0  0  2  0  0  0  0  0  0  0  0  0
   -3.0597   -0.4553    0.0841 C   0  0  0  0  0  0  0  0  0  0  0  0
    2.0966   -1.8720   -0.5492 C   0  0  0  0  0  0  0  0  0  0  0  0
    0.9177   -3.4849    3.5017 N   0  0  0  0  0  0  0  0  0  0  0  0
   -1.6941    0.0468    0.1505 N   0  0  1  0  0  0  0  0  0  0  0  0
    1.6269   -0.5650   -0.0978 N   0  0  2  0  0  0  0  0  0  0  0  0
    3.1345   -3.1618    1.2418 O   0  0  0  0  0  0  0  0  0  0  0  0
    4.6957   -6.6435    6.0980 H   0  0  0  0  0  0  0  0  0  0  0  0
    6.6955   -6.1605    4.6810 H   0  0  0  0  0  0  0  0  0  0  0  0
    2.5139   -5.5940    5.5250 H   0  0  0  0  0  0  0  0  0  0  0  0
    6.4939   -4.6942    2.7119 H   0  0  0  0  0  0  0  0  0  0  0  0
    6.3753   -2.6613    1.3843 H   0  0  0  0  0  0  0  0  0  0  0  0
    5.0955   -1.3234   -0.6333 H   0  0  0  0  0  0  0  0  0  0  0  0
    1.4720    2.2200    1.1861 H   0  0  0  0  0  0  0  0  0  0  0  0
   -0.2555    2.5521    1.1126 H   0  0  0  0  0  0  0  0  0  0  0  0
   -0.3520    1.9599   -1.1364 H   0  0  0  0  0  0  0  0  0  0  0  0
    1.4168    1.9891   -1.1036 H   0  0  0  0  0  0  0  0  0  0  0  0
   -1.2509   -1.0107    1.9534 H   0  0  0  0  0  0  0  0  0  0  0  0
   -1.8561    0.6428    2.1227 H   0  0  0  0  0  0  0  0  0  0  0  0
    2.2314   -0.3314    1.8944 H   0  0  0  0  0  0  0  0  0  0  0  0
    0.9520   -1.5226    1.6923 H   0  0  0  0  0  0  0  0  0  0  0  0
   -1.3259   -0.5573   -1.7897 H   0  0  0  0  0  0  0  0  0  0  0  0
   -0.7238   -1.7078   -0.5949 H   0  0  0  0  0  0  0  0  0  0  0  0
    0.3715    0.7446    2.7473 H   0  0  0  0  0  0  0  0  0  0  0  0
    0.9021   -0.1301   -1.9776 H   0  0  0  0  0  0  0  0  0  0  0  0
   -3.4525   -0.3351   -0.9312 H   0  0  0  0  0  0  0  0  0  0  0  0
   -3.6976    0.1192    0.7641 H   0  0  0  0  0  0  0  0  0  0  0  0
   -3.1443   -1.5240    0.3610 H   0  0  0  0  0  0  0  0  0  0  0  0
    2.3368   -1.7993   -1.6153 H   0  0  0  0  0  0  0  0  0  0  0  0
    1.3420   -2.6703   -0.4320 H   0  0  0  0  0  0  0  0  0  0  0  0
  1  8  1  0  0  0  0
  1 21  3  0  0  0  0
  2  3  1  0  0  0  0
  2  4  2  0  0  0  0
  2 25  1  0  0  0  0
  3  5  2  0  0  0  0
  3 26  1  0  0  0  0
  4  8  1  0  0  0  0
  4 27  1  0  0  0  0
  5  9  1  0  0  0  0
  5 28  1  0  0  0  0
  6  7  1  0  0  0  0
  6 10  2  0  0  0  0
  6 29  1  0  0  0  0
  7 11  2  0  0  0  0
  7 30  1  0  0  0  0
  8  9  2  0  0  0  0
  9 10  1  0  0  0  0
 10 24  1  0  0  0  0
 11 20  1  0  0  0  0
 11 24  1  0  0  0  0
 12 13  1  0  0  0  0
 12 17  1  0  0  0  0
 12 31  1  0  0  0  0
 12 32  1  0  0  0  0
 13 18  1  0  0  0  0
 13 33  1  0  0  0  0
 13 34  1  0  0  0  0
 14 17  1  0  0  0  0
 14 22  1  0  0  0  0
 14 35  1  0  0  0  0
 14 36  1  0  0  0  0
 15 17  1  0  0  0  0
 15 23  1  0  0  0  0
 15 37  1  0  0  0  0
 15 38  1  0  0  0  0
 16 18  1  0  0  0  0
 16 22  1  0  0  0  0
 16 39  1  0  0  0  0
 16 40  1  0  0  0  0
 17 41  1  0  0  0  0
 18 23  1  0  0  0  0
 18 42  1  0  0  0  0
 19 22  1  0  0  0  0
 19 43  1  0  0  0  0
 19 44  1  0  0  0  0
 19 45  1  0  0  0  0
 20 23  1  0  0  0  0
 20 46  1  0  0  0  0
 20 47  1  0  0  0  0
M  END
$$$$
