
  -OEChem-05262117483D

 39 41  0     0  0  0  0  0  0999 V2000
   -1.9388   -0.8085    0.4661 C   0  0  0  0  0  0  0  0  0  0  0  0
   -0.7382   -1.1866   -0.1542 C   0  0  0  0  0  0  0  0  0  0  0  0
   -2.7215   -1.7467    1.1475 C   0  0  0  0  0  0  0  0  0  0  0  0
   -0.2913   -2.5135   -0.1081 C   0  0  0  0  0  0  0  0  0  0  0  0
   -4.0768   -9.3780    1.6797 C   0  0  0  0  0  0  0  0  0  0  0  0
   -2.2832   -3.0688    1.1912 C   0  0  0  0  0  0  0  0  0  0  0  0
   -4.3369   -8.3314    0.7254 C   0  0  0  0  0  0  0  0  0  0  0  0
   -1.0920   -3.4258    0.5652 C   0  0  0  0  0  0  0  0  0  0  0  0
   -4.8191  -10.4757    1.3179 C   0  0  0  0  0  0  0  0  0  0  0  0
   -5.2514   -8.8416   -0.2041 C   0  0  0  0  0  0  0  0  0  0  0  0
   -2.9816   -4.2072    1.8540 C   0  0  0  0  0  0  0  0  0  0  0  0
   -3.7633   -6.9916    0.7178 C   0  0  0  0  0  0  0  0  0  0  0  0
   -4.9251  -11.8238    1.9567 C   0  0  0  0  0  0  0  0  0  0  0  0
   -5.8781   -8.1985   -1.3990 C   0  0  0  0  0  0  0  0  0  0  0  0
   -6.4804  -11.0047   -0.5097 C   0  0  0  0  0  0  0  0  0  0  0  0
   -2.7869   -6.6784    1.8748 C   0  0  0  0  0  0  0  0  0  0  0  0
   -5.5246  -10.1366    0.1610 N   0  0  0  0  0  0  0  0  0  0  0  0
   -2.2010   -5.3593    1.7359 N   0  0  0  0  0  0  0  0  0  0  0  0
   -4.0487   -4.1627    2.4418 O   0  0  0  0  0  0  0  0  0  0  0  0
   -4.0143   -6.1188   -0.1087 O   0  0  0  0  0  0  0  0  0  0  0  0
   -0.8582   -5.9394   -0.4353 O   0  0  0  0  0  0  0  0  0  0  0  0
    0.3996   -5.3621    1.6664 O   0  0  0  0  0  0  0  0  0  0  0  0
   -0.7630   -5.1655    0.8003 S   0  0  0  0  0  0  0  0  0  0  0  0
   -2.2620    0.2274    0.4149 H   0  0  0  0  0  0  0  0  0  0  0  0
   -0.1458   -0.4421   -0.6785 H   0  0  0  0  0  0  0  0  0  0  0  0
   -3.6531   -1.4740    1.6340 H   0  0  0  0  0  0  0  0  0  0  0  0
    0.6375   -2.8144   -0.5829 H   0  0  0  0  0  0  0  0  0  0  0  0
   -3.4172   -9.3363    2.5367 H   0  0  0  0  0  0  0  0  0  0  0  0
   -5.9547  -12.0688    2.2445 H   0  0  0  0  0  0  0  0  0  0  0  0
   -4.5643  -12.6260    1.3008 H   0  0  0  0  0  0  0  0  0  0  0  0
   -4.3150  -11.8417    2.8626 H   0  0  0  0  0  0  0  0  0  0  0  0
   -5.5727   -8.6948   -2.3290 H   0  0  0  0  0  0  0  0  0  0  0  0
   -6.9730   -8.2346   -1.3476 H   0  0  0  0  0  0  0  0  0  0  0  0
   -5.5627   -7.1577   -1.4497 H   0  0  0  0  0  0  0  0  0  0  0  0
   -7.4895  -10.8755   -0.1018 H   0  0  0  0  0  0  0  0  0  0  0  0
   -6.5025  -10.7799   -1.5768 H   0  0  0  0  0  0  0  0  0  0  0  0
   -6.1836  -12.0471   -0.3860 H   0  0  0  0  0  0  0  0  0  0  0  0
   -1.9878   -7.4221    1.9219 H   0  0  0  0  0  0  0  0  0  0  0  0
   -3.3271   -6.7092    2.8250 H   0  0  0  0  0  0  0  0  0  0  0  0
  1  2  1  0  0  0  0
  1  3  2  0  0  0  0
  1 24  1  0  0  0  0
  2  4  2  0  0  0  0
  2 25  1  0  0  0  0
  3  6  1  0  0  0  0
  3 26  1  0  0  0  0
  4  8  1  0  0  0  0
  4 27  1  0  0  0  0
  5  7  1  0  0  0  0
  5  9  2  0  0  0  0
  5 28  1  0  0  0  0
  6  8  2  0  0  0  0
  6 11  1  0  0  0  0
  7 10  2  0  0  0  0
  7 12  1  0  0  0  0
  8 23  1  0  0  0  0
  9 13  1  0  0  0  0
  9 17  1  0  0  0  0
 10 14  1  0  0  0  0
 10 17  1  0  0  0  0
 11 18  1  0  0  0  0
 11 19  2  0  0  0  0
 12 16  1  0  0  0  0
 12 20  2  0  0  0  0
 13 29  1  0  0  0  0
 13 30  1  0  0  0  0
 13 31  1  0  0  0  0
 14 32  1  0  0  0  0
 14 33  1  0  0  0  0
 14 34  1  0  0  0  0
 15 17  1  0  0  0  0
 15 35  1  0  0  0  0
 15 36  1  0  0  0  0
 15 37  1  0  0  0  0
 16 18  1  0  0  0  0
 16 38  1  0  0  0  0
 16 39  1  0  0  0  0
 18 23  1  0  0  0  0
 21 23  2  0  0  0  0
 22 23  2  0  0  0  0
M  END
$$$$
