
  -OEChem-05262117483D

 21 21  0     0  0  0  0  0  0999 V2000
    1.8303   -0.3844    0.1294 C   0  0  0  0  0  0  0  0  0  0  0  0
    0.5095   -0.6453    0.5033 C   0  0  0  0  0  0  0  0  0  0  0  0
    2.8852   -0.9123    0.8765 C   0  0  0  0  0  0  0  0  0  0  0  0
    0.2504   -1.4329    1.6271 C   0  0  0  0  0  0  0  0  0  0  0  0
    2.6562   -1.7088    2.0069 C   0  0  0  0  0  0  0  0  0  0  0  0
    1.3200   -1.9493    2.3601 C   0  0  0  0  0  0  0  0  0  0  0  0
    5.1569   -2.0926    2.2299 C   0  0  0  0  0  0  0  0  0  0  0  0
    3.7914   -2.2791    2.8394 C   0  0  0  0  0  0  0  0  0  0  0  0
    5.9364   -1.0850    2.4261 N   0  0  0  0  0  0  0  0  0  0  0  0
    5.5704   -3.0620    1.3143 N   0  0  0  0  0  0  0  0  0  0  0  0
    5.3035   -0.1027    3.2421 O   0  0  0  0  0  0  0  0  0  0  0  0
    0.9515   -2.9317    3.7796 Cl  0  0  0  0  0  0  0  0  0  0  0  0
    2.0408    0.2300   -0.7417 H   0  0  0  0  0  0  0  0  0  0  0  0
   -0.3188   -0.2399   -0.0715 H   0  0  0  0  0  0  0  0  0  0  0  0
    3.9090   -0.7032    0.5836 H   0  0  0  0  0  0  0  0  0  0  0  0
   -0.7676   -1.6460    1.9375 H   0  0  0  0  0  0  0  0  0  0  0  0
    3.7825   -1.8062    3.8249 H   0  0  0  0  0  0  0  0  0  0  0  0
    3.6169   -3.3487    2.9995 H   0  0  0  0  0  0  0  0  0  0  0  0
    5.3358   -4.0134    1.5765 H   0  0  0  0  0  0  0  0  0  0  0  0
    6.5471   -2.9657    1.0510 H   0  0  0  0  0  0  0  0  0  0  0  0
    6.0065    0.5586    3.3387 H   0  0  0  0  0  0  0  0  0  0  0  0
  1  2  1  0  0  0  0
  1  3  2  0  0  0  0
  1 13  1  0  0  0  0
  2  4  2  0  0  0  0
  2 14  1  0  0  0  0
  3  5  1  0  0  0  0
  3 15  1  0  0  0  0
  4  6  1  0  0  0  0
  4 16  1  0  0  0  0
  5  6  2  0  0  0  0
  5  8  1  0  0  0  0
  6 12  1  0  0  0  0
  7  8  1  0  0  0  0
  7  9  2  0  0  0  0
  7 10  1  0  0  0  0
  8 17  1  0  0  0  0
  8 18  1  0  0  0  0
  9 11  1  0  0  0  0
 10 19  1  0  0  0  0
 10 20  1  0  0  0  0
 11 21  1  0  0  0  0
M  END
$$$$
