
  -OEChem-05262117483D

 21 21  0     0  0  0  0  0  0999 V2000
    1.4924   -1.1329   -0.0454 C   0  0  0  0  0  0  0  0  0  0  0  0
    0.7508   -0.1193    0.5670 C   0  0  0  0  0  0  0  0  0  0  0  0
    2.5180   -1.7706    0.6553 C   0  0  0  0  0  0  0  0  0  0  0  0
    1.0386    0.2502    1.8827 C   0  0  0  0  0  0  0  0  0  0  0  0
    2.8317   -1.4186    1.9751 C   0  0  0  0  0  0  0  0  0  0  0  0
    2.0671   -0.4011    2.5653 C   0  0  0  0  0  0  0  0  0  0  0  0
    4.7899   -3.0352    1.9304 C   0  0  0  0  0  0  0  0  0  0  0  0
    3.9337   -2.1115    2.7577 C   0  0  0  0  0  0  0  0  0  0  0  0
    4.5714   -4.2906    1.7366 N   0  0  0  0  0  0  0  0  0  0  0  0
    5.8657   -2.4541    1.2566 N   0  0  0  0  0  0  0  0  0  0  0  0
    3.3463   -4.6938    2.3434 O   0  0  0  0  0  0  0  0  0  0  0  0
    2.3929    0.0873    4.2300 Cl  0  0  0  0  0  0  0  0  0  0  0  0
    1.2731   -1.4290   -1.0676 H   0  0  0  0  0  0  0  0  0  0  0  0
   -0.0489    0.3836    0.0300 H   0  0  0  0  0  0  0  0  0  0  0  0
    3.0879   -2.5598    0.1753 H   0  0  0  0  0  0  0  0  0  0  0  0
    0.4738    1.0327    2.3795 H   0  0  0  0  0  0  0  0  0  0  0  0
    4.5747   -1.3543    3.2224 H   0  0  0  0  0  0  0  0  0  0  0  0
    3.4846   -2.6878    3.5708 H   0  0  0  0  0  0  0  0  0  0  0  0
    6.3693   -1.7582    1.7961 H   0  0  0  0  0  0  0  0  0  0  0  0
    6.4876   -3.1405    0.8388 H   0  0  0  0  0  0  0  0  0  0  0  0
    3.3369   -5.6459    2.1586 H   0  0  0  0  0  0  0  0  0  0  0  0
  1  2  1  0  0  0  0
  1  3  2  0  0  0  0
  1 13  1  0  0  0  0
  2  4  2  0  0  0  0
  2 14  1  0  0  0  0
  3  5  1  0  0  0  0
  3 15  1  0  0  0  0
  4  6  1  0  0  0  0
  4 16  1  0  0  0  0
  5  6  2  0  0  0  0
  5  8  1  0  0  0  0
  6 12  1  0  0  0  0
  7  8  1  0  0  0  0
  7  9  2  0  0  0  0
  7 10  1  0  0  0  0
  8 17  1  0  0  0  0
  8 18  1  0  0  0  0
  9 11  1  0  0  0  0
 10 19  1  0  0  0  0
 10 20  1  0  0  0  0
 11 21  1  0  0  0  0
M  END
$$$$
