21
0 1 C8ClH9N2O
C                     2.023730210680    -1.161949528251    -0.241351063446
C                     0.869228375409    -0.570560233822     0.280096408082
C                     3.038510735840    -1.581109944848     0.621150120214
C                     0.736374414924    -0.403929389406     1.660446393649
C                     2.937429744564    -1.423840398750     2.012075505957
C                     1.763105894084    -0.831400454719     2.505506949507
C                     3.733379448459    -3.179595090026     3.669331320865
C                     4.044251284375    -1.894509676175     2.924070972804
N                     4.313130643746    -3.546414287084     4.759493859366
N                     2.840651752486    -4.072211161358     3.075593585601
O                     5.318381846240    -2.607237225345     5.144201331103
Cl                    1.554620444954    -0.620870831066     4.240639266210
H                     2.133014644661    -1.297035288331    -1.313755219105
H                     0.072498029293    -0.238656440171    -0.379885217402
H                     3.933098124576    -2.047678977324     0.216488180212
H                    -0.153068905649     0.052581540077     2.083202368304
H                     4.953029517826    -2.065917916573     2.337756747121
H                     4.292728682065    -1.135078772052     3.667731850996
H                     2.023043391578    -3.630225802344     2.668146850528
H                     2.592525866050    -4.836062319764     3.697942350406
H                     5.608033400836    -2.968718712422     5.996189758585
