
  -OEChem-05262117483D

 39 41  0     0  0  0  0  0  0999 V2000
   -4.6720   -5.3457    7.5811 C   0  0  0  0  0  0  0  0  0  0  0  0
   -5.6514   -4.4805    7.0703 C   0  0  0  0  0  0  0  0  0  0  0  0
   -3.7280   -5.9402    6.7365 C   0  0  0  0  0  0  0  0  0  0  0  0
   -5.7106   -4.1877    5.7012 C   0  0  0  0  0  0  0  0  0  0  0  0
   -3.8938   -8.6965    2.3793 C   0  0  0  0  0  0  0  0  0  0  0  0
   -3.7838   -5.6513    5.3744 C   0  0  0  0  0  0  0  0  0  0  0  0
   -4.1554   -7.8860    1.2194 C   0  0  0  0  0  0  0  0  0  0  0  0
   -4.7621   -4.7895    4.8863 C   0  0  0  0  0  0  0  0  0  0  0  0
   -4.8359   -9.6957    2.4141 C   0  0  0  0  0  0  0  0  0  0  0  0
   -5.2800   -8.4226    0.5838 C   0  0  0  0  0  0  0  0  0  0  0  0
   -2.8717   -6.1862    4.3234 C   0  0  0  0  0  0  0  0  0  0  0  0
   -3.4401   -6.6937    0.7877 C   0  0  0  0  0  0  0  0  0  0  0  0
   -5.0075  -10.8242    3.3805 C   0  0  0  0  0  0  0  0  0  0  0  0
   -6.0386   -7.9363   -0.6075 C   0  0  0  0  0  0  0  0  0  0  0  0
   -6.8702  -10.3031    1.0427 C   0  0  0  0  0  0  0  0  0  0  0  0
   -2.5640   -5.9683    1.8304 C   0  0  0  0  0  0  0  0  0  0  0  0
   -5.6782   -9.5154    1.3132 N   0  0  0  0  0  0  0  0  0  0  0  0
   -3.2550   -5.6897    3.0869 N   0  0  0  0  0  0  0  0  0  0  0  0
   -1.9331   -6.9492    4.5043 O   0  0  0  0  0  0  0  0  0  0  0  0
   -3.4846   -6.2204   -0.3475 O   0  0  0  0  0  0  0  0  0  0  0  0
   -5.7327   -5.1895    2.4111 O   0  0  0  0  0  0  0  0  0  0  0  0
   -4.1364   -3.2640    2.7535 O   0  0  0  0  0  0  0  0  0  0  0  0
   -4.5986   -4.6012    3.1178 S   0  0  0  0  0  0  0  0  0  0  0  0
   -4.6483   -5.5545    8.6468 H   0  0  0  0  0  0  0  0  0  0  0  0
   -6.3745   -4.0294    7.7438 H   0  0  0  0  0  0  0  0  0  0  0  0
   -2.9618   -6.6117    7.1123 H   0  0  0  0  0  0  0  0  0  0  0  0
   -6.4652   -3.5194    5.2979 H   0  0  0  0  0  0  0  0  0  0  0  0
   -3.0765   -8.5901    3.0799 H   0  0  0  0  0  0  0  0  0  0  0  0
   -5.9907  -10.8115    3.8667 H   0  0  0  0  0  0  0  0  0  0  0  0
   -4.8863  -11.8054    2.9043 H   0  0  0  0  0  0  0  0  0  0  0  0
   -4.2497  -10.7430    4.1631 H   0  0  0  0  0  0  0  0  0  0  0  0
   -5.9552   -8.6322   -1.4522 H   0  0  0  0  0  0  0  0  0  0  0  0
   -7.1035   -7.8106   -0.3800 H   0  0  0  0  0  0  0  0  0  0  0  0
   -5.6297   -6.9794   -0.9284 H   0  0  0  0  0  0  0  0  0  0  0  0
   -7.7530   -9.8697    1.5272 H   0  0  0  0  0  0  0  0  0  0  0  0
   -7.0489  -10.3510   -0.0325 H   0  0  0  0  0  0  0  0  0  0  0  0
   -6.7326  -11.3204    1.4120 H   0  0  0  0  0  0  0  0  0  0  0  0
   -2.2141   -5.0357    1.3818 H   0  0  0  0  0  0  0  0  0  0  0  0
   -1.7001   -6.5836    2.0983 H   0  0  0  0  0  0  0  0  0  0  0  0
  1  2  1  0  0  0  0
  1  3  2  0  0  0  0
  1 24  1  0  0  0  0
  2  4  2  0  0  0  0
  2 25  1  0  0  0  0
  3  6  1  0  0  0  0
  3 26  1  0  0  0  0
  4  8  1  0  0  0  0
  4 27  1  0  0  0  0
  5  7  1  0  0  0  0
  5  9  2  0  0  0  0
  5 28  1  0  0  0  0
  6  8  2  0  0  0  0
  6 11  1  0  0  0  0
  7 10  2  0  0  0  0
  7 12  1  0  0  0  0
  8 23  1  0  0  0  0
  9 13  1  0  0  0  0
  9 17  1  0  0  0  0
 10 14  1  0  0  0  0
 10 17  1  0  0  0  0
 11 18  1  0  0  0  0
 11 19  2  0  0  0  0
 12 16  1  0  0  0  0
 12 20  2  0  0  0  0
 13 29  1  0  0  0  0
 13 30  1  0  0  0  0
 13 31  1  0  0  0  0
 14 32  1  0  0  0  0
 14 33  1  0  0  0  0
 14 34  1  0  0  0  0
 15 17  1  0  0  0  0
 15 35  1  0  0  0  0
 15 36  1  0  0  0  0
 15 37  1  0  0  0  0
 16 18  1  0  0  0  0
 16 38  1  0  0  0  0
 16 39  1  0  0  0  0
 18 23  1  0  0  0  0
 21 23  2  0  0  0  0
 22 23  2  0  0  0  0
M  END
$$$$
