39
0 1 C16H16N2O4S
C                    -4.672013754301    -5.345687273891     7.581068577612
C                    -5.651366426134    -4.480509739446     7.070316438983
C                    -3.727951651350    -5.940237783018     6.736472782222
C                    -5.710565777031    -4.187668495128     5.701242214339
C                    -3.893774844340    -8.696478023247     2.379274514666
C                    -3.783845385673    -5.651315259989     5.374385083203
C                    -4.155436634024    -7.886005320686     1.219407489242
C                    -4.762054278008    -4.789544123918     4.886327656481
C                    -4.835861560514    -9.695654461866     2.414116859868
C                    -5.279960056425    -8.422565627675     0.583808148248
C                    -2.871656726810    -6.186160429553     4.323362348616
C                    -3.440131293324    -6.693744860481     0.787677669239
C                    -5.007477286005   -10.824150227084     3.380455360140
C                    -6.038612154571    -7.936294248124    -0.607526897434
C                    -6.870178569847   -10.303106935817     1.042733125956
C                    -2.563984656150    -5.968290324222     1.830366619481
N                    -5.678154715356    -9.515411671437     1.313213458061
N                    -3.254976119098    -5.689700271988     3.086884232278
O                    -1.933140416903    -6.949237576328     4.504264234553
O                    -3.484591349662    -6.220435793124    -0.347521136080
O                    -5.732651935145    -5.189504102148     2.411140031678
O                    -4.136404077128    -3.263965913847     2.753493138451
S                    -4.598554479896    -4.601151983277     3.117797145643
H                    -4.648314531754    -5.554493430871     8.646811773342
H                    -6.374507113872    -4.029399529075     7.743780203311
H                    -2.961820638768    -6.611667199644     7.112263242243
H                    -6.465182465020    -3.519398419911     5.297911176189
H                    -3.076497314441    -8.590074594046     3.079919985014
H                    -5.990715997143   -10.811508924369     3.866728237262
H                    -4.886254360146   -11.805443862716     2.904267113665
H                    -4.249688201805   -10.742966690521     4.163114841890
H                    -5.955174328382    -8.632210297695    -1.452168381985
H                    -7.103469206019    -7.810565669363    -0.379973235448
H                    -5.629687924975    -6.979384267551    -0.928386143561
H                    -7.752961221537    -9.869674334677     1.527181601144
H                    -7.048931588842   -10.351047004370    -0.032463751849
H                    -6.732630812794   -11.320419161172     1.411960158699
H                    -2.214104119975    -5.035687141011     1.381783193248
H                    -1.700051894674    -6.583576854019     2.098284844868
