23
0 1 C6H8N2O5S2
C                     2.020456482325    -1.209624272642    -0.265614447109
C                     0.826224329000    -0.836197297964     0.343894541778
C                     1.887070074314    -1.006587147404     2.525593325776
C                     3.155283286648    -1.490003547111     0.508835342353
C                     0.767816436706    -0.745788874384     1.734786001969
C                     3.078938043782    -1.380071003341     1.912287157021
N                    -1.546381378038    -1.762774147599     2.778475732153
N                     4.012546732486    -1.458931107984     4.454331655049
O                    -0.437272284522     0.274045473057     3.841333647351
O                    -1.569305197218     0.450143916910     1.534676390896
O                     4.869539975149    -3.146234462181     2.754731545418
O                     5.549971320558    -0.681108475276     2.572495825988
O                     4.339891002996    -1.860255813074    -0.033871553733
S                    -0.766879131572    -0.275021392253     2.523555845345
S                     4.566152657655    -1.720293441576     2.874603714696
H                     2.080363681826    -1.278971199816    -1.349776110748
H                    -0.049120583533    -0.600410797477    -0.252719118165
H                     1.841924024391    -0.906177592049     3.603579951751
H                    -1.648094624953    -1.926675077913     3.779343421137
H                    -2.454652760265    -1.747617496265     2.315873957100
H                     4.134472733771    -2.312695290140     4.997055892272
H                     4.520963569750    -0.678994290609     4.868667573599
H                     4.272055696983    -1.886122598393    -1.002032804908
