28
1 1 C10H14N3O
C                     4.134420599232    -0.749653672517     0.157560471853
C                     4.161940534158     0.215261653273    -0.846863912416
C                     1.872929760731     0.502238434032    -0.876681942257
C                     1.087233082255    -1.931145826285     1.745321052383
C                     1.702710660901    -0.444618841154     0.152940299711
C                     0.575050445332    -1.003339015351     0.865709611547
C                     2.871396181119    -1.078823339814     0.659302601163
C                    -0.865351427368    -0.606624930754     0.715616010057
C                    -0.422043135910     1.868089847752     1.463766295410
C                    -1.248437621842     0.571798534953     1.626338271243
N                     3.068064219409     0.827174905899    -1.358886028724
N                     2.464156010370    -1.975374087129     1.625217616789
N                    -2.724334161784     0.918264126544     1.343984133883
O                     0.755747343893     1.813637782655     2.225897405626
H                     5.049898284963    -1.210878253295     0.515591903437
H                     5.113498358213     0.518128673150    -1.276827778107
H                     1.018736839199     1.004737355547    -1.332766825875
H                     0.576671373338    -2.573873147264     2.451193931014
H                    -1.509991163036    -1.463359723267     0.948207327962
H                    -1.061502306062    -0.331731684055    -0.329877182520
H                    -0.229223290171     2.061965158605     0.399739798177
H                    -0.997353772385     2.716625732608     1.855746979817
H                    -1.218431125538     0.278846327466     2.678626247374
H                     3.072397540460    -2.593689135145     2.146443421275
H                    -3.329436316321     0.092874066583     1.435950254084
H                    -2.843138245072     1.276124686807     0.387533108705
H                    -3.075938953107     1.638338057717     1.987935780424
H                     1.440828267821     1.338927861511     1.723011470359
