27
0 1 C10H13N3O
C                     5.864052568631     0.506009382586    -1.540518613138
C                     5.724113285135     1.556160414138    -2.445152552929
C                     3.531268383340     1.984492355521    -1.872110223984
C                     3.205492885130    -0.602653201783     0.679197986792
C                     3.535024684268     0.948646613840    -0.921225481591
C                     2.567784921122     0.415917010096     0.012941187440
C                     4.737824200759     0.205226468945    -0.766312134066
C                     1.148550052180     0.865361280648     0.202937793384
C                     0.106605971779    -0.902438695759    -1.275941390404
C                     0.225150837610     0.589764603974    -0.999734852870
N                     4.596076750485     2.285344379707    -2.616611128664
N                     4.511740286140    -0.738652252935     0.210180874704
N                    -1.114666470248     1.114144124715    -0.696677493243
O                    -0.739270977513    -1.062653261204    -2.425589929805
H                     6.801953297273    -0.036038227488    -1.453696957984
H                     6.565703449220     1.837461367138    -3.075499344431
H                     2.640001618643     2.589857066623    -2.034476868477
H                     2.832533475560    -1.252536797853     1.460403892829
H                     0.712816789615     0.385831158377     1.086060388514
H                     1.129334786269     1.945305730009     0.400164399387
H                    -0.335181967094    -1.395033351386    -0.397084778525
H                     1.101195364749    -1.325065228377    -1.463673403642
H                     0.667445251991     1.047001718051    -1.900163982297
H                     5.194235560257    -1.392848664439     0.565087319064
H                    -1.740779976359     0.849703863628    -1.456457500863
H                    -1.088527121623     2.132534596263    -0.677038578641
H                    -0.887446480952    -2.009475351398    -2.567341835751
