23
0 1 C6H8N2O5S2
C                     2.195191104211    -0.817362076542     0.267186156342
C                     0.992785269106    -0.299783186764     0.742957887435
C                     1.796898780334    -0.514593277248     3.026767568562
C                     3.207678572222    -1.185769170364     1.162747432233
C                     0.806553912478    -0.144888863159     2.117293086071
C                     2.993576388552    -1.033788522941     2.543994404922
N                    -0.409079056264     2.200990944649     2.808823378422
N                     5.572351574199    -0.640236277470     3.277778312188
O                    -1.738888263083     0.365782046768     1.670670637120
O                    -0.922028650886     0.052356137044     4.092866879388
O                     3.814469273030    -1.056960399230     5.043503755176
O                     4.505330309670    -2.982874028179     3.510712827973
O                     4.407084888019    -1.679710841290     0.752043775473
S                    -0.734203692963     0.536109156958     2.724124755778
S                     4.231115473446    -1.564411451042     3.734400808101
H                     2.349243469831    -0.939946749992    -0.803001090770
H                     0.197879192631    -0.028213543371     0.055824877785
H                     1.644889874847    -0.417539927808     4.097176403340
H                    -1.110250915059     2.705058839551     2.267051982976
H                    -0.413438783258     2.500864721260     3.783158677699
H                     6.005256416324    -0.258785960257     4.118699257605
H                     6.224848003914    -1.209689456691     2.741000137650
H                     4.410761722406    -1.774283783682    -0.214272864488
