
  -OEChem-05262117483D

 28 29  0     1  0  0  0  0  0999 V2000
   -1.8915   -1.1019    0.1985 C   0  0  0  0  0  0  0  0  0  0  0  0
   -0.5541   -1.0338   -0.1990 C   0  0  0  0  0  0  0  0  0  0  0  0
   -2.4808   -2.3405    0.5032 C   0  0  0  0  0  0  0  0  0  0  0  0
    1.5938   -3.9370   -0.5253 C   0  0  0  0  0  0  0  0  0  0  0  0
    0.4114   -4.5402   -0.1446 C   0  0  0  0  0  0  0  0  0  0  0  0
   -0.5287   -3.4679    0.0199 C   0  0  0  0  0  0  0  0  0  0  0  0
    0.1330   -2.2435   -0.2839 C   0  0  0  0  0  0  0  0  0  0  0  0
    0.1686   -6.0220   -0.0183 C   0  0  0  0  0  0  0  0  0  0  0  0
   -0.0753   -5.9206    2.5351 C   0  0  0  0  0  0  0  0  0  0  0  0
   -0.6290   -6.4670    1.2172 C   0  0  1  0  0  0  0  0  0  0  0  0
   -1.8204   -3.5047    0.4226 N   0  0  0  0  0  0  0  0  0  0  0  0
    1.4315   -2.5678   -0.6153 N   0  0  0  0  0  0  0  0  0  0  0  0
   -2.0762   -6.0434    1.0821 N   0  3  0  0  0  0  0  0  0  0  0  0
    1.2509   -6.4148    2.6160 O   0  0  0  0  0  0  0  0  0  0  0  0
   -2.4867   -0.1993    0.2845 H   0  0  0  0  0  0  0  0  0  0  0  0
   -0.0835   -0.0808   -0.4251 H   0  0  0  0  0  0  0  0  0  0  0  0
   -3.5171   -2.3910    0.8260 H   0  0  0  0  0  0  0  0  0  0  0  0
    2.5498   -4.3931   -0.7479 H   0  0  0  0  0  0  0  0  0  0  0  0
    1.1286   -6.5398    0.0317 H   0  0  0  0  0  0  0  0  0  0  0  0
   -0.3393   -6.4035   -0.9152 H   0  0  0  0  0  0  0  0  0  0  0  0
   -0.1025   -4.8225    2.5324 H   0  0  0  0  0  0  0  0  0  0  0  0
   -0.6921   -6.2830    3.3723 H   0  0  0  0  0  0  0  0  0  0  0  0
   -0.6177   -7.5593    1.2672 H   0  0  0  0  0  0  0  0  0  0  0  0
    2.1568   -1.9132   -0.8786 H   0  0  0  0  0  0  0  0  0  0  0  0
   -2.5256   -6.5524    0.3148 H   0  0  0  0  0  0  0  0  0  0  0  0
   -2.1435   -4.9324    0.8429 H   0  0  0  0  0  0  0  0  0  0  0  0
   -2.6084   -6.2539    1.9329 H   0  0  0  0  0  0  0  0  0  0  0  0
    1.6556   -6.1172    3.4458 H   0  0  0  0  0  0  0  0  0  0  0  0
  1  2  1  0  0  0  0
  1  3  2  0  0  0  0
  1 15  1  0  0  0  0
  2  7  2  0  0  0  0
  2 16  1  0  0  0  0
  3 11  1  0  0  0  0
  3 17  1  0  0  0  0
  4  5  2  0  0  0  0
  4 12  1  0  0  0  0
  4 18  1  0  0  0  0
  5  6  1  0  0  0  0
  5  8  1  0  0  0  0
  6  7  1  0  0  0  0
  6 11  2  0  0  0  0
  7 12  1  0  0  0  0
  8 10  1  0  0  0  0
  8 19  1  0  0  0  0
  8 20  1  0  0  0  0
  9 10  1  0  0  0  0
  9 14  1  0  0  0  0
  9 21  1  0  0  0  0
  9 22  1  0  0  0  0
 10 13  1  0  0  0  0
 10 23  1  0  0  0  0
 12 24  1  0  0  0  0
 13 25  1  0  0  0  0
 13 26  1  0  0  0  0
 13 27  1  0  0  0  0
 14 28  1  0  0  0  0
M  CHG  1  13   1
M  END
$$$$
