42
0 1 C19FH20NO
C                     4.036104421297     2.587021354121    -3.579047989487
C                     6.164081711670     1.587023717140    -3.107147179106
C                     6.918101847606     2.466736077362    -5.915251183444
C                     5.582279473140     4.418968446011    -5.443127742920
C                     3.486456508825     1.941814478069    -2.466796054307
C                     5.612016168444     0.945617561152    -2.002852698606
C                     7.470312094341     3.101134339549    -7.029688006658
C                     6.121869319660     5.070184563215    -6.553954704415
C                     5.384647522685     2.426060061423    -3.923999329905
C                     5.966838595338     3.109677699236    -5.103252328516
C                     4.258934689835     1.104787112733    -1.649352907816
C                     7.059496299639     4.395961752387    -7.329596190371
C                     0.696634756892    -0.845461280593     0.858652721228
C                     5.304036323026    -0.762828502279     1.135553322300
C                     4.290654355025    -1.805564189453     0.640159134016
C                     4.629916601211     0.587888951226     0.826634092081
C                     3.750655650317    -1.190438608904    -0.660741550418
C                     3.711417313607     0.361521402915    -0.429308162210
C                     2.265238286296     0.816178709296    -0.126564197202
N                     1.643308153581     0.125893613257     0.999671653236
O                     0.285934730287    -1.288997213504    -0.206867040008
F                     7.590199170541     5.021352989815    -8.413230999888
H                     3.391939082414     3.201251312824    -4.202837280495
H                     7.221324199396     1.456955117945    -3.323483940552
H                     7.211491986278     1.445174347335    -5.691338202457
H                     4.870366237737     4.948155414708    -4.816290237716
H                     2.433400569559     2.100160793956    -2.263067495542
H                     6.254267954906     0.310951466503    -1.398168795153
H                     8.196762520943     2.604357374171    -7.665570933720
H                     5.834639772114     6.084348819178    -6.814416045013
H                     0.324410310966    -1.206882584347     1.836601231916
H                     5.558705586216    -0.873406107777     2.194693047912
H                     6.238187682961    -0.858851157390     0.569228093695
H                     4.736277077098    -2.792992920454     0.483090558839
H                     3.483437812135    -1.922925153569     1.371074556834
H                     4.022075758813     0.894190071903     1.685612659468
H                     5.350182417333     1.392498481420     0.662514225280
H                     4.437325481738    -1.415473265657    -1.481558021706
H                     2.769769200673    -1.577897177707    -0.946040379035
H                     1.620093202267     0.618658462859    -0.983477375352
H                     2.245789759070     1.892935114676     0.076533010817
H                     1.884411223419     0.402355335917     1.941955731342
