
  -OEChem-05262117483D

 33 34  0     1  0  0  0  0  0999 V2000
    0.5785   -2.7933   -2.1579 C   0  0  0  0  0  0  0  0  0  0  0  0
    0.3747   -1.4818   -1.7129 C   0  0  0  0  0  0  0  0  0  0  0  0
    0.9349   -2.2052    0.5284 C   0  0  0  0  0  0  0  0  0  0  0  0
    0.9604   -3.8237   -1.2901 C   0  0  0  0  0  0  0  0  0  0  0  0
    1.1374   -3.5040    0.0813 C   0  0  0  0  0  0  0  0  0  0  0  0
    0.5545   -1.1840   -0.3586 C   0  0  0  0  0  0  0  0  0  0  0  0
    1.8935   -6.0588   -0.9565 C   0  0  0  0  0  0  0  0  0  0  0  0
    1.1986   -5.2135   -1.7412 C   0  0  0  0  0  0  0  0  0  0  0  0
    1.5617   -5.0496   -4.2325 C   0  0  0  0  0  0  0  0  0  0  0  0
    1.5003   -4.6137    1.0418 C   0  0  0  0  0  0  0  0  0  0  0  0
    2.4368   -5.6305    0.3828 C   0  0  0  0  0  0  0  0  0  0  0  0
    0.5892   -7.1429   -3.3420 C   0  0  0  0  0  0  0  0  0  0  0  0
    0.0252    1.1273   -0.6674 C   0  0  0  0  0  0  0  0  0  0  0  0
    0.6801   -5.6216   -3.1088 C   0  0  1  0  0  0  0  0  0  0  0  0
    2.7671   -5.0291   -4.2132 O   0  0  0  0  0  0  0  0  0  0  0  0
    0.8894   -4.6023   -5.3415 O   0  0  0  0  0  0  0  0  0  0  0  0
    0.3893    0.0561    0.1974 O   0  0  0  0  0  0  0  0  0  0  0  0
    0.4554   -2.9811   -3.2196 H   0  0  0  0  0  0  0  0  0  0  0  0
    0.0930   -0.7171   -2.4277 H   0  0  0  0  0  0  0  0  0  0  0  0
    1.0680   -1.9529    1.5774 H   0  0  0  0  0  0  0  0  0  0  0  0
    2.1177   -7.0654   -1.2948 H   0  0  0  0  0  0  0  0  0  0  0  0
    1.9472   -4.2021    1.9518 H   0  0  0  0  0  0  0  0  0  0  0  0
    0.5771   -5.1302    1.3425 H   0  0  0  0  0  0  0  0  0  0  0  0
    2.5723   -6.4988    1.0360 H   0  0  0  0  0  0  0  0  0  0  0  0
    3.4337   -5.1865    0.2400 H   0  0  0  0  0  0  0  0  0  0  0  0
    1.5808   -7.6008   -3.3483 H   0  0  0  0  0  0  0  0  0  0  0  0
    0.1206   -7.3568   -4.3081 H   0  0  0  0  0  0  0  0  0  0  0  0
   -0.0112   -7.6113   -2.5576 H   0  0  0  0  0  0  0  0  0  0  0  0
   -0.0454    2.0124   -0.0338 H   0  0  0  0  0  0  0  0  0  0  0  0
   -0.9458    0.9439   -1.1443 H   0  0  0  0  0  0  0  0  0  0  0  0
    0.7858    1.2931   -1.4403 H   0  0  0  0  0  0  0  0  0  0  0  0
   -0.3332   -5.2100   -3.2105 H   0  0  0  0  0  0  0  0  0  0  0  0
   -0.0681   -4.6909   -5.2013 H   0  0  0  0  0  0  0  0  0  0  0  0
  1  2  1  0  0  0  0
  1  4  2  0  0  0  0
  1 18  1  0  0  0  0
  2  6  2  0  0  0  0
  2 19  1  0  0  0  0
  3  5  2  0  0  0  0
  3  6  1  0  0  0  0
  3 20  1  0  0  0  0
  4  5  1  0  0  0  0
  4  8  1  0  0  0  0
  5 10  1  0  0  0  0
  6 17  1  0  0  0  0
  7  8  2  0  0  0  0
  7 11  1  0  0  0  0
  7 21  1  0  0  0  0
  8 14  1  0  0  0  0
  9 14  1  0  0  0  0
  9 15  2  0  0  0  0
  9 16  1  0  0  0  0
 10 11  1  0  0  0  0
 10 22  1  0  0  0  0
 10 23  1  0  0  0  0
 11 24  1  0  0  0  0
 11 25  1  0  0  0  0
 12 14  1  0  0  0  0
 12 26  1  0  0  0  0
 12 27  1  0  0  0  0
 12 28  1  0  0  0  0
 13 17  1  0  0  0  0
 13 29  1  0  0  0  0
 13 30  1  0  0  0  0
 13 31  1  0  0  0  0
 14 32  1  0  0  0  0
 16 33  1  0  0  0  0
M  END
$$$$
