
  -OEChem-05262117483D

 32 33  0     1  0  0  0  0  0999 V2000
   -1.0747   -2.8664    1.5653 C   0  0  0  0  0  0  0  0  0  0  0  0
   -0.9767   -1.5183    1.1973 C   0  0  0  0  0  0  0  0  0  0  0  0
    0.7558   -2.0984   -0.3880 C   0  0  0  0  0  0  0  0  0  0  0  0
   -0.2736   -3.8491    0.9650 C   0  0  0  0  0  0  0  0  0  0  0  0
    0.6598   -3.4383   -0.0207 C   0  0  0  0  0  0  0  0  0  0  0  0
   -0.0620   -1.1320    0.2142 C   0  0  0  0  0  0  0  0  0  0  0  0
    0.7078   -6.0754    1.0577 C   0  0  0  0  0  0  0  0  0  0  0  0
   -0.3479   -5.2830    1.3489 C   0  0  0  0  0  0  0  0  0  0  0  0
   -1.6462   -5.3612    3.5820 C   0  0  0  0  0  0  0  0  0  0  0  0
    1.5305   -4.4880   -0.6739 C   0  0  0  0  0  0  0  0  0  0  0  0
    1.9350   -5.5578    0.3456 C   0  0  0  0  0  0  0  0  0  0  0  0
   -2.8625   -5.6305    1.2921 C   0  0  0  0  0  0  0  0  0  0  0  0
   -0.6714    1.1718    0.3913 C   0  0  0  0  0  0  0  0  0  0  0  0
   -1.5542   -5.8476    2.0694 C   0  0  1  0  0  0  0  0  0  0  0  0
   -2.4869   -4.4474    3.8285 O   0  5  0  0  0  0  0  0  0  0  0  0
   -0.8703   -5.9611    4.3661 O   0  0  0  0  0  0  0  0  0  0  0  0
    0.1189    0.1691   -0.2248 O   0  0  0  0  0  0  0  0  0  0  0  0
   -1.7657   -3.1569    2.3554 H   0  0  0  0  0  0  0  0  0  0  0  0
   -1.6113   -0.7937    1.6971 H   0  0  0  0  0  0  0  0  0  0  0  0
    1.4716   -1.7790   -1.1426 H   0  0  0  0  0  0  0  0  0  0  0  0
    0.6996   -7.1121    1.3865 H   0  0  0  0  0  0  0  0  0  0  0  0
    0.9562   -4.9755   -1.4767 H   0  0  0  0  0  0  0  0  0  0  0  0
    2.4086   -4.0234   -1.1382 H   0  0  0  0  0  0  0  0  0  0  0  0
    2.6447   -5.1271    1.0709 H   0  0  0  0  0  0  0  0  0  0  0  0
    2.4620   -6.3772   -0.1592 H   0  0  0  0  0  0  0  0  0  0  0  0
   -3.1274   -4.5737    1.2265 H   0  0  0  0  0  0  0  0  0  0  0  0
   -3.6862   -6.1339    1.8097 H   0  0  0  0  0  0  0  0  0  0  0  0
   -2.7885   -6.0360    0.2728 H   0  0  0  0  0  0  0  0  0  0  0  0
   -0.3816    2.1167   -0.0751 H   0  0  0  0  0  0  0  0  0  0  0  0
   -0.4839    1.2291    1.4719 H   0  0  0  0  0  0  0  0  0  0  0  0
   -1.7441    1.0017    0.2267 H   0  0  0  0  0  0  0  0  0  0  0  0
   -1.3796   -6.9257    2.1428 H   0  0  0  0  0  0  0  0  0  0  0  0
  1  2  1  0  0  0  0
  1  4  2  0  0  0  0
  1 18  1  0  0  0  0
  2  6  2  0  0  0  0
  2 19  1  0  0  0  0
  3  5  2  0  0  0  0
  3  6  1  0  0  0  0
  3 20  1  0  0  0  0
  4  5  1  0  0  0  0
  4  8  1  0  0  0  0
  5 10  1  0  0  0  0
  6 17  1  0  0  0  0
  7  8  2  0  0  0  0
  7 11  1  0  0  0  0
  7 21  1  0  0  0  0
  8 14  1  0  0  0  0
  9 14  1  0  0  0  0
  9 15  1  0  0  0  0
  9 16  2  0  0  0  0
 10 11  1  0  0  0  0
 10 22  1  0  0  0  0
 10 23  1  0  0  0  0
 11 24  1  0  0  0  0
 11 25  1  0  0  0  0
 12 14  1  0  0  0  0
 12 26  1  0  0  0  0
 12 27  1  0  0  0  0
 12 28  1  0  0  0  0
 13 17  1  0  0  0  0
 13 29  1  0  0  0  0
 13 30  1  0  0  0  0
 13 31  1  0  0  0  0
 14 32  1  0  0  0  0
M  CHG  1  15  -1
M  END
$$$$
