33
0 1 C14H16O3
C                    -1.158583167426    -2.544586046211     1.445113322619
C                    -0.955193641916    -1.193736917541     1.143105702408
C                     0.758394039588    -1.852149188630    -0.437831254410
C                    -0.421203336969    -3.563272534198     0.828186877938
C                     0.554129138552    -3.191052951411    -0.133676074325
C                     0.011686439481    -0.843003929796     0.194362556061
C                     0.352173894955    -5.885786998529     0.798627552251
C                    -0.602203030730    -4.995935751120     1.151280368457
C                    -2.413914280248    -6.775494098066     1.545791313698
C                     1.314373525634    -4.281132520216    -0.855403800701
C                     1.602575976064    -5.467663711056     0.069137716963
C                    -1.508894813691    -5.425820494235     3.481705508202
C                    -0.427388233205     1.496180600940     0.427793244275
C                    -1.809487308205    -5.428836301617     1.974071199919
O                    -2.914820986912    -7.562709202921     2.316394053630
O                    -2.442887706218    -7.016408225180     0.206465156376
O                     0.303674644844     0.437346930259    -0.184791857029
H                    -1.904194740986    -2.786260685645     2.195859026394
H                    -1.545872817572    -0.441288512005     1.652797877916
H                     1.499975923396    -1.557447754122    -1.175939566090
H                     0.252786762888    -6.931167672155     1.085838758515
H                     0.700988789939    -4.633443921869    -1.697943599749
H                     2.240574791744    -3.885128554394    -1.282259522878
H                     2.372658434255    -5.191978333698     0.805845677575
H                     2.008751209427    -6.305609992619    -0.506462178358
H                    -0.752981472199    -6.179728682732     3.717199230813
H                    -2.408899664705    -5.655192848335     4.056125639975
H                    -1.124065721156    -4.450004456578     3.790372955904
H                    -0.043213500041     2.417366325447    -0.011913837512
H                    -0.266680770939     1.516292499425     1.512638932960
H                    -1.500809822012     1.413106726962     0.218055566068
H                    -2.625390765976    -4.719719714855     1.782349423350
H                    -1.879840947396    -6.355238887905    -0.239464271517
