
  -OEChem-05262117483D

 42 44  0     0  0  0  0  0  0999 V2000
    4.0361    2.5870   -3.5790 C   0  0  0  0  0  0  0  0  0  0  0  0
    6.1641    1.5870   -3.1071 C   0  0  0  0  0  0  0  0  0  0  0  0
    6.9181    2.4667   -5.9153 C   0  0  0  0  0  0  0  0  0  0  0  0
    5.5823    4.4190   -5.4431 C   0  0  0  0  0  0  0  0  0  0  0  0
    3.4865    1.9418   -2.4668 C   0  0  0  0  0  0  0  0  0  0  0  0
    5.6120    0.9456   -2.0029 C   0  0  0  0  0  0  0  0  0  0  0  0
    7.4703    3.1011   -7.0297 C   0  0  0  0  0  0  0  0  0  0  0  0
    6.1219    5.0702   -6.5540 C   0  0  0  0  0  0  0  0  0  0  0  0
    5.3846    2.4261   -3.9240 C   0  0  0  0  0  0  0  0  0  0  0  0
    5.9668    3.1097   -5.1033 C   0  0  0  0  0  0  0  0  0  0  0  0
    4.2589    1.1048   -1.6494 C   0  0  0  0  0  0  0  0  0  0  0  0
    7.0595    4.3960   -7.3296 C   0  0  0  0  0  0  0  0  0  0  0  0
    0.6966   -0.8455    0.8587 C   0  0  0  0  0  0  0  0  0  0  0  0
    5.3040   -0.7628    1.1356 C   0  0  0  0  0  0  0  0  0  0  0  0
    4.2907   -1.8056    0.6402 C   0  0  0  0  0  0  0  0  0  0  0  0
    4.6299    0.5879    0.8266 C   0  0  0  0  0  0  0  0  0  0  0  0
    3.7507   -1.1904   -0.6607 C   0  0  0  0  0  0  0  0  0  0  0  0
    3.7114    0.3615   -0.4293 C   0  0  0  0  0  0  0  0  0  0  0  0
    2.2652    0.8162   -0.1266 C   0  0  0  0  0  0  0  0  0  0  0  0
    1.6433    0.1259    0.9997 N   0  0  0  0  0  0  0  0  0  0  0  0
    0.2859   -1.2890   -0.2069 O   0  0  0  0  0  0  0  0  0  0  0  0
    7.5902    5.0214   -8.4132 F   0  0  0  0  0  0  0  0  0  0  0  0
    3.3919    3.2013   -4.2028 H   0  0  0  0  0  0  0  0  0  0  0  0
    7.2213    1.4570   -3.3235 H   0  0  0  0  0  0  0  0  0  0  0  0
    7.2115    1.4452   -5.6913 H   0  0  0  0  0  0  0  0  0  0  0  0
    4.8704    4.9482   -4.8163 H   0  0  0  0  0  0  0  0  0  0  0  0
    2.4334    2.1002   -2.2631 H   0  0  0  0  0  0  0  0  0  0  0  0
    6.2543    0.3110   -1.3982 H   0  0  0  0  0  0  0  0  0  0  0  0
    8.1968    2.6044   -7.6656 H   0  0  0  0  0  0  0  0  0  0  0  0
    5.8346    6.0843   -6.8144 H   0  0  0  0  0  0  0  0  0  0  0  0
    0.3244   -1.2069    1.8366 H   0  0  0  0  0  0  0  0  0  0  0  0
    5.5587   -0.8734    2.1947 H   0  0  0  0  0  0  0  0  0  0  0  0
    6.2382   -0.8589    0.5692 H   0  0  0  0  0  0  0  0  0  0  0  0
    4.7363   -2.7930    0.4831 H   0  0  0  0  0  0  0  0  0  0  0  0
    3.4834   -1.9229    1.3711 H   0  0  0  0  0  0  0  0  0  0  0  0
    4.0221    0.8942    1.6856 H   0  0  0  0  0  0  0  0  0  0  0  0
    5.3502    1.3925    0.6625 H   0  0  0  0  0  0  0  0  0  0  0  0
    4.4373   -1.4155   -1.4816 H   0  0  0  0  0  0  0  0  0  0  0  0
    2.7698   -1.5779   -0.9460 H   0  0  0  0  0  0  0  0  0  0  0  0
    1.6201    0.6187   -0.9835 H   0  0  0  0  0  0  0  0  0  0  0  0
    2.2458    1.8929    0.0765 H   0  0  0  0  0  0  0  0  0  0  0  0
    1.8844    0.4024    1.9420 H   0  0  0  0  0  0  0  0  0  0  0  0
  1  5  1  0  0  0  0
  1  9  2  0  0  0  0
  1 23  1  0  0  0  0
  2  6  2  0  0  0  0
  2  9  1  0  0  0  0
  2 24  1  0  0  0  0
  3  7  2  0  0  0  0
  3 10  1  0  0  0  0
  3 25  1  0  0  0  0
  4  8  1  0  0  0  0
  4 10  2  0  0  0  0
  4 26  1  0  0  0  0
  5 11  2  0  0  0  0
  5 27  1  0  0  0  0
  6 11  1  0  0  0  0
  6 28  1  0  0  0  0
  7 12  1  0  0  0  0
  7 29  1  0  0  0  0
  8 12  2  0  0  0  0
  8 30  1  0  0  0  0
  9 10  1  0  0  0  0
 11 18  1  0  0  0  0
 12 22  1  0  0  0  0
 13 20  1  0  0  0  0
 13 21  2  0  0  0  0
 13 31  1  0  0  0  0
 14 15  1  0  0  0  0
 14 16  1  0  0  0  0
 14 32  1  0  0  0  0
 14 33  1  0  0  0  0
 15 17  1  0  0  0  0
 15 34  1  0  0  0  0
 15 35  1  0  0  0  0
 16 18  1  0  0  0  0
 16 36  1  0  0  0  0
 16 37  1  0  0  0  0
 17 18  1  0  0  0  0
 17 38  1  0  0  0  0
 17 39  1  0  0  0  0
 18 19  1  0  0  0  0
 19 20  1  0  0  0  0
 19 40  1  0  0  0  0
 19 41  1  0  0  0  0
 20 42  1  0  0  0  0
M  END
$$$$
