
  -OEChem-05262117483D

 33 34  0     1  0  0  0  0  0999 V2000
   -1.0941   -3.8284    1.7231 C   0  0  0  0  0  0  0  0  0  0  0  0
   -0.8317   -2.4995    1.3768 C   0  0  0  0  0  0  0  0  0  0  0  0
    0.8798   -3.2785   -0.1518 C   0  0  0  0  0  0  0  0  0  0  0  0
   -0.3876   -4.8948    1.1523 C   0  0  0  0  0  0  0  0  0  0  0  0
    0.6185   -4.5966    0.1971 C   0  0  0  0  0  0  0  0  0  0  0  0
    0.1613   -2.2202    0.4310 C   0  0  0  0  0  0  0  0  0  0  0  0
    0.3259   -7.2347    1.2525 C   0  0  0  0  0  0  0  0  0  0  0  0
   -0.6201   -6.3085    1.5257 C   0  0  0  0  0  0  0  0  0  0  0  0
   -1.9917   -6.1714    3.6684 C   0  0  0  0  0  0  0  0  0  0  0  0
    1.3604   -5.7412   -0.4564 C   0  0  0  0  0  0  0  0  0  0  0  0
    1.6067   -6.8800    0.5391 C   0  0  0  0  0  0  0  0  0  0  0  0
   -3.1795   -6.4340    1.4335 C   0  0  0  0  0  0  0  0  0  0  0  0
   -0.1865    0.1412    0.5810 C   0  0  0  0  0  0  0  0  0  0  0  0
   -1.9020   -6.7204    2.2340 C   0  0  1  0  0  0  0  0  0  0  0  0
   -3.0169   -5.8099    4.2012 O   0  0  0  0  0  0  0  0  0  0  0  0
   -0.8187   -6.1669    4.3562 O   0  0  0  0  0  0  0  0  0  0  0  0
    0.5079   -0.9663    0.0124 O   0  0  0  0  0  0  0  0  0  0  0  0
   -1.8617   -4.0098    2.4678 H   0  0  0  0  0  0  0  0  0  0  0  0
   -1.3998   -1.7079    1.8515 H   0  0  0  0  0  0  0  0  0  0  0  0
    1.6471   -3.0388   -0.8834 H   0  0  0  0  0  0  0  0  0  0  0  0
    0.1680   -8.2705    1.5488 H   0  0  0  0  0  0  0  0  0  0  0  0
    0.7495   -6.1260   -1.2856 H   0  0  0  0  0  0  0  0  0  0  0  0
    2.3023   -5.3907   -0.8887 H   0  0  0  0  0  0  0  0  0  0  0  0
    2.3683   -6.5769    1.2738 H   0  0  0  0  0  0  0  0  0  0  0  0
    2.0078   -7.7571    0.0210 H   0  0  0  0  0  0  0  0  0  0  0  0
   -3.3130   -5.3669    1.2484 H   0  0  0  0  0  0  0  0  0  0  0  0
   -4.0541   -6.7922    1.9806 H   0  0  0  0  0  0  0  0  0  0  0  0
   -3.1278   -6.9445    0.4675 H   0  0  0  0  0  0  0  0  0  0  0  0
    0.2408    1.0309    0.1168 H   0  0  0  0  0  0  0  0  0  0  0  0
   -0.0383    0.1899    1.6665 H   0  0  0  0  0  0  0  0  0  0  0  0
   -1.2597    0.0951    0.3597 H   0  0  0  0  0  0  0  0  0  0  0  0
   -1.8391   -7.8074    2.3785 H   0  0  0  0  0  0  0  0  0  0  0  0
   -0.0987   -6.4177    3.7452 H   0  0  0  0  0  0  0  0  0  0  0  0
  1  2  1  0  0  0  0
  1  4  2  0  0  0  0
  1 18  1  0  0  0  0
  2  6  2  0  0  0  0
  2 19  1  0  0  0  0
  3  5  2  0  0  0  0
  3  6  1  0  0  0  0
  3 20  1  0  0  0  0
  4  5  1  0  0  0  0
  4  8  1  0  0  0  0
  5 10  1  0  0  0  0
  6 17  1  0  0  0  0
  7  8  2  0  0  0  0
  7 11  1  0  0  0  0
  7 21  1  0  0  0  0
  8 14  1  0  0  0  0
  9 14  1  0  0  0  0
  9 15  2  0  0  0  0
  9 16  1  0  0  0  0
 10 11  1  0  0  0  0
 10 22  1  0  0  0  0
 10 23  1  0  0  0  0
 11 24  1  0  0  0  0
 11 25  1  0  0  0  0
 12 14  1  0  0  0  0
 12 26  1  0  0  0  0
 12 27  1  0  0  0  0
 12 28  1  0  0  0  0
 13 17  1  0  0  0  0
 13 29  1  0  0  0  0
 13 30  1  0  0  0  0
 13 31  1  0  0  0  0
 14 32  1  0  0  0  0
 16 33  1  0  0  0  0
M  END
$$$$
