
  -OEChem-05262117483D

 53 57  0     1  0  0  0  0  0999 V2000
    0.1984   -4.0457    1.1422 C   0  0  0  0  0  0  0  0  0  0  0  0
   -0.7696   -4.9962    0.7928 C   0  0  0  0  0  0  0  0  0  0  0  0
   -9.0232   -7.2009   -4.8229 C   0  0  0  0  0  0  0  0  0  0  0  0
   -9.0178   -7.3022   -2.4060 C   0  0  0  0  0  0  0  0  0  0  0  0
    0.4044   -2.9357    0.3241 C   0  0  0  0  0  0  0  0  0  0  0  0
   -1.5161   -4.8146   -0.3700 C   0  0  0  0  0  0  0  0  0  0  0  0
   -9.5350   -8.4974   -4.8799 C   0  0  0  0  0  0  0  0  0  0  0  0
   -9.5283   -8.5979   -2.4516 C   0  0  0  0  0  0  0  0  0  0  0  0
   -8.7642   -6.5850   -3.5880 C   0  0  0  0  0  0  0  0  0  0  0  0
   -0.3409   -2.7433   -0.8511 C   0  0  0  0  0  0  0  0  0  0  0  0
   -1.3119   -3.6990   -1.1979 C   0  0  0  0  0  0  0  0  0  0  0  0
   -9.7888   -9.1856   -3.6922 C   0  0  0  0  0  0  0  0  0  0  0  0
   -8.1955   -5.2357   -3.4888 C   0  0  0  0  0  0  0  0  0  0  0  0
   -7.6763   -3.0784   -3.9237 C   0  0  0  0  0  0  0  0  0  0  0  0
   -4.6435   -3.4237   -2.7487 C   0  0  0  0  0  0  0  0  0  0  0  0
   -0.0594   -1.5387   -1.7302 C   0  0  0  0  0  0  0  0  0  0  0  0
   -1.1928   -1.2347   -2.7145 C   0  0  0  0  0  0  0  0  0  0  0  0
   -1.6238   -2.5157   -3.4300 C   0  0  0  0  0  0  0  0  0  0  0  0
  -10.3531   -3.0225   -5.5249 C   0  0  0  0  0  0  0  0  0  0  0  0
  -10.7727   -4.4574   -5.3173 C   0  0  0  0  0  0  0  0  0  0  0  0
   -2.1841   -3.5376   -2.4317 C   0  0  2  0  0  0  0  0  0  0  0  0
   -9.3105   -4.1118   -5.4958 C   0  0  0  0  0  0  0  0  0  0  0  0
   -5.9671   -2.9388   -2.1256 C   0  0  0  0  0  0  0  0  0  0  0  0
   -7.3802   -4.8853   -2.5279 N   0  0  0  0  0  0  0  0  0  0  0  0
   -8.4370   -4.1772   -4.3594 N   0  0  0  0  0  0  0  0  0  0  0  0
   -7.0988   -3.5537   -2.7584 N   0  0  0  0  0  0  0  0  0  0  0  0
   -3.5414   -3.1661   -1.9923 N   0  0  0  0  0  0  0  0  0  0  0  0
   -7.5861   -1.9644   -4.4231 O   0  0  0  0  0  0  0  0  0  0  0  0
   -4.6026   -3.9665   -3.8481 O   0  0  0  0  0  0  0  0  0  0  0  0
  -10.4430  -10.8125   -3.7583 Cl  0  0  0  0  0  0  0  0  0  0  0  0
    0.7874   -4.1715    2.0472 H   0  0  0  0  0  0  0  0  0  0  0  0
   -0.9364   -5.8679    1.4201 H   0  0  0  0  0  0  0  0  0  0  0  0
   -8.8077   -6.6821   -5.7498 H   0  0  0  0  0  0  0  0  0  0  0  0
   -8.8121   -6.8320   -1.4498 H   0  0  0  0  0  0  0  0  0  0  0  0
    1.1566   -2.1982    0.5978 H   0  0  0  0  0  0  0  0  0  0  0  0
   -2.2718   -5.5458   -0.6505 H   0  0  0  0  0  0  0  0  0  0  0  0
   -9.7280   -8.9724   -5.8365 H   0  0  0  0  0  0  0  0  0  0  0  0
   -9.7286   -9.1460   -1.5364 H   0  0  0  0  0  0  0  0  0  0  0  0
    0.1522   -0.6675   -1.1002 H   0  0  0  0  0  0  0  0  0  0  0  0
    0.8609   -1.7343   -2.2980 H   0  0  0  0  0  0  0  0  0  0  0  0
   -2.0517   -0.8087   -2.1803 H   0  0  0  0  0  0  0  0  0  0  0  0
   -0.8672   -0.4801   -3.4380 H   0  0  0  0  0  0  0  0  0  0  0  0
   -2.3814   -2.3206   -4.1932 H   0  0  0  0  0  0  0  0  0  0  0  0
   -0.7598   -2.9631   -3.9380 H   0  0  0  0  0  0  0  0  0  0  0  0
  -10.5423   -2.5507   -6.4834 H   0  0  0  0  0  0  0  0  0  0  0  0
  -10.3809   -2.3507   -4.6747 H   0  0  0  0  0  0  0  0  0  0  0  0
  -11.0906   -4.7564   -4.3238 H   0  0  0  0  0  0  0  0  0  0  0  0
  -11.2595   -4.9906   -6.1280 H   0  0  0  0  0  0  0  0  0  0  0  0
   -2.2860   -4.5024   -2.9373 H   0  0  0  0  0  0  0  0  0  0  0  0
   -8.8363   -4.3669   -6.4403 H   0  0  0  0  0  0  0  0  0  0  0  0
   -6.0004   -3.1448   -1.0518 H   0  0  0  0  0  0  0  0  0  0  0  0
   -6.0532   -1.8597   -2.2810 H   0  0  0  0  0  0  0  0  0  0  0  0
   -3.6516   -2.7771   -1.0647 H   0  0  0  0  0  0  0  0  0  0  0  0
  1  2  1  0  0  0  0
  1  5  2  0  0  0  0
  1 31  1  0  0  0  0
  2  6  2  0  0  0  0
  2 32  1  0  0  0  0
  3  7  2  0  0  0  0
  3  9  1  0  0  0  0
  3 33  1  0  0  0  0
  4  8  1  0  0  0  0
  4  9  2  0  0  0  0
  4 34  1  0  0  0  0
  5 10  1  0  0  0  0
  5 35  1  0  0  0  0
  6 11  1  0  0  0  0
  6 36  1  0  0  0  0
  7 12  1  0  0  0  0
  7 37  1  0  0  0  0
  8 12  2  0  0  0  0
  8 38  1  0  0  0  0
  9 13  1  0  0  0  0
 10 11  2  0  0  0  0
 10 16  1  0  0  0  0
 11 21  1  0  0  0  0
 12 30  1  0  0  0  0
 13 24  2  0  0  0  0
 13 25  1  0  0  0  0
 14 25  1  0  0  0  0
 14 26  1  0  0  0  0
 14 28  2  0  0  0  0
 15 23  1  0  0  0  0
 15 27  1  0  0  0  0
 15 29  2  0  0  0  0
 16 17  1  0  0  0  0
 16 39  1  0  0  0  0
 16 40  1  0  0  0  0
 17 18  1  0  0  0  0
 17 41  1  0  0  0  0
 17 42  1  0  0  0  0
 18 21  1  0  0  0  0
 18 43  1  0  0  0  0
 18 44  1  0  0  0  0
 19 20  1  0  0  0  0
 19 22  1  0  0  0  0
 19 45  1  0  0  0  0
 19 46  1  0  0  0  0
 20 22  1  0  0  0  0
 20 47  1  0  0  0  0
 20 48  1  0  0  0  0
 21 27  1  0  0  0  0
 21 49  1  0  0  0  0
 22 25  1  0  0  0  0
 22 50  1  0  0  0  0
 23 26  1  0  0  0  0
 23 51  1  0  0  0  0
 23 52  1  0  0  0  0
 24 26  1  0  0  0  0
 27 53  1  0  0  0  0
M  END
$$$$
