55
-1 1 C26H26NO2
C                     4.894110318636    -3.751646053093     3.929709120257
C                    -0.188080391763   -10.183264993142     3.557493321087
C                     3.856849340131    -2.814496967761     3.857484056444
C                     4.596271032606    -5.113987354998     4.066050093972
C                    -1.170383930351    -9.189245624571     3.456325767004
C                     1.114494450612    -9.907747915304     3.131452039679
C                    -0.581169644217    -1.623308768754     1.968910118708
C                     1.038699292748    -2.340382894864     0.351799459744
C                     2.527312310318    -3.240388857151     3.918603008257
C                     3.262822144932    -5.534842112354     4.120855099102
C                    -0.851630275054    -7.935238169164     2.930937676833
C                     1.429376386139    -8.647862078978     2.608481141047
C                    -0.654202470583    -2.920727382473     2.467584269054
C                     0.998553395955    -3.638483057080     0.872433390103
C                     0.286647611367    -1.304122198873     0.911540437947
C                     2.214487530031    -4.603786417935     4.043864953261
C                     0.452441757820    -7.651087110042     2.497734553390
C                     0.169945785092    -3.939245697943     1.961205515483
C                     1.461201870896     0.587418962486     2.872730607291
C                    -0.243313109665     1.643850978272    -0.888335477499
C                    -0.739925786686     1.072696578986     0.468187335763
C                     0.694700010925     0.413564663933    -1.028938169296
C                     0.503919682948     0.129360925219     0.497322356578
C                     0.771181411088    -5.068088248862     4.020747682768
C                     0.787518460983    -6.301048728485     1.894277600217
C                     1.670991048629     0.713730535780     1.330890659825
N                     0.199467422777    -5.197430012574     2.648144698104
O                     0.417411708170     1.136718110133     3.329071924894
O                     2.348103362822    -0.058860370559     3.500830919823
H                     5.931405614284    -3.424654315150     3.883679884154
H                    -0.435138753136   -11.158478207995     3.970880959368
H                     4.032331610039    -1.747618374700     3.746889363814
H                     5.399436930327    -5.846077884605     4.131914130207
H                    -2.185029076105    -9.393332039424     3.791501659143
H                     1.887883853612   -10.668112970664     3.215027499569
H                    -1.145725388898    -0.827796302822     2.444972262253
H                     1.724059304737    -2.121771618641    -0.464676774148
H                     1.757443787890    -2.477077967510     3.856496294263
H                     3.031411109169    -6.593376639158     4.232165413950
H                    -1.600783520558    -7.150597368561     2.867155952923
H                     2.447506502499    -8.431939705622     2.290933401236
H                    -1.312209720019    -3.140649764030     3.304922245538
H                     1.669332972383    -4.388192086825     0.465436058776
H                     0.314643414191     2.577358959262    -0.765512695470
H                    -0.990848528141     1.788392600637    -1.676501132794
H                    -0.825818270159     1.742638616060     1.324471708509
H                    -1.670703567817     0.506829422051     0.348437125957
H                     0.246861830249    -0.370294023337    -1.650689953415
H                     1.720531809451     0.595111976730    -1.370542664944
H                     0.672198120610    -6.042408942848     4.508127582740
H                     0.142729317421    -4.365106604007     4.569930840062
H                     1.881308398136    -6.218835090272     1.789865237313
H                     0.370157225736    -6.258882147345     0.881790100455
H                     1.787791476493     1.776326624678     1.075165529348
H                     2.593239360975     0.192731621315     1.049846950451
