33
0 1 C14H16O3
C                     0.371503373183    -3.173241518555    -2.288863857958
C                     0.158456527624    -1.810887770402    -2.054524281427
C                     0.707659026345    -2.168375493569     0.279079049019
C                     0.757888712394    -4.047636023525    -1.264532843044
C                     0.920580721494    -3.519312677327     0.042100153524
C                     0.329617054878    -1.302578107398    -0.762105302244
C                     1.711698069061    -6.196733347888    -0.581036915989
C                     1.015098555371    -5.487293608479    -1.497171358265
C                     1.435334069556    -5.702835678048    -3.996385729266
C                     1.269308699121    -4.467111575734     1.167727577172
C                     2.223511340291    -5.566431790454     0.691311429948
C                     0.429467052959    -7.634662147937    -2.809247736210
C                    -0.219400252986     0.926580522125    -1.432547570534
C                     0.541828715921    -6.097342559207    -2.806737372441
O                     1.016318261216    -5.562373255253    -5.124058200579
O                     2.759903913979    -5.578463047097    -3.725994330683
O                     0.154922221827     0.006361652008    -0.410246019016
H                     0.240456425870    -3.534167512439    -3.303882020728
H                    -0.130084082920    -1.171100393960    -2.880382933099
H                     0.826957578110    -1.753185694672     1.276552246117
H                     1.923587085467    -7.249324627229    -0.746752061576
H                     1.695934753097    -3.919959395283     2.013669091376
H                     0.342143203340    -4.938011870762     1.524737590905
H                     2.344406133945    -6.327177514733     1.469140280488
H                     3.223559910579    -5.141604774949     0.514160087491
H                     1.402365366229    -8.122146745620    -2.697402851837
H                    -0.000227445657    -7.966242328556    -3.757773358973
H                    -0.219031702226    -7.968031053363    -1.994383873529
H                    -0.298050179025     1.898635459215    -0.944157053217
H                    -1.188238776905     0.661112540685    -1.872771584371
H                     0.540273718104     0.975944394881    -2.221976689338
H                    -0.445314169426    -5.695435267051    -3.047308762059
H                     2.884549081777    -5.649154830525    -2.758664469825
