42
0 1 C19FH20NO
C                    -0.466446702580    -0.141164228195    -6.153825654065
C                     1.724176977873    -1.106145002622    -5.947054585636
C                     1.267531880801    -2.103831474012    -8.780349425492
C                     0.172595216633     0.017926142600    -9.122211233558
C                    -0.508164541445     0.053109891771    -4.775654894337
C                     1.677835273210    -0.907028382002    -4.565683796063
C                     1.316484201856    -2.313006144708   -10.159938242558
C                     0.211286585194    -0.172681155012   -10.504952660900
C                     0.652882131108    -0.726292784711    -6.769728617104
C                     0.698280323388    -0.938919680528    -8.236113149057
C                     0.564287906927    -0.319154078401    -3.950661293943
C                     0.785565230856    -1.339134769800   -10.999552347811
C                    -0.546128524180    -3.398497625387    -3.149038725682
C                     0.336763757153     1.437130229303    -0.549675572564
C                     1.563816221932     0.504758497620    -0.341475064194
C                    -0.120311598034     1.216510688523    -2.011499073221
C                     1.836940127585    -0.131243118597    -1.719364862574
C                     0.469899229331    -0.151795001474    -2.442748865993
C                    -0.437332033921    -1.277377185763    -1.870390720848
N                     0.025616844339    -2.621687970155    -2.181070179681
O                    -1.558855598340    -3.119340596814    -3.776145926051
F                     0.828538315107    -1.533922276329   -12.344509479832
H                    -1.330682243381     0.127736763941    -6.755261684763
H                     2.616648308655    -1.538063045668    -6.392707095095
H                     1.651586384902    -2.872498944092    -8.115981360148
H                    -0.250423034124     0.937404942513    -8.727882214151
H                    -1.405327541501     0.479712365611    -4.335903493960
H                     2.532656730266    -1.209608354992    -3.968614324038
H                     1.744668767386    -3.216169347570   -10.584056578651
H                    -0.184944905662     0.567891894779   -11.193044486738
H                     0.006758100990    -4.345786539841    -3.299484261768
H                    -0.462918794536     1.187811069425     0.154284076445
H                     0.589535771873     2.486420099030    -0.374059912956
H                     2.439352331483     1.045785134352     0.027969116417
H                     1.338481384114    -0.265718668560     0.403001863466
H                    -1.208868025490     1.256240149310    -2.116550581652
H                     0.293327785721     1.992659020411    -2.663355521309
H                     2.526633735798     0.498206622281    -2.292218910267
H                     2.307108607573    -1.117745852981    -1.638732368824
H                    -1.437577855014    -1.192290665640    -2.297387235914
H                    -0.528804489993    -1.173879976636    -0.783884172444
H                     0.895498658352    -2.945724655551    -1.779547377102
