15
0 1 C3H5O6P
C                     0.660430547679     1.460805199659     0.217975649726
C                    -0.060360243986     0.470902379986    -0.313354391424
C                     0.033124974649    -0.968911349287     0.079336776891
O                    -0.585610351199    -1.862918114204    -0.455291869234
O                    -3.218699285605     0.615398699491     0.054866855362
O                     0.904087045728    -1.165613874056     1.104089546042
O                    -3.109765590279     1.040571553470    -2.499023110482
O                    -2.174733610673     2.805344678566    -0.869949686282
O                    -0.954461107195     0.686766416845    -1.358200749528
P                    -2.456044766209     1.214557908196    -1.049137942949
H                     0.538482442663     2.481750088979    -0.128963751264
H                     1.372821677729     1.247543322940     1.005633665323
H                     0.892715810653    -2.124471517812     1.285944125587
H                    -2.505863567321     1.242868709047    -3.234635293259
H                    -2.796739823195     3.192809962628    -0.229886608513
