31
0 1 C12FH14NOS2
C                    -1.381199156236     0.669202242041    -4.601927910529
C                    -1.925144681544     1.017036714532    -3.361067301994
C                    -1.013974101425    -0.651991864536    -4.870426611565
C                    -1.755499781322    -1.282275567531    -2.632060986507
C                    -2.111205373230     0.048066102689    -2.366718658195
C                    -1.216448663662    -1.601076589480    -3.871639440994
C                    -1.873620395200    -0.212279205222     0.144636948348
C                     0.122841864158    -0.427098021839     1.491240763429
C                     0.105304243466     1.262088928057    -0.360879807297
C                     0.571053215311    -1.864471122315     1.203529998004
C                     1.092883779389     0.742195306032    -1.414042899657
C                    -2.661903490794     0.419775119428    -1.003709047807
N                    -0.602119695903     0.231327732686     0.400807577244
O                    -2.376512976933    -1.119145727790     0.814317090328
F                    -0.865785659604    -2.887978033683    -4.116668587685
S                     1.335715157872    -2.114465565232    -0.452307283307
S                     2.416035677601    -0.353026431192    -0.758329908601
H                    -1.236441248561     1.430930071597    -5.363161176355
H                    -2.196703180464     2.051204086021    -3.163048930464
H                    -0.582620679879    -0.948982720745    -5.821198083577
H                    -1.869640003598    -2.057706880174    -1.881078401844
H                    -0.516574781313    -0.450140371422     2.379036580717
H                     0.997960495224     0.185094567561     1.712425301426
H                     0.640709102599     1.896389181333     0.353691130686
H                    -0.622283427296     1.901544092337    -0.863420687273
H                     1.269358013145    -2.178246966344     1.984632883821
H                    -0.290428312657    -2.536159825191     1.204867911454
H                     0.579466810163     0.207564130440    -2.212074413157
H                     1.617443654307     1.597216411065    -1.856600241027
H                    -2.709205181126     1.508166057295    -0.901667091885
H                    -3.679051745298     0.037186769582    -0.889097344512
