31
0 1 C12FH14NOS2
C                     4.466839398728    -0.627986714060     2.379943193573
C                     3.534354767087    -1.515448826907     1.832657554629
C                     5.065939974599     0.351721527816     1.584444782587
C                     3.786948983555    -0.462991450567    -0.330039375335
C                     3.186621531488    -1.440970378361     0.476810987508
C                     4.706643788314     0.408045081037     0.240410869004
C                     1.194612441236    -1.735909805028    -1.071985602945
C                     0.021046420147    -0.739530650063     0.907148521104
C                    -0.665741380749    -0.224575357393    -1.451483198040
C                    -0.682738907305    -1.895767181148     1.650012834132
C                    -1.941124610907    -1.009164404465    -1.759075706907
C                     2.187438229441    -2.410576045191    -0.125916923513
N                     0.243960891364    -0.909290498158    -0.526724273211
O                     1.288844154287    -1.901916156834    -2.290087516757
F                     5.280243256193     1.354463260849    -0.546796234692
S                    -1.926093162901    -2.826643521535     0.672821486072
S                    -3.004386383569    -1.319352659844    -0.289516587949
H                     4.727866932482    -0.697399788385     3.432414169767
H                     3.076124138672    -2.272640390660     2.464484190201
H                     5.790427053205     1.055259660718     1.982508348448
H                     3.544739033746    -0.377331916194    -1.385641106785
H                    -0.598060832612     0.151437219470     1.017237997667
H                     0.967059403678    -0.527509662152     1.414112401792
H                    -0.124434311847    -0.061170874680    -2.385681506577
H                    -0.918422429906     0.749081827747    -1.021772263180
H                     0.025058996307    -2.669854743516     1.963067573668
H                    -1.147123004120    -1.493164259089     2.554724536515
H                    -2.569466455793    -0.432474441132    -2.447747362798
H                    -1.703596588220    -1.966908447699    -2.225950074634
H                     2.708151203000    -3.150065874523    -0.739201533588
H                     1.671194252678    -2.955015864348     0.667530163766
