
  -OEChem-05262117483D

 15 14  0     0  0  0  0  0  0999 V2000
    0.9910    1.2881   -0.2233 C   0  0  0  0  0  0  0  0  0  0  0  0
    0.0800    0.3308   -0.4232 C   0  0  0  0  0  0  0  0  0  0  0  0
    0.1138   -0.9931    0.2626 C   0  0  0  0  0  0  0  0  0  0  0  0
   -0.7283   -1.8670    0.1001 O   0  0  0  0  0  0  0  0  0  0  0  0
   -0.0741   -0.9304   -3.1528 O   0  0  0  0  0  0  0  0  0  0  0  0
    1.1625   -1.1494    1.0917 O   0  0  0  0  0  0  0  0  0  0  0  0
   -2.1988    0.5738   -3.4559 O   0  0  0  0  0  0  0  0  0  0  0  0
   -2.4470   -1.4049   -2.0481 O   0  0  0  0  0  0  0  0  0  0  0  0
   -1.0173    0.5445   -1.2318 O   0  0  0  0  0  0  0  0  0  0  0  0
   -1.3138   -0.4046   -2.5469 P   0  0  0  0  0  0  0  0  0  0  0  0
    0.9131    2.2353   -0.7468 H   0  0  0  0  0  0  0  0  0  0  0  0
    1.8074    1.1315    0.4707 H   0  0  0  0  0  0  0  0  0  0  0  0
    1.0886   -2.0474    1.4684 H   0  0  0  0  0  0  0  0  0  0  0  0
   -1.6827    0.9005   -4.2123 H   0  0  0  0  0  0  0  0  0  0  0  0
   -2.1379   -1.8562   -1.2313 H   0  0  0  0  0  0  0  0  0  0  0  0
  1  2  2  0  0  0  0
  1 11  1  0  0  0  0
  1 12  1  0  0  0  0
  2  3  1  0  0  0  0
  2  9  1  0  0  0  0
  3  4  2  0  0  0  0
  3  6  1  0  0  0  0
  5 10  2  0  0  0  0
  6 13  1  0  0  0  0
  7 10  1  0  0  0  0
  7 14  1  0  0  0  0
  8 10  1  0  0  0  0
  8 15  1  0  0  0  0
  9 10  1  0  0  0  0
M  END
$$$$
