15
0 1 C3H5O6P
C                     0.184621430217     1.624534962312     0.400089018093
C                    -0.147304816423     0.496479334947    -0.240203140489
C                     0.265192322448    -0.880324057327     0.201325813765
O                     0.360027207559    -1.806373920545    -0.590029642380
O                    -0.841148518077     1.080137397955    -3.907202631393
O                     0.554465361877    -1.073918380373     1.499800173061
O                    -0.900427245555    -1.376579121681    -3.092776451182
O                     1.228519502760     0.042250863194    -2.747212667519
O                    -0.899232051199     0.527807610089    -1.384466169332
P                    -0.373965460116     0.123493429474    -2.903921079395
H                    -0.102486660575     2.586251565325    -0.012011158492
H                     0.764756178438     1.623156709683     1.317381585862
H                     0.295870556303    -0.297203320859     2.025510696198
H                    -0.732015381152    -1.924984213847    -2.299036088601
H                     1.545819772848    -0.809502599023    -2.397479602449
