31
0 1 C12FH14NOS2
C                     3.689344945851    -0.404818941589     3.151225598131
C                     3.089844020961    -1.286954737640     2.246197770575
C                     4.046709846988     0.886057226729     2.753215595588
C                     3.202817005313     0.397871405740     0.515366532155
C                     2.837205597029    -0.892242424596     0.926132563033
C                     3.795599591588     1.254416265969     1.433891447812
C                     1.046732324516    -1.135495350936    -0.854506850620
C                    -1.120616385344    -0.076799832550    -1.016142643175
C                    -0.373600978729    -0.937425040663     1.216618804719
C                    -0.768203138245     1.355416563011    -1.433898168362
C                    -0.139448947892     0.302449176259     2.089807373036
C                     2.152191074257    -1.825189652371    -0.053277545695
N                    -0.104502846915    -0.760881405316    -0.211464737994
O                     1.204150008483    -0.909077038655    -2.057684882278
F                     4.136993718127     2.503686532277     1.031473790694
S                    -0.057554064864     2.395135029899    -0.091332324655
S                    -1.113693837243     1.784194801870     1.604322932915
H                     3.874934685695    -0.720796702575     4.174148446029
H                     2.807964058133    -2.284924467007     2.573399269072
H                     4.506153788786     1.593918658065     3.435923016848
H                     3.008456634753     0.745245282387    -0.494511309026
H                    -2.041025039576    -0.064651019190    -0.431126124058
H                    -1.298247617445    -0.654491194961    -1.928429623164
H                     0.247133710916    -1.747666519242     1.602760738288
H                    -1.414523408440    -1.261440860602     1.322107604029
H                     0.007134584117     1.344753536380    -2.203404818246
H                    -1.664628227139     1.834750080073    -1.837469865724
H                    -0.450954436476     0.074026859297     3.115879730230
H                     0.912503995563     0.584021898799     2.108129588903
H                     2.865069036757    -2.175437834413    -0.803775906751
H                     1.771049568989    -2.706817962185     0.470959531125
