15
0 1 C3H5O6P
C                     0.295154166779     1.329706250101     0.331917800971
C                    -0.195323536584     0.160106475708    -0.088549508707
C                     0.206213617280    -1.175743310138     0.448235942018
O                    -0.265613314669    -2.232232180723     0.087900520484
O                    -2.622097569191     2.207200706922    -0.854329253457
O                     1.174068898192    -1.075905588969     1.399858177522
O                    -3.212794165360    -0.092961968210     0.241362742387
O                    -3.306783324746     0.130253424919    -2.277747569880
O                    -1.127601423981     0.047988377140    -1.115421092826
P                    -2.580297125764     0.734489644452    -0.981750506069
H                    -0.050721688560     2.266388828679    -0.092903356542
H                     1.037172267238     1.344906717308     1.120811138432
H                     1.361660996975    -1.989945537261     1.685585951895
H                    -3.856927494313     0.440183685241     0.737704988686
H                    -3.386555889653     0.797539749118    -2.980607773857
