18
0 1 C8H7N3
C                     1.547832852917     2.519027194402     4.457890297706
C                     4.919359109642    -2.034318591573     6.762977353083
C                     5.198082292279    -1.726417175510     5.426855797697
C                     3.595037417580    -2.006806880061     7.213655484970
C                     4.166188350755    -1.389287137767     4.546354899930
C                     2.555672642156    -1.670956980200     6.341474459478
C                     2.837641533215    -1.356145107736     5.001737956980
C                     1.415857390103     0.158709373787     3.965134634620
N                     1.167323883754     3.610128694362     4.289755722161
N                     1.783059436289    -1.049867995829     4.103634931819
N                     1.972324777537     1.259594873529     4.638450038826
H                     5.723951785542    -2.298800625910     7.443318807159
H                     6.222675011783    -1.750251576375     5.064809228735
H                     3.366665504748    -2.249814008879     8.248173817369
H                     4.376079098762    -1.161434167858     3.504799822988
H                     1.524290880670    -1.660267320081     6.683456306104
H                     0.609273118728     0.424886114016     3.283271039340
H                     2.730893128098     1.085579271178     5.292864196169
