
  -OEChem-05262117493D

 42 42  0     1  0  0  0  0  0999 V2000
   -0.2467   -2.4375    3.5495 C   0  0  0  0  0  0  0  0  0  0  0  0
    3.2074    3.1836    0.3614 C   0  0  0  0  0  0  0  0  0  0  0  0
    1.8310    3.3982    0.2675 C   0  0  0  0  0  0  0  0  0  0  0  0
    3.7020    2.1764    1.1902 C   0  0  0  0  0  0  0  0  0  0  0  0
    0.9287    2.6125    0.9952 C   0  0  0  0  0  0  0  0  0  0  0  0
    2.8319    1.3657    1.9321 C   0  0  0  0  0  0  0  0  0  0  0  0
    1.4484    1.5958    1.8221 C   0  0  0  0  0  0  0  0  0  0  0  0
   -1.0101   -3.1650    4.3288 C   0  0  0  0  0  0  0  0  0  0  0  0
    0.4999   -1.6895    2.7726 C   0  0  0  0  0  0  0  0  0  0  0  0
    0.0404    1.1600    3.7926 C   0  0  0  0  0  0  0  0  0  0  0  0
   -0.5541    2.8826    0.9182 C   0  0  0  0  0  0  0  0  0  0  0  0
    3.3940    0.2779    2.8164 C   0  0  0  0  0  0  0  0  0  0  0  0
    0.3073   -0.6368    0.5139 C   0  0  0  0  0  0  0  0  0  0  0  0
   -1.4697    2.8035    6.3317 C   0  0  0  0  0  0  0  0  0  0  0  0
    0.6915    2.3665    4.4611 C   0  0  0  0  0  0  0  0  0  0  0  0
   -0.0220   -0.4883    2.0006 C   0  0  2  0  0  0  0  0  0  0  0  0
    0.5254    0.7818    2.5713 N   0  0  0  0  0  0  0  0  0  0  0  0
   -0.8417    0.5342    4.3838 O   0  0  0  0  0  0  0  0  0  0  0  0
    0.2977    4.6795    5.6690 O   0  0  0  0  0  0  0  0  0  0  0  0
   -1.4119    3.9408    3.9247 O   0  0  0  0  0  0  0  0  0  0  0  0
   -0.5080    3.6177    5.0429 S   0  0  0  0  0  0  0  0  0  0  0  0
    3.8942    3.8059   -0.2064 H   0  0  0  0  0  0  0  0  0  0  0  0
    1.4482    4.1894   -0.3722 H   0  0  0  0  0  0  0  0  0  0  0  0
    4.7746    2.0170    1.2701 H   0  0  0  0  0  0  0  0  0  0  0  0
   -1.1251   -2.9187    5.3827 H   0  0  0  0  0  0  0  0  0  0  0  0
   -1.5551   -4.0268    3.9479 H   0  0  0  0  0  0  0  0  0  0  0  0
    1.5514   -1.9399    2.6373 H   0  0  0  0  0  0  0  0  0  0  0  0
   -1.1347    1.9627    0.8071 H   0  0  0  0  0  0  0  0  0  0  0  0
   -0.9150    3.3743    1.8272 H   0  0  0  0  0  0  0  0  0  0  0  0
   -0.7810    3.5331    0.0697 H   0  0  0  0  0  0  0  0  0  0  0  0
    4.4051    0.5323    3.1452 H   0  0  0  0  0  0  0  0  0  0  0  0
    2.7765    0.1013    3.6996 H   0  0  0  0  0  0  0  0  0  0  0  0
    3.4594   -0.6731    2.2747 H   0  0  0  0  0  0  0  0  0  0  0  0
    1.3854   -0.7048    0.3422 H   0  0  0  0  0  0  0  0  0  0  0  0
   -0.1522   -1.5609    0.1530 H   0  0  0  0  0  0  0  0  0  0  0  0
   -0.0779    0.1944   -0.0801 H   0  0  0  0  0  0  0  0  0  0  0  0
   -2.1881    3.5537    6.6683 H   0  0  0  0  0  0  0  0  0  0  0  0
   -1.9585    1.9309    5.9024 H   0  0  0  0  0  0  0  0  0  0  0  0
   -0.7962    2.5265    7.1440 H   0  0  0  0  0  0  0  0  0  0  0  0
    1.3680    2.9386    3.8262 H   0  0  0  0  0  0  0  0  0  0  0  0
    1.2379    2.0306    5.3464 H   0  0  0  0  0  0  0  0  0  0  0  0
   -1.1040   -0.4446    2.1379 H   0  0  0  0  0  0  0  0  0  0  0  0
  1  8  2  0  0  0  0
  1  9  2  0  0  0  0
  2  3  1  0  0  0  0
  2  4  2  0  0  0  0
  2 22  1  0  0  0  0
  3  5  2  0  0  0  0
  3 23  1  0  0  0  0
  4  6  1  0  0  0  0
  4 24  1  0  0  0  0
  5  7  1  0  0  0  0
  5 11  1  0  0  0  0
  6  7  2  0  0  0  0
  6 12  1  0  0  0  0
  7 17  1  0  0  0  0
  8 25  1  0  0  0  0
  8 26  1  0  0  0  0
  9 16  1  0  0  0  0
  9 27  1  0  0  0  0
 10 15  1  0  0  0  0
 10 17  1  0  0  0  0
 10 18  2  0  0  0  0
 11 28  1  0  0  0  0
 11 29  1  0  0  0  0
 11 30  1  0  0  0  0
 12 31  1  0  0  0  0
 12 32  1  0  0  0  0
 12 33  1  0  0  0  0
 13 16  1  0  0  0  0
 13 34  1  0  0  0  0
 13 35  1  0  0  0  0
 13 36  1  0  0  0  0
 14 21  1  0  0  0  0
 14 37  1  0  0  0  0
 14 38  1  0  0  0  0
 14 39  1  0  0  0  0
 15 21  1  0  0  0  0
 15 40  1  0  0  0  0
 15 41  1  0  0  0  0
 16 17  1  0  0  0  0
 16 42  1  0  0  0  0
 19 21  2  0  0  0  0
 20 21  2  0  0  0  0
M  END
$$$$
