42
0 1 C16H21NO3S
C                     1.060979801776    -1.439121332643     0.448714842102
C                     3.283752749355     3.326094006600     0.830652769654
C                     1.949536041424     3.642569834469     0.580022504443
C                     3.599522919414     2.247161772699     1.660721216541
C                     0.906532542955     2.906561260918     1.164638484038
C                     2.589062184244     1.483596586950     2.254400191968
C                     1.243443776505     1.841162115043     2.019641205455
C                     1.805956780734    -2.504234013727     0.268943220477
C                     0.318568787238    -0.375772780211     0.647512929792
C                    -0.054558519677     1.160770378548     3.998013060316
C                    -0.526016620403     3.255952646847     0.842168353689
C                     2.936369866113     0.296070839294     3.119868011864
C                    -1.907695893830     0.110372893294     1.713637328909
C                     0.651455220635     5.060482951032     4.035702902796
C                     0.594756681859     2.296790292270     4.783879355962
C                    -0.405523334665    -0.098009392739     1.947134201316
N                     0.209627630514     1.068984517273     2.654868455494
O                    -0.789734533431     0.371550882713     4.586679267029
O                    -1.588207613562     3.634198446791     3.897327237414
O                    -0.633946212555     4.219336200407     6.195294308673
S                    -0.436131621877     3.828193902038     4.792153094569
H                     4.077403347606     3.911291266193     0.373379375188
H                     1.704061613277     4.473775446139    -0.076729129183
H                     4.639802975617     1.987227937112     1.840252999179
H                     1.380859625554    -3.441212651079    -0.086571698299
H                     2.876812368079    -2.481293620717     0.465001440242
H                     0.172596068608     0.327858778928    -0.172327161917
H                    -0.888978946403     2.646494379596     0.006013998456
H                    -1.189211727417     3.096202503197     1.692123677036
H                    -0.606199858576     4.302313578922     0.534117111682
H                     2.670418571251     0.454078238344     4.171077699468
H                     2.404085983041    -0.600649863866     2.790754998279
H                     4.009056168478     0.091447420699     3.080167343609
H                    -2.092024900721     0.904141011220     0.986507835652
H                    -2.342778903439    -0.816779822857     1.327648946692
H                    -2.404265935044     0.367088061415     2.650528599104
H                     0.058965052395     5.975100057033     3.969800136082
H                     1.513459745024     5.213453911271     4.687132230790
H                     0.953598225544     4.722725753626     3.044407145827
H                     1.582547592327     2.587006822915     4.427147779403
H                     0.641415601801     1.994348111733     5.829786963088
H                    -0.278562535019    -0.954888581838     2.612692560835
