18   
torsion grid (-165,)
C        1.0213543587   -0.6378970110    2.7719012764
C       -1.6033881566    3.1842713510   -1.8641220466
C        1.2472480789   -0.4274413542    0.3617774382
C        1.7478016633    0.4589838290   -0.7770116049
N        1.5448454498    0.1584456055    1.6630984514
S       -1.0069540037    1.5332300941   -1.3647622703
S        0.9818443315    2.1246343874   -0.8325517599
H        1.5446056622   -1.6000793436    2.8121744304
H        1.2118192788   -0.1173182728    3.7153631145
H       -0.0612361109   -0.8460003688    2.7011773550
H       -2.6431665567    3.0499288846   -2.1737486604
H       -1.0218870487    3.5743404292   -2.7028077595
H       -1.5704113632    3.8839062524   -1.0256161001
H        1.7685085117   -1.3913115493    0.2879835646
H        0.1713760078   -0.6392351422    0.2196507680
H        2.8152988057    0.6642107279   -0.6484601663
H        1.5968666171   -0.0253464943   -1.7458235142
H        1.1327389217    1.0900421720    1.6915202386
18   
torsion grid (-150,)
C        1.0948591366   -0.7304594066    2.7901304433
C       -1.5891960360    3.1994555052   -1.9901058009
C        1.2229488836   -0.4056052237    0.3854320966
C        1.6791960141    0.5314174225   -0.7308283361
N        1.5754624409    0.1170666746    1.6999908688
S       -1.0978623425    1.6500393652   -1.1565878720
S        0.9097172699    2.1965495951   -0.6760451767
H        1.6153564804   -1.6945809167    2.7625257839
H        1.3261190006   -0.2561688136    3.7487347178
H        0.0094027461   -0.9327477065    2.7545488634
H       -2.6295510687    3.0598654990   -2.2968821822
H       -0.9691030646    3.3855149775   -2.8699157896
H       -1.5340546825    4.0478906137   -1.3046181483
H        1.7365125536   -1.3664433207    0.2463013119
H        0.1412699302   -0.6091545265    0.2758185911
H        2.7514355199    0.7310593503   -0.6349646177
H        1.4860467462    0.0920782316   -1.7132069610
H        1.1695925149    1.0474097987    1.7905252498
18   
torsion grid (-135,)
C        1.1612309385   -0.8166195629    2.7947333965
C       -1.5625528728    3.1820007382   -2.0954121936
C        1.1886586420   -0.3729352823    0.4056473427
C        1.6060619775    0.6139598537   -0.6812350135
N        1.6045610857    0.0797499470    1.7281101129
S       -1.1783965516    1.7993523767   -0.9612865836
S        0.8415846635    2.2770520938   -0.5146408284
H        1.6676848847   -1.7835358023    2.6958415333
H        1.4401204399   -0.3938945149    3.7647224751
H        0.0727650866   -1.0057037381    2.7972634851
H       -2.6064715114    3.0465318384   -2.3932955790
H       -0.9215818014    3.1556837251   -2.9793562742
H       -1.4616533339    4.1424726210   -1.5864728888
H        1.6845780129   -1.3305757148    0.1972233357
H        0.1010022150   -0.5602217227    0.3323200178
H        2.6821917820    0.8066738438   -0.6168817437
H        1.3724240896    0.2227632309   -1.6748275315
H        1.2143949904    1.0082480732    1.8833601989
18   
torsion grid (-120,)
C        1.2070345825   -0.8874179208    2.7779592488
C       -1.5257167071    3.1267879181   -2.1626518876
C        1.1484481929   -0.3252092253    0.4143899465
C        1.5412354302    0.7066435216   -0.6380702338
N        1.6222977000    0.0557581257    1.7406793380
S       -1.2343950289    1.9789384865   -0.7654929033
S        0.7994197468    2.3698032493   -0.3661359523
H        1.6949576697   -1.8545119440    2.6110757899
H        1.5293412845   -0.5178566116    3.7561861955
H        0.1168207309   -1.0626746516    2.8138088212
H       -2.5792790938    3.0115409093   -2.4352144845
H       -0.8962716871    2.8744479418   -3.0187543292
H       -1.3474473855    4.1591821327   -1.8572211295
H        1.6197044483   -1.2792020167    0.1418090151
H        0.0558856116   -0.4905509365    0.3730519929
H        2.6212427477    0.8856709592   -0.6020364510
H        1.2701454299    0.3649283136   -1.6402442364
H        1.2512791107    0.9796538125    1.9577279882
18   
torsion grid (-105,)
C        1.2282397664   -0.9441412512    2.7414019785
C       -1.4762518318    3.0240600111   -2.1883379037
C        1.1032724315   -0.2632796601    0.4115718824
C        1.4928853922    0.8063299069   -0.6026839081
N        1.6276835973    0.0427043402    1.7389392783
S       -1.2520056944    2.1772537386   -0.5779934134
S        0.7960095947    2.4737805688   -0.2361678357
H        1.6930795344   -1.9095469640    2.5110043067
H        1.5880829527   -0.6294324510    3.7257257038
H        0.1367561327   -1.1030861950    2.8041021321
H       -2.5416034203    2.9493502650   -2.4277934125
H       -0.8923072601    2.5397960303   -2.9740364964
H       -1.1983505745    4.0763211429   -2.1095114280
H        1.5396782115   -1.2156045469    0.0813729742
H        0.0060576212   -0.3962754004    0.3965282804
H        2.5772566448    0.9606509071   -0.5880630308
H        1.1899017951    0.5165743812   -1.6121049133
H        1.2808040928    0.9603187270    2.0143273731
18   
torsion grid (-90,)
C        1.2195461847   -0.9838281579    2.6852748714
C       -1.4166250391    2.8832033358   -2.1627102202
C        1.0608131929   -0.1897881335    0.3933057510
C        1.4620866387    0.9141416840   -0.5781701898
N        1.6268805581    0.0361424154    1.7198514994
S       -1.2319978599    2.3839034613   -0.4082349972
S        0.8292448196    2.5861403050   -0.1210328202
H        1.6478015155   -1.9512678128    2.3991731107
H        1.6122726994   -0.7269019287    3.6738005210
H        0.1253328747   -1.1117499917    2.7676529992
H       -2.4877406968    2.8450046426   -2.3841243476
H       -0.8883268002    2.1941491724   -2.8253847196
H       -1.0508579172    3.9005977590   -2.3116238299
H        1.4573725596   -1.1388386130    0.0080778031
H       -0.0401046884   -0.2848534006    0.4002927030
H        2.5507641771    1.0342154422   -0.5852192971
H        1.1287421757    0.6814847595   -1.5929617539
H        1.3165182704    0.9499537366    2.0464358717
18   
torsion grid (-75,)
C        1.1425806019   -0.9947539269    2.5936390499
C       -1.3638670150    2.6874626550   -2.0447153182
C        1.0436653860   -0.0986320496    0.3368200628
C        1.5019292652    1.0265912896   -0.5833767191
N        1.6089550210    0.0430903544    1.6750661679
S       -1.1224757822    2.6035699996   -0.2305205399
S        0.9602873973    2.7108831245   -0.0604051104
H        1.5260012571   -1.9694173012    2.2707643264
H        1.5373750671   -0.7986850899    3.5951890778
H        0.0426872034   -1.0716548194    2.6615956291
H       -2.4450716601    2.6962210526   -2.2128798461
H       -0.9360508880    1.8121145344   -2.5383846187
H       -0.9235334386    3.6003040556   -2.4505876291
H        1.3986832786   -1.0471513734   -0.0880448377
H       -0.0604171482   -0.1419418840    0.3352295512
H        2.5950269738    1.0943266296   -0.5860966042
H        1.1642549617    0.8533558840   -1.6085948966
H        1.3423047194    0.9570345238    2.0376799120
18   
torsion grid (-60,)
C        1.0138659958   -0.9757270035    2.4854090956
C       -1.3240776520    2.4560338028   -1.8604801480
C        1.0347137961    0.0025093264    0.2612827495
C        1.5727510415    1.1390688544   -0.6004159146
N        1.5620224970    0.0675882649    1.6198065015
S       -0.9896315418    2.8026255824   -0.0956326179
S        1.1117643260    2.8300456433   -0.0308042861
H        1.3572797078   -1.9573541138    2.1393993186
H        1.3858202048   -0.8350782794    3.5048273051
H       -0.0900571658   -0.9967231978    2.5170970953
H       -2.4085562369    2.5267132265   -1.9863666393
H       -1.0045816318    1.4472003971   -2.1304501445
H       -0.8346637338    3.1915571976   -2.5029847472
H        1.3579054528   -0.9447810982   -0.1905766122
H       -0.0701311179    0.0116196746    0.2282791024
H        2.6673946428    1.1523580914   -0.5703013594
H        1.2605854842    1.0213882869   -1.6410964103
H        1.3316553801    0.9814018502    2.0067214113
18   
torsion grid (-45,)
C        0.9647757186   -0.9734850473    2.4135084394
C       -1.2726319110    2.3133464302   -1.7633440123
C        1.0079349872    0.0794077269    0.2242438588
C        1.5789310770    1.2298127062   -0.5992042453
N        1.5427781949    0.0804010028    1.5808224345
S       -0.9328767834    3.0029592978   -0.1062621723
S        1.1806565764    2.9100254939    0.0319913127
H        1.2739697960   -1.9534879773    2.0323756720
H        1.3459103664   -0.8799870143    3.4348869270
H       -0.1391082738   -0.9591443684    2.4509939686
H       -2.3468973493    2.4455854595   -1.9221583765
H       -1.0417088608    1.2473085470   -1.8062005610
H       -0.7262322299    2.8522183971   -2.5416811120
H        1.2989849192   -0.8612042215   -0.2623260282
H       -0.0967915144    0.1225693203    0.2008514025
H        2.6733709840    1.2069654819   -0.5688681777
H        1.2668028485    1.1599792175   -1.6434707858
H        1.3437320417    0.9879291377    1.9989645020
18   
torsion grid (-30,)
C        0.9614178943   -1.0001673769    2.3823663341
C       -1.2483693403    2.2529121917   -1.7421314277
C        0.9808103624    0.1144489193    0.2227123502
C        1.5569379818    1.2818760276   -0.5758596854
N        1.5357791679    0.0716912176    1.5703476587
S       -0.9049607739    3.2146063956   -0.2301761233
S        1.1924298993    2.9440171584    0.1098519771
H        1.2559338617   -1.9718112135    1.9696393132
H        1.3591043862   -0.9380125083    3.3997660122
H       -0.1416405105   -0.9775346487    2.4377607342
H       -2.3045093499    2.4410546867   -1.9572738184
H       -1.1108194360    1.1822732682   -1.5837155904
H       -0.6503728980    2.5939422793   -2.5913935673
H        1.2529588812   -0.8163545948   -0.2932007254
H       -0.1235115043    0.1704927799    0.2192776612
H        2.6511413177    1.2441099633   -0.5515762415
H        1.2432283673    1.2443123006   -1.6207429317
H        1.3495183785    0.9689529623    2.0161973547
18   
torsion grid (-15,)
C        0.9717478256   -1.0265544509    2.3624583590
C       -1.2507148388    2.2311224482   -1.7301882763
C        0.9798213073    0.1315686053    0.2258246731
C        1.5551696672    1.3145614098   -0.5519017293
N        1.5354781335    0.0671246923    1.5721933995
S       -0.8413584301    3.4117326719   -0.4026275460
S        1.1916962250    2.9610460276    0.1689120755
H        1.2760156297   -1.9867153870    1.9305078696
H        1.3682802505   -0.9806167752    3.3811225170
H       -0.1315856939   -1.0162118615    2.4178417124
H       -2.2810159682    2.4812952345   -2.0011492476
H       -1.2229504315    1.1959569350   -1.3873329317
H       -0.6193673771    2.3604035010   -2.6128166979
H        1.2554470875   -0.7897224303   -0.3054772176
H       -0.1244651365    0.1828008818    0.2243888699
H        2.6491312616    1.2748559502   -0.5249990627
H        1.2477060765    1.2945344653   -1.5988191967
H        1.3385715972    0.9533528182    2.0357587414
18   
torsion grid (0,)
C        0.6567382368   -0.0143307735    2.5375532437
C        4.0315911024    2.2936700474    0.4467619199
C        1.0729264506   -0.1250928160    0.1427926507
C        1.8334690435    0.4833549091   -1.0360436468
N        1.3379990631    0.5876767722    1.3900888937
S        2.8861298351    3.4590205225   -0.3654191147
S        1.3979801040    2.2385417844   -1.3693886044
H        1.0816939174   -1.0039202561    2.7385979131
H        0.8215012446    0.6059444670    3.4235767794
H       -0.4312272590   -0.1361005100    2.3952686176
H        4.6809187465    2.9399189137    1.0464108698
H        4.6506222366    1.7580294101   -0.2775706241
H        3.5001043005    1.5992767697    1.1012997540
H        1.4090279129   -1.1640370576    0.2635162214
H       -0.0038823126   -0.1634228682   -0.1015539140
H        2.9118053029    0.3920811136   -0.9013431098
H        1.5740088238   -0.0410130563   -1.9611496390
H        1.0071476147    1.5456981533    1.2758264031
18   
torsion grid (15,)
C        0.6476624399   -0.0040785786    2.5382813376
C        4.0298507566    2.3038423299    0.4415598780
C        1.0658265437   -0.1219912568    0.1447478805
C        1.8594821584    0.4510745838   -1.0285900749
N        1.3650179044    0.5672278320    1.3976237216
S        2.7483859765    3.4293771506   -0.2054438517
S        1.4721596631    2.1981577308   -1.4434978007
H        1.0135812757   -1.0188510527    2.7302683310
H        0.8470001442    0.5969676112    3.4304325518
H       -0.4454151737   -0.0606705778    2.3937781241
H        4.6461812225    2.9437167328    1.0812456093
H        4.6596684691    1.8986979787   -0.3551116166
H        3.5860927172    1.5079124538    1.0429588929
H        1.3481768087   -1.1775892092    0.2616161812
H       -0.0105037341   -0.1031934801   -0.1040061520
H        2.9338798641    0.3376551611   -0.8765738357
H        1.6015886648   -0.0835954506   -1.9488456822
H        1.0953883921    1.5452705480    1.2953263105
18   
torsion grid (30,)
C        0.6319717471   -0.0150008026    2.5484617315
C        4.0394772615    2.3485543544    0.4265107154
C        1.0351980316   -0.1119714661    0.1524305727
C        1.8819020907    0.4043306802   -1.0090599929
N        1.3928245521    0.5219890379    1.4197341552
S        2.6217279858    3.3709254829   -0.0991262070
S        1.5821372980    2.1437538062   -1.5176906886
H        0.9097488378   -1.0623266382    2.7123166565
H        0.8845941570    0.5428926716    3.4550751539
H       -0.4624967350    0.0260789280    2.4085996403
H        4.6172334480    2.9958877038    1.0935823777
H        4.6691238905    2.0645385531   -0.4211027895
H        3.6981521473    1.4720090107    0.9801451492
H        1.2233484264   -1.1902910240    0.2520261539
H       -0.0341857869    0.0054298817   -0.0989219879
H        2.9464281958    0.2557393615   -0.8184618767
H        1.6324272165   -0.1471931592   -1.9223322780
H        1.2130501441    1.5226168126    1.3456271883
18   
torsion grid (45,)
C        0.6028890531   -0.0484994739    2.5551993480
C        4.0647133841    2.4406065943    0.3970254408
C        0.9827617483   -0.0982095605    0.1544968678
C        1.8925967353    0.3430746356   -0.9900041057
N        1.4081267061    0.4521027083    1.4408634911
S        2.5109583827    3.2959247274   -0.0437854163
S        1.7114540173    2.0730324985   -1.5843060818
H        0.7726907421   -1.1245731667    2.6755908965
H        0.9170805352    0.4438944151    3.4804328934
H       -0.4827354046    0.1095726971    2.4294493743
H        4.5813564541    3.1064097656    1.0948931961
H        4.6931324216    2.2871425456   -0.4840176652
H        3.8501076498    1.4940059836    0.8964239565
H        1.0457452765   -1.1930739832    0.2259646960
H       -0.0648169150    0.1466450521   -0.0961679930
H        2.9398356947    0.1489212553   -0.7475585011
H        1.6521392626   -0.2268829525   -1.8949110756
H        1.3299213028    1.4674402045    1.4037762299
18   
torsion grid (60,)
C        0.5278582059   -0.0877890108    2.5586003500
C        4.1495152644    2.5842808358    0.3137563941
C        0.9215490007   -0.1035483184    0.1602059622
C        1.8897591202    0.2686544172   -0.9613094498
N        1.3994466197    0.3472605207    1.4672217991
S        2.4587460673    3.2070782934   -0.0028083556
S        1.8209169427    1.9932891873   -1.6001130179
H        0.5599735153   -1.1804695368    2.6400335302
H        0.8933456120    0.3269708855    3.5029571938
H       -0.5285679542    0.2097004180    2.4351438568
H        4.5878837042    3.2514168008    1.0620290772
H        4.7496152438    2.6150403239   -0.5983485455
H        4.1139778163    1.5707936162    0.7185439013
H        0.8574328668   -1.1999449352    0.1941717412
H       -0.0890356205    0.2678457295   -0.0869240966
H        2.9154302418    0.0295990930   -0.6690651507
H        1.6577587793   -0.3091353665   -1.8636125887
H        1.4473864407    1.3647250934    1.4627477964
18   
torsion grid (75,)
C        0.3817540789   -0.1499946608    2.5765430015
C        4.3090186238    2.7588738593    0.1987731027
C        0.8682661987   -0.1493993045    0.1962299142
C        1.8918817477    0.2026217207   -0.8823583564
N        1.3430268568    0.2043735228    1.5332881906
S        2.5114368077    3.1021241765    0.1334309653
S        1.8938684757    1.9395229537   -1.4962877741
H        0.2737934575   -1.2401029319    2.6206047818
H        0.7582892157    0.1859088232    3.5475881543
H       -0.6241530559    0.2812254756    2.4263909627
H        4.7190429469    3.3952652587    0.9889226277
H        4.7798120170    3.0089240589   -0.7538408420
H        4.4941021619    1.7127140804    0.4514422194
H        0.7207526771   -1.2381129838    0.1770906055
H       -0.1050680920    0.3077807635   -0.0581006140
H        2.8973252941   -0.0699657639   -0.5502488837
H        1.6787022041   -0.3572584497   -1.8004400004
H        1.5213444444    1.2063944996    1.5640068559
18   
torsion grid (90,)
C        0.4262948301    0.2033434460    2.3703880024
C       -1.2599517177    2.3047073840   -0.7663500439
C        1.1498274681   -0.2512815719    0.0930735656
C        2.0079875979    0.2362334275   -1.0678433967
N        1.3315458708    0.5684725654    1.2845909264
S       -0.2959405168    1.9131414437   -2.2775047785
S        1.6830536412    1.9709395335   -1.6055787200
H        0.6663849652   -0.8049819272    2.7259946776
H        0.5635977198    0.8928536173    3.2087884203
H       -0.6426941625    0.2098457985    2.0866327117
H       -2.3000046914    2.4113969910   -1.0903281923
H       -0.9233628399    3.2478597592   -0.3313095158
H       -1.1960889244    1.5044555884   -0.0274972731
H        1.4569621326   -1.2789100576    0.3294279494
H        0.0973865269   -0.3138474136   -0.2401220014
H        3.0652778965    0.2514969334   -0.7810769079
H        1.8875901756   -0.4194956940   -1.9333903585
H        1.1950083080    1.5459730167    1.0331556778
18   
torsion grid (105,)
C        0.4775359137    0.0893340362    2.4121571143
C       -1.3404210536    2.4758150427   -0.8798068391
C        1.1799507448   -0.2940219278    0.1159169100
C        2.0176493850    0.2415081020   -1.0388196427
N        1.3731399336    0.4916230189    1.3305039371
S       -0.3623396087    1.7485804692   -2.2489517905
S        1.5978915689    1.9677636052   -1.5387382956
H        0.7243689918   -0.9283589470    2.7349256962
H        0.6193525793    0.7532063586    3.2703881587
H       -0.5932419047    0.1005821211    2.1359852579
H       -2.3826015326    2.4758718796   -1.2139743145
H       -1.0261432352    3.5031473236   -0.6882832993
H       -1.2540716497    1.8797883122    0.0318986538
H        1.4967907088   -1.3261304035    0.3169304701
H        0.1227066983   -0.3470034488   -0.2034626405
H        3.0736044855    0.2992823307   -0.7537946889
H        1.9243728115   -0.4008822043   -1.9171147380
H        1.2180192955    1.4733425293    1.1066733296
18   
torsion grid (120,)
C        0.5993904165   -0.0618302907    2.5113430336
C       -1.4450002539    2.6727805535   -1.0843511115
C        1.2047877015   -0.3378308763    0.1722057873
C        1.9896074876    0.2547935725   -0.9920010727
N        1.4193610050    0.4200948210    1.4016107034
S       -0.4379521064    1.6473782317   -2.2182250289
S        1.4949773045    1.9728950100   -1.4423996124
H        0.9167185481   -1.0728818913    2.7905680632
H        0.7475845380    0.5842117872    3.3821082553
H       -0.4820959134   -0.1012530406    2.2861603166
H       -2.4749429464    2.6067311614   -1.4481734054
H       -1.1229073330    3.7149430880   -1.1169719768
H       -1.3969615761    2.2965936590   -0.0595586734
H        1.5590316588   -1.3647415484    0.3335259238
H        0.1391341313   -0.4107875571   -0.1117800546
H        3.0495082531    0.3473594551   -0.7327344039
H        1.9020411441   -0.3714437047   -1.8826270776
H        1.1963859889    1.3967792460    1.2155942814
18   
torsion grid (135,)
C        0.6983314131   -0.2044945921    2.5920208359
C       -1.5086459267    2.8411384943   -1.2666916023
C        1.2296263123   -0.3826649898    0.2256707102
C        1.9588062987    0.2714467742   -0.9425613154
N        1.4405954619    0.3588314085    1.4656467705
S       -0.5363828939    1.5526211160   -2.1247374019
S        1.3890898914    1.9767873287   -1.3408248046
H        1.0954478199   -1.1969077205    2.8337282260
H        0.8352688090    0.4303350351    3.4728633944
H       -0.3854361242   -0.3136934072    2.4057573281
H       -2.5371416280    2.7317371911   -1.6231297147
H       -1.1493347458    3.8386861209   -1.5264975973
H       -1.4812506153    2.7025815800   -0.1832473098
H        1.6389255377   -1.3935016216    0.3551591883
H        0.1621291676   -0.5006471681   -0.0322559207
H        3.0193922153    0.4032477185   -0.7049916195
H        1.8808901817   -0.3381417349   -1.8460866059
H        1.1434915731    1.3213541395    1.3125708268
18   
torsion grid (150,)
C        0.7864600685   -0.3243484423    2.6527016034
C       -1.5550879513    2.9768189413   -1.4324127610
C        1.2498013946   -0.4132434766    0.2675999129
C        1.9165400758    0.3036831486   -0.9025390873
N        1.4607384021    0.3071329416    1.5195185698
S       -0.6574573966    1.4850339101   -1.9825671244
S        1.2744077066    1.9945829283   -1.2326038816
H        1.2443642459   -1.2991777967    2.8554960092
H        0.9172185997    0.2948876676    3.5455030392
H       -0.2951056575   -0.4875869825    2.4967661333
H       -2.5866978874    2.8519572518   -1.7731150521
H       -1.1391326116    3.8767626769   -1.8905258673
H       -1.5389103195    3.0676132970   -0.3436931306
H        1.7114113148   -1.4055550180    0.3590094923
H        0.1822638043   -0.5761420012    0.0373407230
H        2.9776491634    0.4694142498   -0.6909205505
H        1.8380079139   -0.2838542090   -1.8211663876
H        1.1057429154    1.2547965852    1.4006424880
18   
torsion grid (165,)
C        0.8719800822   -0.4360519058    2.7039139817
C       -1.5814819776    3.0807045607   -1.5890084835
C        1.2616110171   -0.4314167513    0.3045389532
C        1.8668637369    0.3460242861   -0.8616187795
N        1.4861717973    0.2558524595    1.5718391587
S       -0.7778052853    1.4566976351   -1.8020908047
S        1.1664918274    2.0251636511   -1.1089505438
H        1.3709680744   -1.3992724601    2.8601111439
H        1.0092280184    0.1589546262    3.6120536091
H       -0.2074525609   -0.6335030433    2.5762400143
H       -2.6156906103    2.9521740656   -1.9191010499
H       -1.1030789697    3.8414951298   -2.2103222136
H       -1.5712151326    3.3899161682   -0.5410564559
H        1.7608993881   -1.4086180525    0.3482808330
H        0.1934199518   -0.6264448640    0.1031630837
H        2.9291638748    0.5347906139   -0.6778295347
H        1.7742456692   -0.2120539200   -1.7976427623
H        1.0932640692    1.1928751098    1.4948342231
18   
torsion grid (180,)
C        0.9441670629   -0.5356071266    2.7398694416
C       -1.6007916804    3.1464240357   -1.7241753638
C        1.2624810413   -0.4361552595    0.3330291345
C        1.8120026786    0.3961633013   -0.8238131358
N        1.5107864893    0.2094375613    1.6166627053
S       -0.9037600494    1.4669570941   -1.5768902527
S        1.0680154684    2.0653358221   -0.9850624174
H        1.4655222532   -1.4938898297    2.8451642171
H        1.0974362945    0.0283018217    3.6650711552
H       -0.1347414152   -0.7490738494    2.6364030055
H       -2.6410320645    3.0166921320   -2.0336346336
H       -1.0705157396    3.7273376088   -2.4825877497
H       -1.5747007572    3.6677830589   -0.7641821431
H        1.7837887501   -1.4027829245    0.3242808365
H        0.1927086230   -0.6509850000    0.1587319403
H        2.8754411091    0.6007391659   -0.6655233595
H        1.6973033728   -0.1304718637   -1.7755394146
H        1.0979447880    1.1405685678    1.5856676272
