
  -OEChem-05262117483D

 47 50  0     1  0  0  0  0  0999 V2000
    5.6461   -1.6961   -6.0789 C   0  0  0  0  0  0  0  0  0  0  0  0
    4.1255   -5.0001   -6.8147 C   0  0  0  0  0  0  0  0  0  0  0  0
    3.2156   -5.1333   -5.7577 C   0  0  0  0  0  0  0  0  0  0  0  0
    4.9114   -3.8548   -6.8902 C   0  0  0  0  0  0  0  0  0  0  0  0
    3.0964   -4.1361   -4.7944 C   0  0  0  0  0  0  0  0  0  0  0  0
    4.2835   -0.7303   -3.5270 C   0  0  0  0  0  0  0  0  0  0  0  0
    3.6539   -0.2435   -2.3388 C   0  0  0  0  0  0  0  0  0  0  0  0
    4.7980   -2.8411   -5.9210 C   0  0  0  0  0  0  0  0  0  0  0  0
    3.8799   -2.9636   -4.8442 C   0  0  0  0  0  0  0  0  0  0  0  0
    3.7156   -1.9526   -3.8116 C   0  0  0  0  0  0  0  0  0  0  0  0
    2.7393   -1.1893   -1.9633 C   0  0  0  0  0  0  0  0  0  0  0  0
    0.5466    2.4326    0.7222 C   0  0  0  0  0  0  0  0  0  0  0  0
    0.6661    2.2662   -0.8161 C   0  0  0  0  0  0  0  0  0  0  0  0
   -1.4823    0.9120    1.0621 C   0  0  0  0  0  0  0  0  0  0  0  0
    0.8990   -0.0443    1.0655 C   0  0  0  0  0  0  0  0  0  0  0  0
   -0.9560    0.3441   -1.2651 C   0  0  0  0  0  0  0  0  0  0  0  0
   -0.0004    1.1617    1.3959 C   0  0  1  0  0  0  0  0  0  0  0  0
    0.5290    0.7896   -1.2155 C   0  0  2  0  0  0  0  0  0  0  0  0
   -3.2268    0.8099   -0.5880 C   0  0  0  0  0  0  0  0  0  0  0  0
    1.7872   -1.3000   -0.8128 C   0  0  0  0  0  0  0  0  0  0  0  0
    6.3492   -0.7793   -6.2371 N   0  0  0  0  0  0  0  0  0  0  0  0
   -1.8178    1.0888   -0.3487 N   0  0  1  0  0  0  0  0  0  0  0  0
    1.3929    0.0069   -0.3158 N   0  0  2  0  0  0  0  0  0  0  0  0
    2.7610   -2.2313   -2.8476 O   0  0  0  0  0  0  0  0  0  0  0  0
    4.2192   -5.7778   -7.5669 H   0  0  0  0  0  0  0  0  0  0  0  0
    2.5948   -6.0224   -5.6849 H   0  0  0  0  0  0  0  0  0  0  0  0
    5.6243   -3.7254   -7.6987 H   0  0  0  0  0  0  0  0  0  0  0  0
    2.3885   -4.2529   -3.9821 H   0  0  0  0  0  0  0  0  0  0  0  0
    5.0561   -0.2337   -4.0939 H   0  0  0  0  0  0  0  0  0  0  0  0
    3.8415    0.6876   -1.8229 H   0  0  0  0  0  0  0  0  0  0  0  0
    1.5326    2.6469    1.1488 H   0  0  0  0  0  0  0  0  0  0  0  0
   -0.0979    3.2832    0.9657 H   0  0  0  0  0  0  0  0  0  0  0  0
   -0.1014    2.8524   -1.3270 H   0  0  0  0  0  0  0  0  0  0  0  0
    1.6436    2.6236   -1.1539 H   0  0  0  0  0  0  0  0  0  0  0  0
   -1.7597   -0.0993    1.4232 H   0  0  0  0  0  0  0  0  0  0  0  0
   -2.0943    1.6247    1.6286 H   0  0  0  0  0  0  0  0  0  0  0  0
    1.7661   -0.0552    1.7394 H   0  0  0  0  0  0  0  0  0  0  0  0
    0.3333   -0.9716    1.2624 H   0  0  0  0  0  0  0  0  0  0  0  0
   -1.3338    0.5302   -2.2765 H   0  0  0  0  0  0  0  0  0  0  0  0
   -1.0249   -0.7506   -1.1050 H   0  0  0  0  0  0  0  0  0  0  0  0
    0.0393    1.2921    2.4837 H   0  0  0  0  0  0  0  0  0  0  0  0
    0.9370    0.6574   -2.2211 H   0  0  0  0  0  0  0  0  0  0  0  0
   -3.4814    1.0404   -1.6276 H   0  0  0  0  0  0  0  0  0  0  0  0
   -3.8437    1.4418    0.0596 H   0  0  0  0  0  0  0  0  0  0  0  0
   -3.5004   -0.2455   -0.3933 H   0  0  0  0  0  0  0  0  0  0  0  0
    0.9369   -1.9383   -1.1169 H   0  0  0  0  0  0  0  0  0  0  0  0
    2.2848   -1.8335    0.0077 H   0  0  0  0  0  0  0  0  0  0  0  0
  1  8  1  0  0  0  0
  1 21  3  0  0  0  0
  2  3  1  0  0  0  0
  2  4  2  0  0  0  0
  2 25  1  0  0  0  0
  3  5  2  0  0  0  0
  3 26  1  0  0  0  0
  4  8  1  0  0  0  0
  4 27  1  0  0  0  0
  5  9  1  0  0  0  0
  5 28  1  0  0  0  0
  6  7  1  0  0  0  0
  6 10  2  0  0  0  0
  6 29  1  0  0  0  0
  7 11  2  0  0  0  0
  7 30  1  0  0  0  0
  8  9  2  0  0  0  0
  9 10  1  0  0  0  0
 10 24  1  0  0  0  0
 11 20  1  0  0  0  0
 11 24  1  0  0  0  0
 12 13  1  0  0  0  0
 12 17  1  0  0  0  0
 12 31  1  0  0  0  0
 12 32  1  0  0  0  0
 13 18  1  0  0  0  0
 13 33  1  0  0  0  0
 13 34  1  0  0  0  0
 14 17  1  0  0  0  0
 14 22  1  0  0  0  0
 14 35  1  0  0  0  0
 14 36  1  0  0  0  0
 15 17  1  0  0  0  0
 15 23  1  0  0  0  0
 15 37  1  0  0  0  0
 15 38  1  0  0  0  0
 16 18  1  0  0  0  0
 16 22  1  0  0  0  0
 16 39  1  0  0  0  0
 16 40  1  0  0  0  0
 17 41  1  0  0  0  0
 18 23  1  0  0  0  0
 18 42  1  0  0  0  0
 19 22  1  0  0  0  0
 19 43  1  0  0  0  0
 19 44  1  0  0  0  0
 19 45  1  0  0  0  0
 20 23  1  0  0  0  0
 20 46  1  0  0  0  0
 20 47  1  0  0  0  0
M  END
$$$$
