47
0 1 C20H23N3O
C                     5.580687215956     0.252806993333    -1.313017318528
C                     8.642510340509    -0.612271643183    -3.227890702163
C                     8.214880289195    -1.715794149385    -3.977616369239
C                     7.757102763475    -0.004041008852    -2.343208108491
C                     6.921348302168    -2.207272579771    -3.827975754025
C                     3.896358329817    -2.900848142041    -3.709753839754
C                     2.649179784604    -3.142592775745    -3.050050233392
C                     6.441968032299    -0.484904133808    -2.196413101393
C                     6.005356404358    -1.610906278423    -2.939919237585
C                     4.663764802355    -2.165668529882    -2.836648092962
C                     2.733972061030    -2.550221587709    -1.817149333832
C                     0.968061046178     1.462459164198     0.696639217855
C                     1.328481384778     1.254781969755    -0.797814841891
C                    -1.302555844913     0.280912013042     0.669592414982
C                     0.867007296945    -1.031568688043     1.060175627045
C                    -0.504639194618    -0.359092103802    -1.561114655853
C                     0.123480200044     0.302170363370     1.250855638897
C                     1.002826755936    -0.178155054039    -1.245602840692
C                    -2.750049459543     0.465546344599    -1.239366280885
C                     1.790082580977    -2.460106725187    -0.663522254949
N                     4.948807461576     0.928053534517    -0.604071132119
N                    -1.372778549787     0.512355492659    -0.771655395115
N                     1.545902409161    -1.094812095853    -0.235549614308
O                     3.957697625728    -1.954963886158    -1.679488496901
H                     9.654336273506    -0.232095134894    -3.333259738087
H                     8.897778589967    -2.203011491409    -4.668335808641
H                     8.064635586444     0.859213479735    -1.761152753918
H                     6.612579225983    -3.085016527772    -4.387346837358
H                     4.173015678708    -3.197914527713    -4.712563804897
H                     1.791510248174    -3.674329897047    -3.440681283075
H                     1.888649927584     1.528992715439     1.285877449258
H                     0.428517867796     2.405204610747     0.834291037606
H                     0.780679321795     1.960964147174    -1.427443079534
H                     2.398247756088     1.419544961495    -0.940985593650
H                    -1.785343179919    -0.677613148672     0.950905687227
H                    -1.886741963276     1.076799665617     1.148081026543
H                     1.620176087293    -1.150032970769     1.851504238029
H                     0.145371081184    -1.859729593964     1.182839708827
H                    -0.668846788417    -0.100477782173    -2.613547324908
H                    -0.783194866209    -1.427756204273    -1.455881480886
H                    -0.000659069049     0.436365946838     2.332240180535
H                     1.547851178324    -0.385262710925    -2.171148048771
H                    -2.793607771455     0.736649920455    -2.299449746427
H                    -3.355767528728     1.186966624307    -0.680407976943
H                    -3.216781716730    -0.532536168306    -1.121473922305
H                     0.873781548424    -3.012820573998    -0.948214678233
H                     2.220742663958    -2.998531297030     0.191285422332
