39
0 1 C16H16N2O4S
C                    -4.336208691624    -4.877480596701     6.524015281322
C                    -5.569928143662    -4.487796795393     5.979801119203
C                    -3.342421197923    -5.442601386224     5.717896886980
C                    -5.840490868658    -4.654107625183     4.615308860106
C                    -4.992583016607    -9.096407600247    -0.741651380652
C                    -3.607848856060    -5.607008051197     4.358937165037
C                    -4.020589681036    -8.546815822894     0.161004547644
C                    -4.834724729112    -5.210311699329     3.836523939808
C                    -5.620507319507   -10.138602605898    -0.109771054761
C                    -4.069335411308    -9.308163697921     1.335123564209
C                    -2.679234732373    -6.175998322070     3.342919444726
C                    -3.234301355980    -7.370021492731    -0.194635008240
C                    -6.731141147196   -11.022239450150    -0.581853298839
C                    -3.247449192413    -9.295830244049     2.584677681173
C                    -5.379605432262   -11.287933596638     2.131240451060
C                    -2.582325372052    -6.466163321439     0.866447596793
N                    -5.045529747169   -10.260496491417     1.158580992507
N                    -3.328774283880    -6.277252761760     2.113918496540
O                    -1.522476120344    -6.517431142048     3.539629743109
O                    -3.079624614170    -7.021093565495    -1.364241450266
O                    -5.925815497358    -6.561129283745     1.812634086947
O                    -4.848465492734    -4.337927686751     1.275680617167
S                    -4.907834714807    -5.552728640748     2.085132198215
H                    -4.153391713362    -4.736509179515     7.585437157740
H                    -6.327031123149    -4.049704561366     6.623915725866
H                    -2.381470658300    -5.749716418493     6.119427182708
H                    -6.793069253297    -4.357873815183     4.186945437971
H                    -5.209299288073    -8.713412403086    -1.729220729913
H                    -6.450794475335   -12.082781855211    -0.589244745574
H                    -7.634907183444   -10.919715408496     0.031944629006
H                    -6.996180627390   -10.743838160718    -1.604221145678
H                    -3.797029592456    -8.867153406127     3.432676578162
H                    -2.948993351431   -10.310751652057     2.869333601813
H                    -2.333076825581    -8.719818738817     2.458350089685
H                    -4.636746008831   -12.094452017201     2.135518330214
H                    -5.439101937330   -10.858363756298     3.133851773661
H                    -6.351924619284   -11.715783267079     1.888079458676
H                    -2.406369530875    -5.500537167777     0.385036662296
H                    -1.613961975184    -6.879635347609     1.163097911592
