47
0 1 C20H23N3O
C                     5.953991373895    -3.570501126646     4.813721373406
C                     7.486332807392    -0.209218962829     4.455824977262
C                     6.786762524592     0.303837874846     3.355737529672
C                     7.187277064664    -1.489080286340     4.911962868562
C                     5.804723738654    -0.453315371185     2.723798687364
C                     3.829075955780    -3.722123441721     2.631602756085
C                     2.855900189607    -3.835173976993     1.589002760531
C                     6.196637074678    -2.262376072598     4.279352622085
C                     5.480843319288    -1.753906963210     3.163714391974
C                     4.443438478666    -2.500446501926     2.466967184925
C                     2.932390008979    -2.687280596689     0.847367440407
C                     0.087312848024     1.419681526258     0.350844765846
C                     0.901103528739     1.262021209249    -0.961566237308
C                    -1.702339977557    -0.339741051018    -0.134676198086
C                     0.532019336800    -0.989913191546     0.952033649619
C                    -0.185174092312    -0.801681862568    -2.003279511777
C                    -0.550407302936     0.091397730959     0.792144131276
C                     1.082311019807    -0.220880525689    -1.322586011978
C                    -2.561725032418    -0.587579551895    -2.366120619154
C                     2.193920380391    -2.200346840732    -0.357595378979
N                     5.779835539583    -4.627742942317     5.273833443767
N                    -1.424475369069    -0.167765019348    -1.559012128959
N                     1.535344709963    -0.925489221131    -0.117643317201
O                     3.893514759033    -1.868790055037     1.369317116983
H                     8.252527797499     0.381194243068     4.949426519535
H                     7.008609253783     1.302664008735     2.989397973546
H                     7.714397987946    -1.910717834377     5.762329981738
H                     5.267398818222    -0.044391771310     1.875887226326
H                     4.035736399714    -4.449252188839     3.401750832250
H                     2.179995600686    -4.662041684938     1.415121442189
H                     0.745783582612     1.765557614436     1.155085771739
H                    -0.692322941602     2.177911976003     0.227311510495
H                     0.401821417279     1.775648574042    -1.786938897922
H                     1.893634004310     1.705583103593    -0.838584040646
H                    -1.976302142246    -1.387555918647     0.103486546207
H                    -2.582767086854     0.273325760300     0.093667647187
H                     1.040572405445    -0.862117551349     1.916038991694
H                     0.046385721623    -1.980879922001     0.985336671233
H                    -0.106856918196    -0.624038956817    -3.081960926263
H                    -0.208757324506    -1.901832086451    -1.868975875615
H                    -1.001212241558     0.226522978242     1.782443436974
H                     1.899086905586    -0.307448376870    -2.047514720718
H                    -2.372699260277    -0.364812361280    -3.421336321121
H                    -3.456734514065    -0.036414975204    -2.058795641118
H                    -2.781779089140    -1.669392240230    -2.278067198207
H                     2.899742098169    -2.068504354859    -1.187168140281
H                     1.497739763382    -3.009241494517    -0.648693270144
