
  -OEChem-05262117483D

 47 50  0     1  0  0  0  0  0999 V2000
    7.1210   -4.1500    1.9272 C   0  0  0  0  0  0  0  0  0  0  0  0
    4.8047   -6.7744    0.6935 C   0  0  0  0  0  0  0  0  0  0  0  0
    3.8100   -6.0049    0.0760 C   0  0  0  0  0  0  0  0  0  0  0  0
    5.8820   -6.1323    1.2956 C   0  0  0  0  0  0  0  0  0  0  0  0
    3.8941   -4.6157    0.0626 C   0  0  0  0  0  0  0  0  0  0  0  0
    5.8281   -1.5015    1.1381 C   0  0  0  0  0  0  0  0  0  0  0  0
    5.2701   -0.2482    0.7319 C   0  0  0  0  0  0  0  0  0  0  0  0
    5.9763   -4.7285    1.2863 C   0  0  0  0  0  0  0  0  0  0  0  0
    4.9750   -3.9376    0.6641 C   0  0  0  0  0  0  0  0  0  0  0  0
    5.0113   -2.4830    0.6218 C   0  0  0  0  0  0  0  0  0  0  0  0
    4.1547   -0.5311   -0.0092 C   0  0  0  0  0  0  0  0  0  0  0  0
   -0.2494    1.9486    0.9043 C   0  0  0  0  0  0  0  0  0  0  0  0
    0.2520    2.0270   -0.5618 C   0  0  0  0  0  0  0  0  0  0  0  0
   -0.7619   -0.5424    1.1600 C   0  0  0  0  0  0  0  0  0  0  0  0
    1.6428    0.3468    1.2001 C   0  0  0  0  0  0  0  0  0  0  0  0
   -0.4221   -0.3456   -1.2634 C   0  0  0  0  0  0  0  0  0  0  0  0
    0.1800    0.6204    1.5542 C   0  0  1  0  0  0  0  0  0  0  0  0
    0.7308    0.6560   -1.0777 C   0  0  2  0  0  0  0  0  0  0  0  0
   -2.4246   -1.3493   -0.3933 C   0  0  0  0  0  0  0  0  0  0  0  0
    3.1469    0.3227   -0.7081 C   0  0  0  0  0  0  0  0  0  0  0  0
    8.0622   -3.7120    2.4583 N   0  0  0  0  0  0  0  0  0  0  0  0
   -1.3757   -0.3672   -0.1570 N   0  0  1  0  0  0  0  0  0  0  0  0
    1.7923    0.0714   -0.2330 N   0  0  1  0  0  0  0  0  0  0  0  0
    3.9872   -1.8848   -0.0850 O   0  0  0  0  0  0  0  0  0  0  0  0
    4.7394   -7.8584    0.7046 H   0  0  0  0  0  0  0  0  0  0  0  0
    2.9619   -6.4928   -0.3970 H   0  0  0  0  0  0  0  0  0  0  0  0
    6.6667   -6.7047    1.7807 H   0  0  0  0  0  0  0  0  0  0  0  0
    3.1166   -4.0306   -0.4148 H   0  0  0  0  0  0  0  0  0  0  0  0
    6.7122   -1.6486    1.7392 H   0  0  0  0  0  0  0  0  0  0  0  0
    5.6457    0.7391    0.9662 H   0  0  0  0  0  0  0  0  0  0  0  0
    0.1709    2.7786    1.4835 H   0  0  0  0  0  0  0  0  0  0  0  0
   -1.3373    2.0405    0.9403 H   0  0  0  0  0  0  0  0  0  0  0  0
   -0.5339    2.4104   -1.2204 H   0  0  0  0  0  0  0  0  0  0  0  0
    1.0922    2.7278   -0.6344 H   0  0  0  0  0  0  0  0  0  0  0  0
   -0.2178   -1.5029    1.2417 H   0  0  0  0  0  0  0  0  0  0  0  0
   -1.5853   -0.5814    1.8818 H   0  0  0  0  0  0  0  0  0  0  0  0
    2.2412    1.2262    1.5047 H   0  0  0  0  0  0  0  0  0  0  0  0
    2.0285   -0.5070    1.7708 H   0  0  0  0  0  0  0  0  0  0  0  0
   -0.9833   -0.0732   -2.1666 H   0  0  0  0  0  0  0  0  0  0  0  0
    0.0323   -1.3382   -1.4406 H   0  0  0  0  0  0  0  0  0  0  0  0
    0.1311    0.7205    2.6442 H   0  0  0  0  0  0  0  0  0  0  0  0
    1.1645    0.7932   -2.0738 H   0  0  0  0  0  0  0  0  0  0  0  0
   -2.9181   -1.1406   -1.3486 H   0  0  0  0  0  0  0  0  0  0  0  0
   -3.1789   -1.2868    0.3981 H   0  0  0  0  0  0  0  0  0  0  0  0
   -2.0472   -2.3897   -0.4263 H   0  0  0  0  0  0  0  0  0  0  0  0
    3.4696    1.3729   -0.5729 H   0  0  0  0  0  0  0  0  0  0  0  0
    3.1807    0.1069   -1.7824 H   0  0  0  0  0  0  0  0  0  0  0  0
  1  8  1  0  0  0  0
  1 21  3  0  0  0  0
  2  3  1  0  0  0  0
  2  4  2  0  0  0  0
  2 25  1  0  0  0  0
  3  5  2  0  0  0  0
  3 26  1  0  0  0  0
  4  8  1  0  0  0  0
  4 27  1  0  0  0  0
  5  9  1  0  0  0  0
  5 28  1  0  0  0  0
  6  7  1  0  0  0  0
  6 10  2  0  0  0  0
  6 29  1  0  0  0  0
  7 11  2  0  0  0  0
  7 30  1  0  0  0  0
  8  9  2  0  0  0  0
  9 10  1  0  0  0  0
 10 24  1  0  0  0  0
 11 20  1  0  0  0  0
 11 24  1  0  0  0  0
 12 13  1  0  0  0  0
 12 17  1  0  0  0  0
 12 31  1  0  0  0  0
 12 32  1  0  0  0  0
 13 18  1  0  0  0  0
 13 33  1  0  0  0  0
 13 34  1  0  0  0  0
 14 17  1  0  0  0  0
 14 22  1  0  0  0  0
 14 35  1  0  0  0  0
 14 36  1  0  0  0  0
 15 17  1  0  0  0  0
 15 23  1  0  0  0  0
 15 37  1  0  0  0  0
 15 38  1  0  0  0  0
 16 18  1  0  0  0  0
 16 22  1  0  0  0  0
 16 39  1  0  0  0  0
 16 40  1  0  0  0  0
 17 41  1  0  0  0  0
 18 23  1  0  0  0  0
 18 42  1  0  0  0  0
 19 22  1  0  0  0  0
 19 43  1  0  0  0  0
 19 44  1  0  0  0  0
 19 45  1  0  0  0  0
 20 23  1  0  0  0  0
 20 46  1  0  0  0  0
 20 47  1  0  0  0  0
M  END
$$$$
