47
0 1 C20H23N3O
C                     5.316254453309     0.440200126777     0.710146714871
C                     8.952804341370    -0.315478207116     0.821290084892
C                     8.956593678832    -1.716197631133     0.798360868104
C                     7.740457997032     0.366150232395     0.762080425623
C                     7.759455062012    -2.420454693609     0.699175775897
C                     4.956486791297    -3.790828513981     0.996281177805
C                     3.582686998286    -3.990004894584     0.643400190970
C                     6.524725315428    -0.337938498810     0.678125148791
C                     6.520642369282    -1.755725496570     0.633924241117
C                     5.297661896681    -2.539234376536     0.541376481077
C                     3.177167928789    -2.858383946346    -0.014817337615
C                     0.748157974298     1.473628999718     0.516829643641
C                     0.653614374782     1.065801209428    -0.977768754481
C                    -1.080212826875    -0.073732234594     1.420472185804
C                     1.340578492233    -0.891097385655     1.152747311186
C                    -0.955733635509    -0.918889709258    -0.877745016939
C                     0.413992609543     0.298789804720     1.451441250163
C                     0.503519878982    -0.456519015310    -1.128700625591
C                    -3.085666537307    -0.430106992252     0.143166740596
C                     1.883923131527    -2.447160960364    -0.647390795692
N                     4.384278779018     1.135762257338     0.781250404549
N                    -1.672837273832    -0.085587772652     0.084099144241
N                     1.519216801485    -1.093431689473    -0.288164619552
O                     4.216092513443    -1.972869031007    -0.083881827035
H                     9.885268022886     0.237445846758     0.886399445631
H                     9.897110924192    -2.258851249657     0.840905678655
H                     7.715365159842     1.451057766022     0.794049809539
H                     7.774327841523    -3.504809903814     0.644182695895
H                     5.592860942979    -4.463692746988     1.555817819520
H                     2.967735638751    -4.853043293656     0.862061670236
H                     1.765756008264     1.804568267359     0.740390033853
H                     0.073294790252     2.310077582773     0.726128983197
H                    -0.192760969483     1.560519871251    -1.461993419459
H                     1.567867867246     1.366927178071    -1.497053558126
H                    -1.215722188020    -1.048435507828     1.932775813805
H                    -1.637194299386     0.667741675897     2.006539873116
H                     2.322942748615    -0.704856196914     1.602324823268
H                     0.931201186401    -1.797231410545     1.634784892044
H                    -1.504925185554    -0.855096983754    -1.824515253058
H                    -0.959013142479    -1.988976777833    -0.585169451331
H                     0.625056770972     0.599395443996     2.484587563641
H                     0.748288263019    -0.732027494018    -2.160794807772
H                    -3.533166494368    -0.342929534216    -0.852570903421
H                    -3.608176220958     0.263167076594     0.811001900939
H                    -3.268414389151    -1.458973865502     0.511646284070
H                     1.982948602720    -2.496365127437    -1.739730893123
H                     1.135585898449    -3.211825315972    -0.358649685195
