27
0 1 BrC14Cl2H7N2O
C                     7.091125295605    -6.452014752691    -0.259501778270
C                     8.024614464345    -6.541852643861    -1.296355353825
C                     6.353512949974    -5.283195239512    -0.097639762458
C                     2.033280076005    -2.436376455813     1.291198379029
C                     0.839686353818    -2.155285919547     1.941366645980
C                     8.206402055347    -5.463848105237    -2.163344986835
C                     1.300456837048     0.218115214923     1.697473716845
C                     2.889105096474    -1.416639969113     0.824847034182
C                     6.527243468686    -4.174351554826    -0.950663043601
C                     0.481065207150    -0.818404851986     2.138422047280
C                     2.500142172113    -0.079354795375     1.043785865807
C                     7.466162609453    -4.289651183203    -1.994492608862
C                     5.697453220843    -2.989260503890    -0.666172538465
C                     4.115294822479    -1.858489668258     0.154915734114
N                     4.546206550390    -3.092939257843     0.092867737624
N                     5.971986997463    -1.756551859702    -1.047173203218
O                     4.916905304333    -0.999984682723    -0.504784130964
Cl                   -1.017916381684    -0.434268261916     2.951424243367
Cl                    3.470463990337     1.283577057714     0.544524312882
Br                    7.778867763940    -2.902961342438    -3.275695798776
H                     6.938872063709    -7.287083532628     0.418231980472
H                     8.608530189029    -7.447259304091    -1.437839930028
H                     5.622392174647    -5.199960347492     0.698979625780
H                     2.333622624248    -3.464772520099     1.123196886261
H                     0.193934012481    -2.954755440367     2.288484347938
H                     8.920211750746    -5.529233109093    -2.977613757992
H                     1.016955311201     1.251895128151     1.859106466631
