
  -OEChem-05262117483D

 16 17  0     0  0  0  0  0  0999 V2000
    0.3229   -1.0755    1.5075 C   0  0  0  0  0  0  0  0  0  0  0  0
    2.5146   -6.9615    2.6972 C   0  0  0  0  0  0  0  0  0  0  0  0
   -0.8716   -0.9741    0.8318 C   0  0  0  0  0  0  0  0  0  0  0  0
    3.2811   -5.9065    3.1394 C   0  0  0  0  0  0  0  0  0  0  0  0
   -0.0959   -3.2313    1.2518 C   0  0  0  0  0  0  0  0  0  0  0  0
    1.2247   -5.3117    1.9818 C   0  0  0  0  0  0  0  0  0  0  0  0
    0.0339   -4.7105    1.3129 C   0  0  0  0  0  0  0  0  0  0  0  0
    0.7494   -2.3552    1.7381 N   0  0  0  0  0  0  0  0  0  0  0  0
    1.3656   -6.6169    2.0504 N   0  0  0  0  0  0  0  0  0  0  0  0
   -0.8379   -5.4116    0.8141 O   0  0  0  0  0  0  0  0  0  0  0  0
   -1.4966   -2.5371    0.4640 S   0  0  0  0  0  0  0  0  0  0  0  0
    2.5386   -4.4097    2.7329 S   0  0  0  0  0  0  0  0  0  0  0  0
    0.9201   -0.2388    1.8529 H   0  0  0  0  0  0  0  0  0  0  0  0
    2.7607   -8.0100    2.8274 H   0  0  0  0  0  0  0  0  0  0  0  0
   -1.3971   -0.0731    0.5420 H   0  0  0  0  0  0  0  0  0  0  0  0
    4.2235   -5.9428    3.6720 H   0  0  0  0  0  0  0  0  0  0  0  0
  1  3  2  0  0  0  0
  1  8  1  0  0  0  0
  1 13  1  0  0  0  0
  2  4  2  0  0  0  0
  2  9  1  0  0  0  0
  2 14  1  0  0  0  0
  3 11  1  0  0  0  0
  3 15  1  0  0  0  0
  4 12  1  0  0  0  0
  4 16  1  0  0  0  0
  5  7  1  0  0  0  0
  5  8  2  0  0  0  0
  5 11  1  0  0  0  0
  6  7  1  0  0  0  0
  6  9  2  0  0  0  0
  6 12  1  0  0  0  0
  7 10  2  0  0  0  0
M  END
$$$$
