25
0 1 C10F3H9O3
C                    -2.886839424246     0.622272219322    -4.830315550508
C                    -4.055783548075     0.220324826117    -5.490489346696
C                    -1.965027693683    -0.325816747573    -4.371251759034
C                    -4.306718651110    -1.126841266209    -5.692569798914
C                    -2.240711134252    -1.688057648686    -4.586535722419
C                    -3.399446143786    -2.089024698774    -5.240779833956
C                     3.046005065208     1.754990564676    -3.117013508279
C                     2.427165353862     3.046436095921    -2.567623717868
C                     0.859979135657     1.352579707486    -2.775442827055
C                    -0.477371978853     1.314131432352    -3.490729075041
O                     1.915035745787     1.078282208490    -3.671944810690
O                     1.068933012455     2.674383500295    -2.273659839972
O                    -0.801806954769    -0.055539979358    -3.719743149710
F                    -5.426814315495    -1.537687467434    -6.326324941453
F                    -1.376756671219    -2.622336085235    -4.155088747634
F                    -3.640108022708    -3.395619557541    -5.434183139905
H                    -2.706127825142     1.679563412519    -4.680942206827
H                    -4.773676247829     0.950698794813    -5.849134803765
H                     3.774343723100     1.912983358435    -3.913929611471
H                     3.499318166223     1.152157807774    -2.318013986783
H                     2.912090279043     3.398794313882    -1.652493145928
H                     2.423763262992     3.849765218353    -3.312561527128
H                     0.872761141301     0.635895203972    -1.938981252700
H                    -0.394172504664     1.863978437165    -4.435144536074
H                    -1.231402581914     1.788799119862    -2.851844522547
