27
0 1 BrC14Cl2H7N2O
C                     8.349762030293    -4.730497043763    -2.925614736189
C                     8.363031815614    -5.999661298673    -2.339751126068
C                     7.549368518437    -3.728405002758    -2.381166831204
C                     2.127743002455    -2.355640825425     0.931588041401
C                     0.870637336191    -2.093119318569     1.458642542359
C                     7.587333448399    -6.256283215186    -1.207157894082
C                     1.269518237421     0.284952201669     1.151147031675
C                     2.988702550023    -1.322285359946     0.506375414463
C                     6.749888144193    -3.967009308391    -1.248319292526
C                     0.451268005724    -0.763742634743     1.565736955287
C                     2.533314857379     0.006236856146     0.622837878010
C                     6.790311721436    -5.245195442064    -0.665385678412
C                     5.922083655000    -2.858202332728    -0.739418199905
C                     4.286206774031    -1.745751929635    -0.025220114893
N                     4.613884225095    -2.977475700949    -0.328395846170
N                     6.388409969765    -1.624816347002    -0.700594071365
O                     5.298425128972    -0.875965007680    -0.225193976136
Cl                   -1.126306797227    -0.403483023137     2.227500907826
Cl                    3.481789398665     1.378629958544     0.104989308941
Br                    5.827654511223    -5.662553290577     0.939412725519
H                     8.954625271903    -4.523897127119    -3.803756625452
H                     8.978714640932    -6.792169874293    -2.756358347291
H                     7.522299241408    -2.740529752027    -2.830172524976
H                     2.479368262353    -3.377493618793     0.837569375095
H                     0.224767882646    -2.901518180933     1.784243544383
H                     7.606340964629    -7.233787031805    -0.736893617144
H                     0.932948481925     1.312307739514     1.231663275776
