
  -OEChem-05262117483D

 25 26  0     0  0  0  0  0  0999 V2000
   -3.6705    0.8178   -2.8416 C   0  0  0  0  0  0  0  0  0  0  0  0
   -5.0115    0.4802   -3.0711 C   0  0  0  0  0  0  0  0  0  0  0  0
   -2.7388   -0.1634   -2.4841 C   0  0  0  0  0  0  0  0  0  0  0  0
   -5.4235   -0.8359   -2.9448 C   0  0  0  0  0  0  0  0  0  0  0  0
   -3.1795   -1.4940   -2.3629 C   0  0  0  0  0  0  0  0  0  0  0  0
   -4.5081   -1.8312   -2.5903 C   0  0  0  0  0  0  0  0  0  0  0  0
    1.8447    3.0814   -1.1670 C   0  0  0  0  0  0  0  0  0  0  0  0
    1.1337    2.4000   -0.0036 C   0  0  0  0  0  0  0  0  0  0  0  0
    0.5484    1.3472   -1.9566 C   0  0  0  0  0  0  0  0  0  0  0  0
   -0.9317    1.3821   -2.3184 C   0  0  0  0  0  0  0  0  0  0  0  0
    1.0933    2.6202   -2.2988 O   0  0  0  0  0  0  0  0  0  0  0  0
    0.7716    1.1347   -0.5700 O   0  0  0  0  0  0  0  0  0  0  0  0
   -1.4175    0.0444   -2.2379 O   0  0  0  0  0  0  0  0  0  0  0  0
   -6.7103   -1.1857   -3.1606 F   0  0  0  0  0  0  0  0  0  0  0  0
   -2.3085   -2.4588   -2.0234 F   0  0  0  0  0  0  0  0  0  0  0  0
   -4.9047   -3.1079   -2.4682 F   0  0  0  0  0  0  0  0  0  0  0  0
   -3.3645    1.8512   -2.9481 H   0  0  0  0  0  0  0  0  0  0  0  0
   -5.7378    1.2371   -3.3486 H   0  0  0  0  0  0  0  0  0  0  0  0
    1.7947    4.1722   -1.1469 H   0  0  0  0  0  0  0  0  0  0  0  0
    2.8901    2.7570   -1.2459 H   0  0  0  0  0  0  0  0  0  0  0  0
    1.7689    2.2131    0.8645 H   0  0  0  0  0  0  0  0  0  0  0  0
    0.2414    2.9605    0.3071 H   0  0  0  0  0  0  0  0  0  0  0  0
    1.0542    0.5379   -2.4975 H   0  0  0  0  0  0  0  0  0  0  0  0
   -1.0417    1.7744   -3.3369 H   0  0  0  0  0  0  0  0  0  0  0  0
   -1.4653    2.0356   -1.6176 H   0  0  0  0  0  0  0  0  0  0  0  0
  1  2  1  0  0  0  0
  1  3  2  0  0  0  0
  1 17  1  0  0  0  0
  2  4  2  0  0  0  0
  2 18  1  0  0  0  0
  3  5  1  0  0  0  0
  3 13  1  0  0  0  0
  4  6  1  0  0  0  0
  4 14  1  0  0  0  0
  5  6  2  0  0  0  0
  5 15  1  0  0  0  0
  6 16  1  0  0  0  0
  7  8  1  0  0  0  0
  7 11  1  0  0  0  0
  7 19  1  0  0  0  0
  7 20  1  0  0  0  0
  8 12  1  0  0  0  0
  8 21  1  0  0  0  0
  8 22  1  0  0  0  0
  9 10  1  0  0  0  0
  9 11  1  0  0  0  0
  9 12  1  0  0  0  0
  9 23  1  0  0  0  0
 10 13  1  0  0  0  0
 10 24  1  0  0  0  0
 10 25  1  0  0  0  0
M  END
$$$$
