
  -OEChem-05262117483D

 33 35  0     0  0  0  0  0  0999 V2000
    4.7941    0.3408    5.8883 C   0  0  0  0  0  0  0  0  0  0  0  0
    3.9718    1.4458    5.6753 C   0  0  0  0  0  0  0  0  0  0  0  0
    3.3967   -0.9649    4.4009 C   0  0  0  0  0  0  0  0  0  0  0  0
    2.5488    0.1322    4.1748 C   0  0  0  0  0  0  0  0  0  0  0  0
    4.4978   -0.8686    5.2511 C   0  0  0  0  0  0  0  0  0  0  0  0
    2.8699    1.3321    4.8329 C   0  0  0  0  0  0  0  0  0  0  0  0
   -0.2082    0.3626    1.8730 C   0  0  0  0  0  0  0  0  0  0  0  0
   -0.3025   -0.9852    2.2123 C   0  0  0  0  0  0  0  0  0  0  0  0
    1.3829    0.0121    3.2963 C   0  0  0  0  0  0  0  0  0  0  0  0
   -1.0318    1.2108    0.9625 C   0  0  0  0  0  0  0  0  0  0  0  0
   -1.1955   -2.1219    1.8153 C   0  0  0  0  0  0  0  0  0  0  0  0
   -2.4037   -1.7106    0.9702 C   0  0  0  0  0  0  0  0  0  0  0  0
   -2.0235   -0.8281   -0.2268 C   0  0  0  0  0  0  0  0  0  0  0  0
    5.4093   -2.0517    5.4288 C   0  0  0  0  0  0  0  0  0  0  0  0
    0.8364    0.9543    2.5591 N   0  0  0  0  0  0  0  0  0  0  0  0
    0.7222   -1.1907    3.1115 N   0  0  0  0  0  0  0  0  0  0  0  0
   -1.9162    0.5867    0.1089 N   0  0  0  0  0  0  0  0  0  0  0  0
   -0.9487    2.4364    0.9804 O   0  0  0  0  0  0  0  0  0  0  0  0
    2.0843    2.4079    4.6815 F   0  0  0  0  0  0  0  0  0  0  0  0
    5.9641   -2.0849    6.6649 F   0  0  0  0  0  0  0  0  0  0  0  0
    4.7572   -3.2295    5.2481 F   0  0  0  0  0  0  0  0  0  0  0  0
    6.4394   -2.0398    4.5405 F   0  0  0  0  0  0  0  0  0  0  0  0
    5.6512    0.4183    6.5492 H   0  0  0  0  0  0  0  0  0  0  0  0
    4.1630    2.3975    6.1607 H   0  0  0  0  0  0  0  0  0  0  0  0
    3.2069   -1.9016    3.8863 H   0  0  0  0  0  0  0  0  0  0  0  0
   -0.5993   -2.8532    1.2517 H   0  0  0  0  0  0  0  0  0  0  0  0
   -1.5447   -2.6434    2.7159 H   0  0  0  0  0  0  0  0  0  0  0  0
   -2.8891   -2.6229    0.6071 H   0  0  0  0  0  0  0  0  0  0  0  0
   -3.1355   -1.1729    1.5813 H   0  0  0  0  0  0  0  0  0  0  0  0
   -1.0949   -1.1995   -0.6844 H   0  0  0  0  0  0  0  0  0  0  0  0
   -2.8026   -0.9016   -0.9894 H   0  0  0  0  0  0  0  0  0  0  0  0
    0.8802   -2.0491    3.6252 H   0  0  0  0  0  0  0  0  0  0  0  0
   -2.3848    1.2508   -0.4956 H   0  0  0  0  0  0  0  0  0  0  0  0
  1  2  1  0  0  0  0
  1  5  2  0  0  0  0
  1 23  1  0  0  0  0
  2  6  2  0  0  0  0
  2 24  1  0  0  0  0
  3  4  2  0  0  0  0
  3  5  1  0  0  0  0
  3 25  1  0  0  0  0
  4  6  1  0  0  0  0
  4  9  1  0  0  0  0
  5 14  1  0  0  0  0
  6 19  1  0  0  0  0
  7  8  2  0  0  0  0
  7 10  1  0  0  0  0
  7 15  1  0  0  0  0
  8 11  1  0  0  0  0
  8 16  1  0  0  0  0
  9 15  2  0  0  0  0
  9 16  1  0  0  0  0
 10 17  1  0  0  0  0
 10 18  2  0  0  0  0
 11 12  1  0  0  0  0
 11 26  1  0  0  0  0
 11 27  1  0  0  0  0
 12 13  1  0  0  0  0
 12 28  1  0  0  0  0
 12 29  1  0  0  0  0
 13 17  1  0  0  0  0
 13 30  1  0  0  0  0
 13 31  1  0  0  0  0
 14 20  1  0  0  0  0
 14 21  1  0  0  0  0
 14 22  1  0  0  0  0
 16 32  1  0  0  0  0
 17 33  1  0  0  0  0
M  END
$$$$
