
  -OEChem-05262117483D

 21 22  0     1  0  0  0  0  0999 V2000
   -1.9034   -1.8097    2.2324 C   0  0  0  0  0  0  0  0  0  0  0  0
   -3.1930   -2.2100    2.6996 C   0  0  0  0  0  0  0  0  0  0  0  0
   -2.1044   -1.1739    1.0316 C   0  0  0  0  0  0  0  0  0  0  0  0
   -4.0740   -1.7817    1.7434 C   0  0  0  0  0  0  0  0  0  0  0  0
    1.0477    0.2007   -0.0495 C   0  0  0  0  0  0  0  0  0  0  0  0
   -1.1247    1.0414    0.2324 C   0  0  0  0  0  0  0  0  0  0  0  0
   -1.1895   -0.5031    0.0617 C   0  0  1  0  0  0  0  0  0  0  0  0
    0.2317    1.3111   -0.2317 N   0  0  0  0  0  0  0  0  0  0  0  0
    0.2043   -0.8698    0.2873 N   0  0  0  0  0  0  0  0  0  0  0  0
   -5.4954   -1.8968    1.6627 N   0  3  0  0  0  0  0  0  0  0  0  0
   -6.0480   -2.4814    2.6070 O   0  5  0  0  0  0  0  0  0  0  0  0
    2.2607    0.1512   -0.1612 O   0  0  0  0  0  0  0  0  0  0  0  0
   -6.0638   -1.4134    0.6774 O   0  0  0  0  0  0  0  0  0  0  0  0
   -3.4346   -1.1526    0.7197 O   0  0  0  0  0  0  0  0  0  0  0  0
   -0.9466   -1.9631    2.7116 H   0  0  0  0  0  0  0  0  0  0  0  0
   -3.4503   -2.7387    3.6063 H   0  0  0  0  0  0  0  0  0  0  0  0
   -1.8799    1.5448   -0.3745 H   0  0  0  0  0  0  0  0  0  0  0  0
   -1.2686    1.3118    1.2868 H   0  0  0  0  0  0  0  0  0  0  0  0
   -1.5209   -0.7365   -0.9604 H   0  0  0  0  0  0  0  0  0  0  0  0
    0.6613    2.2168   -0.0885 H   0  0  0  0  0  0  0  0  0  0  0  0
    0.5290   -1.7840   -0.0063 H   0  0  0  0  0  0  0  0  0  0  0  0
  1  2  1  0  0  0  0
  1  3  2  0  0  0  0
  1 15  1  0  0  0  0
  2  4  2  0  0  0  0
  2 16  1  0  0  0  0
  3  7  1  0  0  0  0
  3 14  1  0  0  0  0
  4 10  1  0  0  0  0
  4 14  1  0  0  0  0
  5  8  1  0  0  0  0
  5  9  1  0  0  0  0
  5 12  2  0  0  0  0
  6  7  1  0  0  0  0
  6  8  1  0  0  0  0
  6 17  1  0  0  0  0
  6 18  1  0  0  0  0
  7  9  1  0  0  0  0
  7 19  1  0  0  0  0
  8 20  1  0  0  0  0
  9 21  1  0  0  0  0
 10 11  1  0  0  0  0
 10 13  2  0  0  0  0
M  CHG  2  10   1  11  -1
M  END
$$$$
