25
0 1 C10F3H9O3
C                    -0.389156391550    -1.798876701869    -3.936974273559
C                    -0.040293568986    -2.539603117800    -5.068341031524
C                    -0.993036072645    -0.544584390371    -4.053322567123
C                    -0.286612918509    -2.013348949747    -6.330055677831
C                    -1.255664441547    -0.045979318817    -5.335569633170
C                    -0.892722462410    -0.765808960624    -6.471704298969
C                     2.629787588292     1.859510514598    -3.386892435775
C                     2.182709941104     3.140766743944    -2.680737246395
C                     0.641693557423     1.429853047804    -2.393782325946
C                    -0.847669780515     1.445867961072    -2.707901886449
O                     1.393356187719     1.161028691112    -3.563435981163
O                     1.033093829682     2.722043729355    -1.925652739292
O                    -1.373762253179     0.123014756937    -2.915265379350
F                     0.052324756835    -2.699764855483    -7.442665336805
F                    -1.866960403664     1.145594084156    -5.499261623153
F                    -1.141809567499    -0.260508950672    -7.691677187602
H                    -0.194693958581    -2.182050792678    -2.940710923734
H                     0.429786215610    -3.514035611055    -4.984701848115
H                     3.072568337697     2.021615131703    -4.370953488299
H                     3.317516202768     1.271372146278    -2.763615298346
H                     2.932754056442     3.541221561076    -1.993089442571
H                     1.887643157357     3.917278181359    -3.395796122809
H                     0.869295808461     0.683097742371    -1.616136718891
H                    -1.033019517327     2.096603521868    -3.565268304881
H                    -1.383036057337     1.831310740418    -1.838876222954
