37
0 1 C11H19N3O2S2
C                     8.674184274205    -1.100471603787    -1.153338380964
C                     7.137701637443    -0.623729419899     0.577283922418
C                     9.751127944816    -1.172118821961    -2.209210961185
C                     7.141836569958    -1.560453766434     8.289063853740
C                     9.051490985688    -0.008294625231    -5.897121148865
C                     6.455963795835    -0.829033397430     7.130074352301
C                    10.333346905107    -0.637949591615    -5.342558301962
C                     7.025396490607    -1.219443589712     5.760818439954
C                     6.343635545122    -0.480285379862     4.601112871789
C                    10.841883066540     0.035582939292    -4.061028218119
C                     6.929938398786    -0.887835352117     3.252296423912
N                     7.908552963663    -2.122016437185    -0.868187875427
N                     7.012239711080    -1.837871299556     0.129241680426
N                     9.892109109446    -0.030427213354    -2.947597720622
O                    10.446486553821    -2.170603229082    -2.341646374248
O                     6.608393730586     1.522772200285     2.041918777550
S                     8.370954958443     0.334635279409    -0.192407156308
S                     6.123213704947     0.091987879967     1.905810975190
H                     7.028826315656    -2.646521394093     8.193960845119
H                     8.215140385086    -1.340040382511     8.315760780517
H                     6.716575962522    -1.264110400877     9.253644755408
H                     8.217207732278    -0.111734847265    -5.194336178012
H                     9.187902175927     1.059766721230    -6.106811486878
H                     8.748759212923    -0.492948527012    -6.830454395540
H                     6.557860053397     0.255113613293     7.267111670308
H                     5.379001170097    -1.040750484160     7.147739472950
H                    11.133507737743    -0.573638685202    -6.090070775315
H                    10.176679964850    -1.701842582729    -5.138553004683
H                     6.921668914765    -2.303479758976     5.618497425085
H                     8.102770138869    -1.007756359160     5.741962009109
H                     6.462101441838     0.600858941782     4.732595744705
H                     5.266564533307    -0.689986444297     4.614437977295
H                    11.764203225276    -0.444227345270    -3.726610451710
H                    11.057223646595     1.094103903283    -4.241052003268
H                     6.752903253062    -1.940962809683     3.012191064788
H                     8.001081408734    -0.672159379546     3.190167770231
H                     9.150866063097     0.657577705711    -2.911819350895
