
  -OEChem-05262117483D

 25 26  0     0  0  0  0  0  0999 V2000
    2.2363    0.0027   -1.4772 C   0  0  0  0  0  0  0  0  0  0  0  0
    1.5815    0.2454   -2.6875 C   0  0  0  0  0  0  0  0  0  0  0  0
    1.9245    0.7707   -0.3362 C   0  0  0  0  0  0  0  0  0  0  0  0
    0.6379    1.2682   -2.6583 C   0  0  0  0  0  0  0  0  0  0  0  0
    0.3884    1.9935   -1.4566 C   0  0  0  0  0  0  0  0  0  0  0  0
   -0.9122    2.8251   -2.9436 C   0  0  0  0  0  0  0  0  0  0  0  0
   -1.9408    3.6446   -3.6618 C   0  0  0  0  0  0  0  0  0  0  0  0
   -2.8678    3.4125   -7.2255 C   0  0  0  0  0  0  0  0  0  0  0  0
   -2.9206    3.9558   -5.8004 C   0  0  0  0  0  0  0  0  0  0  0  0
    1.0194    1.7557   -0.3014 N   0  0  0  0  0  0  0  0  0  0  0  0
   -0.5873    2.9589   -1.6782 N   0  0  0  0  0  0  0  0  0  0  0  0
   -0.2165    1.8288   -3.5925 N   0  0  0  0  0  0  0  0  0  0  0  0
   -3.8220    4.0599   -8.0660 O   0  0  0  0  0  0  0  0  0  0  0  0
   -1.9612    3.2439   -5.0251 O   0  0  0  0  0  0  0  0  0  0  0  0
    2.9885   -0.7772   -1.4047 H   0  0  0  0  0  0  0  0  0  0  0  0
    1.8005   -0.3302   -3.5832 H   0  0  0  0  0  0  0  0  0  0  0  0
    2.4436    0.5687    0.5994 H   0  0  0  0  0  0  0  0  0  0  0  0
   -2.9238    3.4913   -3.1935 H   0  0  0  0  0  0  0  0  0  0  0  0
   -1.6890    4.7105   -3.5662 H   0  0  0  0  0  0  0  0  0  0  0  0
   -3.1339    2.3527   -7.2244 H   0  0  0  0  0  0  0  0  0  0  0  0
   -1.8470    3.5052   -7.6208 H   0  0  0  0  0  0  0  0  0  0  0  0
   -3.9302    3.8232   -5.3868 H   0  0  0  0  0  0  0  0  0  0  0  0
   -2.6880    5.0334   -5.7908 H   0  0  0  0  0  0  0  0  0  0  0  0
   -0.3383    1.5955   -4.5695 H   0  0  0  0  0  0  0  0  0  0  0  0
   -3.5242    4.9683   -8.2285 H   0  0  0  0  0  0  0  0  0  0  0  0
  1  2  1  0  0  0  0
  1  3  2  0  0  0  0
  1 15  1  0  0  0  0
  2  4  2  0  0  0  0
  2 16  1  0  0  0  0
  3 10  1  0  0  0  0
  3 17  1  0  0  0  0
  4  5  1  0  0  0  0
  4 12  1  0  0  0  0
  5 10  2  0  0  0  0
  5 11  1  0  0  0  0
  6  7  1  0  0  0  0
  6 11  2  0  0  0  0
  6 12  1  0  0  0  0
  7 14  1  0  0  0  0
  7 18  1  0  0  0  0
  7 19  1  0  0  0  0
  8  9  1  0  0  0  0
  8 13  1  0  0  0  0
  8 20  1  0  0  0  0
  8 21  1  0  0  0  0
  9 14  1  0  0  0  0
  9 22  1  0  0  0  0
  9 23  1  0  0  0  0
 12 24  1  0  0  0  0
 13 25  1  0  0  0  0
M  END
$$$$
