
  -OEChem-05262117483D

 33 34  0     1  0  0  0  0  0999 V2000
   -1.3640    1.2308    3.2210 C   0  0  0  0  0  0  0  0  0  0  0  0
    0.0238    1.3473    3.0599 C   0  0  0  0  0  0  0  0  0  0  0  0
   -1.9167    0.1136    3.8604 C   0  0  0  0  0  0  0  0  0  0  0  0
    0.8763    0.3449    3.5389 C   0  0  0  0  0  0  0  0  0  0  0  0
   -1.0660   -0.8838    4.3408 C   0  0  0  0  0  0  0  0  0  0  0  0
    0.3213   -0.7611    4.1831 C   0  0  0  0  0  0  0  0  0  0  0  0
    2.5968   -3.6010    3.7117 C   0  0  0  0  0  0  0  0  0  0  0  0
   -1.4054   -2.1802    5.0442 C   0  0  0  0  0  0  0  0  0  0  0  0
    1.0320   -1.9765    4.7424 C   0  0  1  0  0  0  0  0  0  0  0  0
   -0.0537   -2.6164    5.6630 C   0  0  2  0  0  0  0  0  0  0  0  0
    0.0911   -4.1166    5.8995 C   0  0  0  0  0  0  0  0  0  0  0  0
    1.0012   -5.4816    1.7156 C   0  0  0  0  0  0  0  0  0  0  0  0
    2.9564   -4.3270    2.4090 C   0  0  0  0  0  0  0  0  0  0  0  0
    1.4756   -2.8379    3.6434 N   0  0  0  0  0  0  0  0  0  0  0  0
    3.3173   -3.6989    4.7059 O   0  0  0  0  0  0  0  0  0  0  0  0
    1.8972   -4.4012    1.4637 O   0  0  0  0  0  0  0  0  0  0  0  0
   -2.0159    2.0170    2.8482 H   0  0  0  0  0  0  0  0  0  0  0  0
    0.4381    2.2217    2.5647 H   0  0  0  0  0  0  0  0  0  0  0  0
   -2.9945    0.0303    3.9818 H   0  0  0  0  0  0  0  0  0  0  0  0
    1.9535    0.4301    3.4146 H   0  0  0  0  0  0  0  0  0  0  0  0
   -2.1907   -2.0671    5.7986 H   0  0  0  0  0  0  0  0  0  0  0  0
   -1.7636   -2.9265    4.3211 H   0  0  0  0  0  0  0  0  0  0  0  0
    1.9285   -1.7325    5.3170 H   0  0  0  0  0  0  0  0  0  0  0  0
    0.0433   -2.0986    6.6253 H   0  0  0  0  0  0  0  0  0  0  0  0
   -0.0296   -4.6748    4.9651 H   0  0  0  0  0  0  0  0  0  0  0  0
   -0.6725   -4.4714    6.6004 H   0  0  0  0  0  0  0  0  0  0  0  0
    1.0759   -4.3595    6.3084 H   0  0  0  0  0  0  0  0  0  0  0  0
    0.2185   -5.4279    0.9559 H   0  0  0  0  0  0  0  0  0  0  0  0
    0.5446   -5.4076    2.7121 H   0  0  0  0  0  0  0  0  0  0  0  0
    1.5192   -6.4470    1.6337 H   0  0  0  0  0  0  0  0  0  0  0  0
    3.7681   -3.7682    1.9329 H   0  0  0  0  0  0  0  0  0  0  0  0
    3.3394   -5.3200    2.6731 H   0  0  0  0  0  0  0  0  0  0  0  0
    1.0025   -2.7916    2.7477 H   0  0  0  0  0  0  0  0  0  0  0  0
  1  2  1  0  0  0  0
  1  3  2  0  0  0  0
  1 17  1  0  0  0  0
  2  4  2  0  0  0  0
  2 18  1  0  0  0  0
  3  5  1  0  0  0  0
  3 19  1  0  0  0  0
  4  6  1  0  0  0  0
  4 20  1  0  0  0  0
  5  6  2  0  0  0  0
  5  8  1  0  0  0  0
  6  9  1  0  0  0  0
  7 13  1  0  0  0  0
  7 14  1  0  0  0  0
  7 15  2  0  0  0  0
  8 10  1  0  0  0  0
  8 21  1  0  0  0  0
  8 22  1  0  0  0  0
  9 10  1  0  0  0  0
  9 14  1  0  0  0  0
  9 23  1  0  0  0  0
 10 11  1  0  0  0  0
 10 24  1  0  0  0  0
 11 25  1  0  0  0  0
 11 26  1  0  0  0  0
 11 27  1  0  0  0  0
 12 16  1  0  0  0  0
 12 28  1  0  0  0  0
 12 29  1  0  0  0  0
 12 30  1  0  0  0  0
 13 16  1  0  0  0  0
 13 31  1  0  0  0  0
 13 32  1  0  0  0  0
 14 33  1  0  0  0  0
M  END
$$$$
