48
0 1 C20H22N2O3S
C                    -9.516108010436     8.470473225914    -2.501193297973
C                    -8.226862120686     8.612181654660    -3.080711448909
C                    -3.766712522046    -0.494440891414    -2.191315182774
C                    -9.909099275147     7.260764237292    -1.968796133936
C                    -9.368925317530     4.873003254781    -1.465096609875
C                    -7.352479014193     7.546246700984    -3.119368849585
C                    -4.310862653723    -1.682371830061    -1.709467121442
C                    -4.503002083404     0.696611097379    -2.227547189665
C                    -8.458937533145     3.841469577101    -1.529019497098
C                    -6.402541932932    -0.508779683494    -1.313242991441
C                    -9.029436228949     6.144569820765    -1.994102541757
C                    -7.730021638168     6.287205124564    -2.578120037802
C                    -5.647320861066    -1.683251904680    -1.274074813046
C                    -5.828181090173     0.684570733596    -1.773922011682
C                    -7.195554761516     4.087567032037    -2.130590351565
C                    -7.522435906714    -5.890865062419    -6.559866952676
C                    -6.133290133348     3.014476020233    -2.231151415647
C                    -7.503039947953    -4.696880601071    -5.599294822384
C                    -6.927231953693    -5.065296082352    -4.224900758075
C                    -6.915260980918    -3.861059003051    -3.282926793689
N                    -6.839644764327     5.254676239180    -2.635123943579
N                    -6.241434486779    -2.870688575936    -0.759695191097
O                    -4.851610477565    -4.731073730504    -1.852211192324
O                    -7.208085238648    -5.172500400095    -0.965123773985
O                    -6.653524365576     1.776090029547    -1.753809340598
S                    -6.241225276569    -4.317307259550    -1.658566978451
H                   -10.191325748504     9.321684964128    -2.479821793682
H                    -7.930832530756     9.571835302651    -3.496414861915
H                    -2.734955452208    -0.485490753205    -2.532354802917
H                   -10.895129745329     7.146760283439    -1.523749288962
H                   -10.346814883169     4.723836422507    -1.012140121382
H                    -6.363006690764     7.635525860396    -3.558178097565
H                    -3.726336830049    -2.593404808230    -1.661867726594
H                    -4.039685596319     1.603840138087    -2.595869339961
H                    -8.681436340954     2.856716651833    -1.135930482773
H                    -7.440478829488    -0.496294482764    -0.989908545370
H                    -8.133374060369    -6.708352374040    -6.161168966841
H                    -7.935444691154    -5.608083461000    -7.533620971955
H                    -6.511980108768    -6.281049740541    -6.724705013496
H                    -5.816509890997     2.922555620943    -3.277030320200
H                    -5.261204269794     3.316431897496    -1.637295224063
H                    -6.910946731414    -3.882576147495    -6.036261993910
H                    -8.521979811280    -4.307766718327    -5.476331390345
H                    -5.905794733772    -5.442562332946    -4.338323617140
H                    -7.520960333105    -5.870280222385    -3.778564345280
H                    -6.283656388104    -3.052016513029    -3.659695961670
H                    -7.921912730276    -3.476611606038    -3.094484079582
H                    -7.157091267246    -2.742787063255    -0.334917299112
