
  -OEChem-05262117483D

 54 56  0     0  0  0  0  0  0999 V2000
    1.3774  -11.0097    3.1842 C   0  0  0  0  0  0  0  0  0  0  0  0
    0.7850  -10.9402    4.4661 C   0  0  0  0  0  0  0  0  0  0  0  0
    1.3382   -9.9131    2.3463 C   0  0  0  0  0  0  0  0  0  0  0  0
    0.1861   -9.7727    4.8916 C   0  0  0  0  0  0  0  0  0  0  0  0
    0.7905   -7.1619   -2.8617 C   0  0  0  0  0  0  0  0  0  0  0  0
    2.9720   -7.2058   -1.8510 C   0  0  0  0  0  0  0  0  0  0  0  0
    0.0620   -6.3874    2.3209 C   0  0  0  0  0  0  0  0  0  0  0  0
    1.3401   -7.5398   -4.0949 C   0  0  0  0  0  0  0  0  0  0  0  0
    3.5343   -7.5822   -3.0643 C   0  0  0  0  0  0  0  0  0  0  0  0
   -0.4674   -6.3021    3.6284 C   0  0  0  0  0  0  0  0  0  0  0  0
    0.7061   -8.7024    2.7378 C   0  0  0  0  0  0  0  0  0  0  0  0
    0.1356   -8.6259    4.0534 C   0  0  0  0  0  0  0  0  0  0  0  0
    1.5875   -6.9862   -1.7296 C   0  0  0  0  0  0  0  0  0  0  0  0
    0.6354   -7.5635    1.8550 C   0  0  0  0  0  0  0  0  0  0  0  0
    2.7210   -7.7515   -4.1999 C   0  0  0  0  0  0  0  0  0  0  0  0
   -0.4460   -7.3903    4.4663 C   0  0  0  0  0  0  0  0  0  0  0  0
    4.5035   -5.2221   -9.1846 C   0  0  0  0  0  0  0  0  0  0  0  0
    5.9510   -8.6233   -9.7126 C   0  0  0  0  0  0  0  0  0  0  0  0
    0.9891   -6.5923   -0.4003 C   0  0  0  0  0  0  0  0  0  0  0  0
    3.7639   -6.5453   -8.9858 C   0  0  0  0  0  0  0  0  0  0  0  0
    5.7874   -7.8378   -8.3992 C   0  0  0  0  0  0  0  0  0  0  0  0
    3.5685   -8.5757   -7.6764 C   0  0  0  0  0  0  0  0  0  0  0  0
    2.6045   -8.2451   -6.5440 C   0  0  0  0  0  0  0  0  0  0  0  0
    1.1807   -7.6641    0.5762 N   0  0  0  0  0  0  0  0  0  0  0  0
    4.4221   -7.4455   -8.0357 N   0  0  0  0  0  0  0  0  0  0  0  0
    3.3670   -8.1247   -5.3420 O   0  0  0  0  0  0  0  0  0  0  0  0
   -1.1517   -7.2328    6.0755 Cl  0  0  0  0  0  0  0  0  0  0  0  0
    1.8737  -11.9216    2.8632 H   0  0  0  0  0  0  0  0  0  0  0  0
    0.8136  -11.8053    5.1233 H   0  0  0  0  0  0  0  0  0  0  0  0
    1.8334   -9.9767    1.3824 H   0  0  0  0  0  0  0  0  0  0  0  0
   -0.2528   -9.7162    5.8816 H   0  0  0  0  0  0  0  0  0  0  0  0
   -0.2837   -7.0036   -2.7916 H   0  0  0  0  0  0  0  0  0  0  0  0
    3.6095   -7.0802   -0.9791 H   0  0  0  0  0  0  0  0  0  0  0  0
   -0.0034   -5.5138    1.6832 H   0  0  0  0  0  0  0  0  0  0  0  0
    0.6862   -7.6679   -4.9497 H   0  0  0  0  0  0  0  0  0  0  0  0
    4.6034   -7.7457   -3.1648 H   0  0  0  0  0  0  0  0  0  0  0  0
   -0.9115   -5.3701    3.9637 H   0  0  0  0  0  0  0  0  0  0  0  0
    4.7074   -4.7499   -8.2184 H   0  0  0  0  0  0  0  0  0  0  0  0
    5.4546   -5.3537   -9.7094 H   0  0  0  0  0  0  0  0  0  0  0  0
    3.8919   -4.5392   -9.7834 H   0  0  0  0  0  0  0  0  0  0  0  0
    5.3605   -9.5460   -9.7067 H   0  0  0  0  0  0  0  0  0  0  0  0
    5.6423   -8.0330  -10.5816 H   0  0  0  0  0  0  0  0  0  0  0  0
    7.0011   -8.9004   -9.8573 H   0  0  0  0  0  0  0  0  0  0  0  0
    1.4825   -5.6907   -0.0176 H   0  0  0  0  0  0  0  0  0  0  0  0
   -0.0762   -6.3444   -0.5297 H   0  0  0  0  0  0  0  0  0  0  0  0
    3.5971   -7.0288   -9.9672 H   0  0  0  0  0  0  0  0  0  0  0  0
    2.7677   -6.3238   -8.5876 H   0  0  0  0  0  0  0  0  0  0  0  0
    6.4032   -6.9341   -8.4381 H   0  0  0  0  0  0  0  0  0  0  0  0
    6.1811   -8.4311   -7.5671 H   0  0  0  0  0  0  0  0  0  0  0  0
    4.1949   -9.4080   -7.3415 H   0  0  0  0  0  0  0  0  0  0  0  0
    2.9776   -8.9487   -8.5327 H   0  0  0  0  0  0  0  0  0  0  0  0
    1.8633   -9.0499   -6.4367 H   0  0  0  0  0  0  0  0  0  0  0  0
    2.0704   -7.3078   -6.7424 H   0  0  0  0  0  0  0  0  0  0  0  0
    1.0916   -8.5808    0.1552 H   0  0  0  0  0  0  0  0  0  0  0  0
  1  2  1  0  0  0  0
  1  3  2  0  0  0  0
  1 28  1  0  0  0  0
  2  4  2  0  0  0  0
  2 29  1  0  0  0  0
  3 11  1  0  0  0  0
  3 30  1  0  0  0  0
  4 12  1  0  0  0  0
  4 31  1  0  0  0  0
  5  8  2  0  0  0  0
  5 13  1  0  0  0  0
  5 32  1  0  0  0  0
  6  9  1  0  0  0  0
  6 13  2  0  0  0  0
  6 33  1  0  0  0  0
  7 10  2  0  0  0  0
  7 14  1  0  0  0  0
  7 34  1  0  0  0  0
  8 15  1  0  0  0  0
  8 35  1  0  0  0  0
  9 15  2  0  0  0  0
  9 36  1  0  0  0  0
 10 16  1  0  0  0  0
 10 37  1  0  0  0  0
 11 12  1  0  0  0  0
 11 14  2  0  0  0  0
 12 16  2  0  0  0  0
 13 19  1  0  0  0  0
 14 24  1  0  0  0  0
 15 26  1  0  0  0  0
 16 27  1  0  0  0  0
 17 20  1  0  0  0  0
 17 38  1  0  0  0  0
 17 39  1  0  0  0  0
 17 40  1  0  0  0  0
 18 21  1  0  0  0  0
 18 41  1  0  0  0  0
 18 42  1  0  0  0  0
 18 43  1  0  0  0  0
 19 24  1  0  0  0  0
 19 44  1  0  0  0  0
 19 45  1  0  0  0  0
 20 25  1  0  0  0  0
 20 46  1  0  0  0  0
 20 47  1  0  0  0  0
 21 25  1  0  0  0  0
 21 48  1  0  0  0  0
 21 49  1  0  0  0  0
 22 23  1  0  0  0  0
 22 25  1  0  0  0  0
 22 50  1  0  0  0  0
 22 51  1  0  0  0  0
 23 26  1  0  0  0  0
 23 52  1  0  0  0  0
 23 53  1  0  0  0  0
 24 54  1  0  0  0  0
M  END
$$$$
