
  -OEChem-05262117483D

 31 32  0     1  0  0  0  0  0999 V2000
   -2.1555    1.9526   -3.3347 C   0  0  0  0  0  0  0  0  0  0  0  0
   -1.3035   -0.1465   -4.2195 C   0  0  0  0  0  0  0  0  0  0  0  0
   -3.3089    1.8132   -4.1113 C   0  0  0  0  0  0  0  0  0  0  0  0
   -2.4551   -0.2925   -4.9945 C   0  0  0  0  0  0  0  0  0  0  0  0
   -1.1725    0.9666   -3.3851 C   0  0  0  0  0  0  0  0  0  0  0  0
   -3.4492    0.6897   -4.9290 C   0  0  0  0  0  0  0  0  0  0  0  0
    1.2486   -0.5079   -0.4325 C   0  0  0  0  0  0  0  0  0  0  0  0
   -1.2266   -0.2183    1.1821 C   0  0  0  0  0  0  0  0  0  0  0  0
   -0.3881    0.7361    2.0529 C   0  0  0  0  0  0  0  0  0  0  0  0
   -1.3087    0.2322   -0.2877 C   0  0  0  0  0  0  0  0  0  0  0  0
    0.8557    1.2624    1.3228 C   0  0  0  0  0  0  0  0  0  0  0  0
   -0.0743   -0.1512   -1.1256 C   0  0  1  0  0  0  0  0  0  0  0  0
    1.6224    0.2004    0.6664 N   0  0  0  0  0  0  0  0  0  0  0  0
    1.9435   -1.4114   -0.9027 O   0  0  0  0  0  0  0  0  0  0  0  0
    0.1438    2.5278   -1.6639 O   0  0  0  0  0  0  0  0  0  0  0  0
    0.3301    1.2001   -2.3831 S   0  0  2  0  0  0  0  0  0  0  0  0
   -4.8960    0.5093   -5.9034 Cl  0  0  0  0  0  0  0  0  0  0  0  0
   -2.0044    2.8159   -2.6922 H   0  0  0  0  0  0  0  0  0  0  0  0
   -0.5201   -0.8994   -4.2730 H   0  0  0  0  0  0  0  0  0  0  0  0
   -4.0886    2.5680   -4.0848 H   0  0  0  0  0  0  0  0  0  0  0  0
   -2.5791   -1.1521   -5.6454 H   0  0  0  0  0  0  0  0  0  0  0  0
   -0.8165   -1.2331    1.2343 H   0  0  0  0  0  0  0  0  0  0  0  0
   -2.2394   -0.2799    1.5940 H   0  0  0  0  0  0  0  0  0  0  0  0
   -0.9942    1.6054    2.3368 H   0  0  0  0  0  0  0  0  0  0  0  0
   -0.1006    0.2291    2.9810 H   0  0  0  0  0  0  0  0  0  0  0  0
   -2.1824   -0.2174   -0.7667 H   0  0  0  0  0  0  0  0  0  0  0  0
   -1.4558    1.3174   -0.3230 H   0  0  0  0  0  0  0  0  0  0  0  0
    0.5784    2.0077    0.5745 H   0  0  0  0  0  0  0  0  0  0  0  0
    1.5291    1.7601    2.0250 H   0  0  0  0  0  0  0  0  0  0  0  0
   -0.2752   -1.0265   -1.7447 H   0  0  0  0  0  0  0  0  0  0  0  0
    2.4897   -0.1186    1.0825 H   0  0  0  0  0  0  0  0  0  0  0  0
  1  3  1  0  0  0  0
  1  5  2  0  0  0  0
  1 18  1  0  0  0  0
  2  4  2  0  0  0  0
  2  5  1  0  0  0  0
  2 19  1  0  0  0  0
  3  6  2  0  0  0  0
  3 20  1  0  0  0  0
  4  6  1  0  0  0  0
  4 21  1  0  0  0  0
  5 16  1  0  0  0  0
  6 17  1  0  0  0  0
  7 12  1  0  0  0  0
  7 13  1  0  0  0  0
  7 14  2  0  0  0  0
  8  9  1  0  0  0  0
  8 10  1  0  0  0  0
  8 22  1  0  0  0  0
  8 23  1  0  0  0  0
  9 11  1  0  0  0  0
  9 24  1  0  0  0  0
  9 25  1  0  0  0  0
 10 12  1  0  0  0  0
 10 26  1  0  0  0  0
 10 27  1  0  0  0  0
 11 13  1  0  0  0  0
 11 28  1  0  0  0  0
 11 29  1  0  0  0  0
 12 16  1  0  0  0  0
 12 30  1  0  0  0  0
 13 31  1  0  0  0  0
 15 16  2  0  0  0  0
M  END
$$$$
