
  -OEChem-05262117483D

 51 54  0     1  0  0  0  0  0999 V2000
    4.0523    3.0687   -2.0075 C   0  0  0  0  0  0  0  0  0  0  0  0
   -0.1497   -2.5222   -0.6378 C   0  0  0  0  0  0  0  0  0  0  0  0
    4.4619    2.3000   -3.0806 C   0  0  0  0  0  0  0  0  0  0  0  0
    2.7682    2.9120   -1.4376 C   0  0  0  0  0  0  0  0  0  0  0  0
    1.1298   -3.0228   -0.8710 C   0  0  0  0  0  0  0  0  0  0  0  0
    2.0363   -0.8401   -0.3587 C   0  0  0  0  0  0  0  0  0  0  0  0
    1.5470    0.0472   -3.5439 C   0  0  0  0  0  0  0  0  0  0  0  0
    2.3019    1.1287   -3.0141 C   0  0  0  0  0  0  0  0  0  0  0  0
   -0.3762   -1.1813   -0.2874 C   0  0  0  0  0  0  0  0  0  0  0  0
    0.7419   -0.3383   -0.1615 C   0  0  0  0  0  0  0  0  0  0  0  0
    3.5896    1.3146   -3.6034 C   0  0  0  0  0  0  0  0  0  0  0  0
    1.8873    1.9604   -1.9269 C   0  0  0  0  0  0  0  0  0  0  0  0
    2.2232   -2.1684   -0.7217 C   0  0  0  0  0  0  0  0  0  0  0  0
    3.1965   -0.4170   -5.0646 C   0  0  0  0  0  0  0  0  0  0  0  0
   -1.8927    0.8343    0.1246 C   0  0  0  0  0  0  0  0  0  0  0  0
    0.5976    1.1613    0.0026 C   0  0  2  0  0  0  0  0  0  0  0  0
   -1.8022   -0.7086    0.0162 C   0  0  0  0  0  0  0  0  0  0  0  0
   -0.6808    1.5080    0.7759 C   0  0  1  0  0  0  0  0  0  0  0  0
    3.6338   -1.2881   -6.2091 C   0  0  0  0  0  0  0  0  0  0  0  0
   -2.2603   -1.3692    1.3394 C   0  0  0  0  0  0  0  0  0  0  0  0
   -2.7771   -1.1282   -1.1063 C   0  0  0  0  0  0  0  0  0  0  0  0
   -0.9060    3.0402    0.8462 C   0  0  0  0  0  0  0  0  0  0  0  0
    1.9642   -0.7115   -4.5342 N   0  0  0  0  0  0  0  0  0  0  0  0
    4.0080    0.5341   -4.6459 N   0  0  0  0  0  0  0  0  0  0  0  0
    0.6095    1.8225   -1.3247 N   0  0  0  0  0  0  0  0  0  0  0  0
   -0.4310    1.0604    2.1045 O   0  0  0  0  0  0  0  0  0  0  0  0
   -1.8034    3.3113    1.8440 F   0  0  0  0  0  0  0  0  0  0  0  0
    0.2259    3.7109    1.1477 F   0  0  0  0  0  0  0  0  0  0  0  0
   -1.4187    3.5742   -0.2786 F   0  0  0  0  0  0  0  0  0  0  0  0
    3.8456   -2.7645   -1.0194 Cl  0  0  0  0  0  0  0  0  0  0  0  0
    4.7175    3.8260   -1.6007 H   0  0  0  0  0  0  0  0  0  0  0  0
   -0.9888   -3.2041   -0.7373 H   0  0  0  0  0  0  0  0  0  0  0  0
    5.4393    2.4198   -3.5369 H   0  0  0  0  0  0  0  0  0  0  0  0
    2.4506    3.5525   -0.6199 H   0  0  0  0  0  0  0  0  0  0  0  0
    1.2778   -4.0581   -1.1608 H   0  0  0  0  0  0  0  0  0  0  0  0
    2.8944   -0.1834   -0.2563 H   0  0  0  0  0  0  0  0  0  0  0  0
    0.5796   -0.2202   -3.1186 H   0  0  0  0  0  0  0  0  0  0  0  0
   -2.0122    1.2627   -0.8752 H   0  0  0  0  0  0  0  0  0  0  0  0
   -2.8043    1.1005    0.6714 H   0  0  0  0  0  0  0  0  0  0  0  0
    1.4390    1.5574    0.5711 H   0  0  0  0  0  0  0  0  0  0  0  0
    2.9004   -1.2394   -7.0206 H   0  0  0  0  0  0  0  0  0  0  0  0
    4.6115   -0.9748   -6.5765 H   0  0  0  0  0  0  0  0  0  0  0  0
    3.6810   -2.3328   -5.8840 H   0  0  0  0  0  0  0  0  0  0  0  0
   -3.2687   -1.0312    1.6065 H   0  0  0  0  0  0  0  0  0  0  0  0
   -1.5769   -1.1297    2.1560 H   0  0  0  0  0  0  0  0  0  0  0  0
   -2.2906   -2.4578    1.2357 H   0  0  0  0  0  0  0  0  0  0  0  0
   -3.7727   -0.7126   -0.9147 H   0  0  0  0  0  0  0  0  0  0  0  0
   -2.8846   -2.2140   -1.1710 H   0  0  0  0  0  0  0  0  0  0  0  0
   -2.4392   -0.7651   -2.0828 H   0  0  0  0  0  0  0  0  0  0  0  0
   -0.0293    1.3381   -1.9468 H   0  0  0  0  0  0  0  0  0  0  0  0
   -1.2163    1.2471    2.6451 H   0  0  0  0  0  0  0  0  0  0  0  0
  1  3  1  0  0  0  0
  1  4  2  0  0  0  0
  1 31  1  0  0  0  0
  2  5  2  0  0  0  0
  2  9  1  0  0  0  0
  2 32  1  0  0  0  0
  3 11  2  0  0  0  0
  3 33  1  0  0  0  0
  4 12  1  0  0  0  0
  4 34  1  0  0  0  0
  5 13  1  0  0  0  0
  5 35  1  0  0  0  0
  6 10  1  0  0  0  0
  6 13  2  0  0  0  0
  6 36  1  0  0  0  0
  7  8  1  0  0  0  0
  7 23  2  0  0  0  0
  7 37  1  0  0  0  0
  8 11  1  0  0  0  0
  8 12  2  0  0  0  0
  9 10  2  0  0  0  0
  9 17  1  0  0  0  0
 10 16  1  0  0  0  0
 11 24  1  0  0  0  0
 12 25  1  0  0  0  0
 13 30  1  0  0  0  0
 14 19  1  0  0  0  0
 14 23  1  0  0  0  0
 14 24  2  0  0  0  0
 15 17  1  0  0  0  0
 15 18  1  0  0  0  0
 15 38  1  0  0  0  0
 15 39  1  0  0  0  0
 16 18  1  0  0  0  0
 16 25  1  0  0  0  0
 16 40  1  0  0  0  0
 17 20  1  0  0  0  0
 17 21  1  0  0  0  0
 18 22  1  0  0  0  0
 18 26  1  0  0  0  0
 19 41  1  0  0  0  0
 19 42  1  0  0  0  0
 19 43  1  0  0  0  0
 20 44  1  0  0  0  0
 20 45  1  0  0  0  0
 20 46  1  0  0  0  0
 21 47  1  0  0  0  0
 21 48  1  0  0  0  0
 21 49  1  0  0  0  0
 22 27  1  0  0  0  0
 22 28  1  0  0  0  0
 22 29  1  0  0  0  0
 25 50  1  0  0  0  0
 26 51  1  0  0  0  0
M  END
$$$$
