
  -OEChem-05262117483D

 48 50  0     0  0  0  0  0  0999 V2000
   -9.6728    7.2308   -3.9363 C   0  0  0  0  0  0  0  0  0  0  0  0
   -8.3675    7.7118   -3.6487 C   0  0  0  0  0  0  0  0  0  0  0  0
   -3.2230   -0.2896   -0.0204 C   0  0  0  0  0  0  0  0  0  0  0  0
   -9.9936    5.9104   -3.7018 C   0  0  0  0  0  0  0  0  0  0  0  0
   -9.2859    3.6495   -2.9054 C   0  0  0  0  0  0  0  0  0  0  0  0
   -7.4054    6.8686   -3.1332 C   0  0  0  0  0  0  0  0  0  0  0  0
   -3.6795   -1.5949    0.1449 C   0  0  0  0  0  0  0  0  0  0  0  0
   -4.0520    0.7114   -0.5393 C   0  0  0  0  0  0  0  0  0  0  0  0
   -8.2902    2.8499   -2.3903 C   0  0  0  0  0  0  0  0  0  0  0  0
   -5.8590   -0.9171   -0.6907 C   0  0  0  0  0  0  0  0  0  0  0  0
   -9.0231    5.0179   -3.1709 C   0  0  0  0  0  0  0  0  0  0  0  0
   -7.7073    5.5024   -2.8815 C   0  0  0  0  0  0  0  0  0  0  0  0
   -5.0094   -1.9054   -0.1904 C   0  0  0  0  0  0  0  0  0  0  0  0
   -5.3728    0.3847   -0.8783 C   0  0  0  0  0  0  0  0  0  0  0  0
   -7.0175    3.4296   -2.1398 C   0  0  0  0  0  0  0  0  0  0  0  0
   -5.5795   -5.2390   -6.3363 C   0  0  0  0  0  0  0  0  0  0  0  0
   -5.8686    2.6232   -1.5736 C   0  0  0  0  0  0  0  0  0  0  0  0
   -4.9465   -4.5808   -5.1055 C   0  0  0  0  0  0  0  0  0  0  0  0
   -5.8582   -4.6542   -3.8727 C   0  0  0  0  0  0  0  0  0  0  0  0
   -5.2111   -3.9871   -2.6587 C   0  0  0  0  0  0  0  0  0  0  0  0
   -6.7303    4.6974   -2.3721 N   0  0  0  0  0  0  0  0  0  0  0  0
   -5.4837   -3.2313    0.0152 N   0  0  0  0  0  0  0  0  0  0  0  0
   -6.3146   -5.4752   -0.7226 O   0  0  0  0  0  0  0  0  0  0  0  0
   -7.5329   -3.3744   -1.5202 O   0  0  0  0  0  0  0  0  0  0  0  0
   -6.2792    1.2716   -1.3890 O   0  0  0  0  0  0  0  0  0  0  0  0
   -6.2974   -4.0921   -1.2060 S   0  0  0  0  0  0  0  0  0  0  0  0
  -10.4178    7.9100   -4.3421 H   0  0  0  0  0  0  0  0  0  0  0  0
   -8.1290    8.7552   -3.8382 H   0  0  0  0  0  0  0  0  0  0  0  0
   -2.1985   -0.0440    0.2456 H   0  0  0  0  0  0  0  0  0  0  0  0
  -10.9917    5.5368   -3.9198 H   0  0  0  0  0  0  0  0  0  0  0  0
  -10.2737    3.2424   -3.1108 H   0  0  0  0  0  0  0  0  0  0  0  0
   -6.4023    7.2181   -2.9070 H   0  0  0  0  0  0  0  0  0  0  0  0
   -3.0177   -2.3663    0.5313 H   0  0  0  0  0  0  0  0  0  0  0  0
   -3.6662    1.7155   -0.6667 H   0  0  0  0  0  0  0  0  0  0  0  0
   -8.4528    1.8008   -2.1740 H   0  0  0  0  0  0  0  0  0  0  0  0
   -6.8914   -1.1421   -0.9317 H   0  0  0  0  0  0  0  0  0  0  0  0
   -6.5237   -4.7512   -6.6027 H   0  0  0  0  0  0  0  0  0  0  0  0
   -4.9141   -5.1773   -7.2036 H   0  0  0  0  0  0  0  0  0  0  0  0
   -5.7928   -6.2978   -6.1520 H   0  0  0  0  0  0  0  0  0  0  0  0
   -5.0192    2.6774   -2.2659 H   0  0  0  0  0  0  0  0  0  0  0  0
   -5.5569    3.0638   -0.6182 H   0  0  0  0  0  0  0  0  0  0  0  0
   -3.9883   -5.0666   -4.8810 H   0  0  0  0  0  0  0  0  0  0  0  0
   -4.7172   -3.5306   -5.3272 H   0  0  0  0  0  0  0  0  0  0  0  0
   -6.0799   -5.7009   -3.6383 H   0  0  0  0  0  0  0  0  0  0  0  0
   -6.8127   -4.1622   -4.0859 H   0  0  0  0  0  0  0  0  0  0  0  0
   -4.2759   -4.4756   -2.3701 H   0  0  0  0  0  0  0  0  0  0  0  0
   -5.0271   -2.9224   -2.8267 H   0  0  0  0  0  0  0  0  0  0  0  0
   -4.8303   -3.8517    0.4873 H   0  0  0  0  0  0  0  0  0  0  0  0
  1  2  1  0  0  0  0
  1  4  2  0  0  0  0
  1 27  1  0  0  0  0
  2  6  2  0  0  0  0
  2 28  1  0  0  0  0
  3  7  1  0  0  0  0
  3  8  2  0  0  0  0
  3 29  1  0  0  0  0
  4 11  1  0  0  0  0
  4 30  1  0  0  0  0
  5  9  1  0  0  0  0
  5 11  2  0  0  0  0
  5 31  1  0  0  0  0
  6 12  1  0  0  0  0
  6 32  1  0  0  0  0
  7 13  2  0  0  0  0
  7 33  1  0  0  0  0
  8 14  1  0  0  0  0
  8 34  1  0  0  0  0
  9 15  2  0  0  0  0
  9 35  1  0  0  0  0
 10 13  1  0  0  0  0
 10 14  2  0  0  0  0
 10 36  1  0  0  0  0
 11 12  1  0  0  0  0
 12 21  2  0  0  0  0
 13 22  1  0  0  0  0
 14 25  1  0  0  0  0
 15 17  1  0  0  0  0
 15 21  1  0  0  0  0
 16 18  1  0  0  0  0
 16 37  1  0  0  0  0
 16 38  1  0  0  0  0
 16 39  1  0  0  0  0
 17 25  1  0  0  0  0
 17 40  1  0  0  0  0
 17 41  1  0  0  0  0
 18 19  1  0  0  0  0
 18 42  1  0  0  0  0
 18 43  1  0  0  0  0
 19 20  1  0  0  0  0
 19 44  1  0  0  0  0
 19 45  1  0  0  0  0
 20 26  1  0  0  0  0
 20 46  1  0  0  0  0
 20 47  1  0  0  0  0
 22 26  1  0  0  0  0
 22 48  1  0  0  0  0
 23 26  2  0  0  0  0
 24 26  2  0  0  0  0
M  END
$$$$
