55
1 1 C23ClH28N2O
C                     0.007288098426   -10.172149943338     4.518485289995
C                    -0.450657123552    -9.657587146698     5.753253322550
C                    -0.058490814362    -9.395402328842     3.379129840020
C                    -0.943516590039    -8.371449172915     5.828072190795
C                    -0.723491669815    -8.117476201100    -2.534405978453
C                     1.388366565216    -8.328654611888    -1.398826266086
C                    -1.156658973252    -5.970047282522     2.328140067881
C                    -0.214733380956    -8.823111219866    -3.635423042233
C                     1.910631446197    -9.030950321368    -2.479653054945
C                    -1.544474397999    -5.431563257619     3.577550624359
C                    -0.586887806153    -8.076527732982     3.412278056132
C                    -1.018611503576    -7.545679296012     4.674105306059
C                     0.063361805918    -7.856713954464    -1.412353686624
C                    -0.690595215052    -7.270470956034     2.223891771080
C                     1.104587385378    -9.273208627390    -3.598244596609
C                    -1.492228054643    -6.199301677730     4.714897285892
C                     0.114770387665   -10.775273255571   -10.163488301961
C                     3.507557074385   -11.846680240279    -9.294179163526
C                    -0.478431111165    -7.078545726704    -0.234048587275
C                     0.857977247686   -10.258581605471    -8.939772066657
C                     2.222103178567   -12.410963199399    -8.708128129420
C                     1.995275351917   -10.824499489334    -6.765840222960
C                     0.996655232008   -10.142125042250    -5.828613031072
N                    -0.277130814325    -7.827299692127     1.000518273272
N                     1.344373920525   -11.368378306563    -8.018042601982
O                     1.711645442387    -9.989370547241    -4.627328644187
Cl                   -2.019575381102    -5.490209131488     6.236116726780
H                     0.422690425474   -11.175140225615     4.470061140713
H                    -0.400985984049   -10.272126107849     6.647912123751
H                     0.335527197015    -9.794403194545     2.449588343855
H                    -1.277657247510    -7.972695104879     6.779354927369
H                    -1.753831248535    -7.771773942344    -2.562333734380
H                     2.007917966991    -8.141496660672    -0.526405062934
H                    -1.251045613516    -5.339626300375     1.451635484658
H                    -0.862945274467    -9.012000194406    -4.484912636717
H                     2.934621184145    -9.392914635024    -2.475411091047
H                    -1.905180026618    -4.409317290875     3.630088417356
H                     0.767471825923   -11.294862182650   -10.867707861648
H                    -0.713086484780   -11.437810632355    -9.889545150609
H                    -0.315474053075    -9.918134388632   -10.687838882000
H                     3.322500073114   -11.118079809004   -10.086844560813
H                     4.151300484402   -11.395086107932    -8.536203766613
H                     4.062823330095   -12.676202671536    -9.739862344095
H                     0.065145667587    -6.130340674204    -0.147991228058
H                    -1.535792187504    -6.823563513404    -0.409240825737
H                     0.205991405186    -9.630187483168    -8.332453273453
H                     1.736769580409    -9.670996158542    -9.207716904366
H                     2.430521311064   -13.165841581394    -7.947031550067
H                     1.602644446304   -12.873724045121    -9.476747984135
H                     2.447193774643   -11.667608825939    -6.240451090310
H                     2.783229108782   -10.135149163670    -7.067936956613
H                     0.669335742868    -9.169578515406    -6.216875975694
H                     0.104712607470   -10.775973933824    -5.687614615264
H                    -0.558330953775    -8.796612205365     0.898020425890
H                     0.507078638058   -11.877737661357    -7.714714621130
