
  -OEChem-05262117483D

 54 56  0     0  0  0  0  0  0999 V2000
   -1.5972  -10.3240    2.8236 C   0  0  0  0  0  0  0  0  0  0  0  0
   -2.4673  -10.1173    3.9186 C   0  0  0  0  0  0  0  0  0  0  0  0
   -1.3579   -9.2988    1.9304 C   0  0  0  0  0  0  0  0  0  0  0  0
   -3.0617   -8.8871    4.1090 C   0  0  0  0  0  0  0  0  0  0  0  0
   -0.4451   -6.9615   -3.4244 C   0  0  0  0  0  0  0  0  0  0  0  0
    1.4205   -7.0346   -1.9090 C   0  0  0  0  0  0  0  0  0  0  0  0
   -2.3299   -5.7217    1.3660 C   0  0  0  0  0  0  0  0  0  0  0  0
    0.3556   -7.4700   -4.4568 C   0  0  0  0  0  0  0  0  0  0  0  0
    2.2295   -7.5415   -2.9186 C   0  0  0  0  0  0  0  0  0  0  0  0
   -3.1440   -5.5002    2.4997 C   0  0  0  0  0  0  0  0  0  0  0  0
   -1.9734   -8.0268    2.0773 C   0  0  0  0  0  0  0  0  0  0  0  0
   -2.8299   -7.8113    3.2096 C   0  0  0  0  0  0  0  0  0  0  0  0
    0.0669   -6.7331   -2.1462 C   0  0  0  0  0  0  0  0  0  0  0  0
   -1.7507   -6.9617    1.1300 C   0  0  0  0  0  0  0  0  0  0  0  0
    1.7015   -7.7623   -4.2035 C   0  0  0  0  0  0  0  0  0  0  0  0
   -3.4003   -6.5158    3.3883 C   0  0  0  0  0  0  0  0  0  0  0  0
    4.9583  -10.4561   -9.4843 C   0  0  0  0  0  0  0  0  0  0  0  0
    2.3851   -8.0833  -10.8319 C   0  0  0  0  0  0  0  0  0  0  0  0
   -0.8037   -6.1998   -1.0335 C   0  0  0  0  0  0  0  0  0  0  0  0
    3.4350  -10.4529   -9.2692 C   0  0  0  0  0  0  0  0  0  0  0  0
    3.0428   -8.0208   -9.4532 C   0  0  0  0  0  0  0  0  0  0  0  0
    3.2598   -9.0537   -7.2675 C   0  0  0  0  0  0  0  0  0  0  0  0
    2.0934   -8.4986   -6.4548 C   0  0  0  0  0  0  0  0  0  0  0  0
   -0.9287   -7.1970    0.0289 N   0  0  0  0  0  0  0  0  0  0  0  0
    2.8610   -9.2451   -8.6631 N   0  0  0  0  0  0  0  0  0  0  0  0
    2.5751   -8.2595   -5.1289 O   0  0  0  0  0  0  0  0  0  0  0  0
   -4.4521   -6.1887    4.7664 Cl  0  0  0  0  0  0  0  0  0  0  0  0
   -1.1078  -11.2852    2.6918 H   0  0  0  0  0  0  0  0  0  0  0  0
   -2.6577  -10.9259    4.6194 H   0  0  0  0  0  0  0  0  0  0  0  0
   -0.6561   -9.4686    1.1198 H   0  0  0  0  0  0  0  0  0  0  0  0
   -3.7155   -8.7257    4.9589 H   0  0  0  0  0  0  0  0  0  0  0  0
   -1.4903   -6.7413   -3.6308 H   0  0  0  0  0  0  0  0  0  0  0  0
    1.8365   -6.8714   -0.9178 H   0  0  0  0  0  0  0  0  0  0  0  0
   -2.1799   -4.9010    0.6747 H   0  0  0  0  0  0  0  0  0  0  0  0
   -0.0794   -7.6334   -5.4360 H   0  0  0  0  0  0  0  0  0  0  0  0
    3.2759   -7.7724   -2.7409 H   0  0  0  0  0  0  0  0  0  0  0  0
   -3.5850   -4.5207    2.6561 H   0  0  0  0  0  0  0  0  0  0  0  0
    5.2724   -9.6798  -10.1893 H   0  0  0  0  0  0  0  0  0  0  0  0
    5.4976  -10.2953   -8.5447 H   0  0  0  0  0  0  0  0  0  0  0  0
    5.2777  -11.4216   -9.8920 H   0  0  0  0  0  0  0  0  0  0  0  0
    2.8862   -8.7913  -11.4989 H   0  0  0  0  0  0  0  0  0  0  0  0
    1.3354   -8.3809  -10.7429 H   0  0  0  0  0  0  0  0  0  0  0  0
    2.4275   -7.0990  -11.3099 H   0  0  0  0  0  0  0  0  0  0  0  0
   -0.3530   -5.2977   -0.6025 H   0  0  0  0  0  0  0  0  0  0  0  0
   -1.7860   -5.9066   -1.4359 H   0  0  0  0  0  0  0  0  0  0  0  0
    3.1572  -11.2969   -8.6283 H   0  0  0  0  0  0  0  0  0  0  0  0
    2.9321  -10.6268  -10.2255 H   0  0  0  0  0  0  0  0  0  0  0  0
    2.5872   -7.1996   -8.8905 H   0  0  0  0  0  0  0  0  0  0  0  0
    4.1106   -7.7572   -9.5625 H   0  0  0  0  0  0  0  0  0  0  0  0
    4.1288   -8.3848   -7.1565 H   0  0  0  0  0  0  0  0  0  0  0  0
    3.5477  -10.0160   -6.8340 H   0  0  0  0  0  0  0  0  0  0  0  0
    1.2723   -9.2252   -6.4411 H   0  0  0  0  0  0  0  0  0  0  0  0
    1.7191   -7.5637   -6.8900 H   0  0  0  0  0  0  0  0  0  0  0  0
   -0.9852   -8.1384   -0.3401 H   0  0  0  0  0  0  0  0  0  0  0  0
  1  2  1  0  0  0  0
  1  3  2  0  0  0  0
  1 28  1  0  0  0  0
  2  4  2  0  0  0  0
  2 29  1  0  0  0  0
  3 11  1  0  0  0  0
  3 30  1  0  0  0  0
  4 12  1  0  0  0  0
  4 31  1  0  0  0  0
  5  8  2  0  0  0  0
  5 13  1  0  0  0  0
  5 32  1  0  0  0  0
  6  9  1  0  0  0  0
  6 13  2  0  0  0  0
  6 33  1  0  0  0  0
  7 10  2  0  0  0  0
  7 14  1  0  0  0  0
  7 34  1  0  0  0  0
  8 15  1  0  0  0  0
  8 35  1  0  0  0  0
  9 15  2  0  0  0  0
  9 36  1  0  0  0  0
 10 16  1  0  0  0  0
 10 37  1  0  0  0  0
 11 12  1  0  0  0  0
 11 14  2  0  0  0  0
 12 16  2  0  0  0  0
 13 19  1  0  0  0  0
 14 24  1  0  0  0  0
 15 26  1  0  0  0  0
 16 27  1  0  0  0  0
 17 20  1  0  0  0  0
 17 38  1  0  0  0  0
 17 39  1  0  0  0  0
 17 40  1  0  0  0  0
 18 21  1  0  0  0  0
 18 41  1  0  0  0  0
 18 42  1  0  0  0  0
 18 43  1  0  0  0  0
 19 24  1  0  0  0  0
 19 44  1  0  0  0  0
 19 45  1  0  0  0  0
 20 25  1  0  0  0  0
 20 46  1  0  0  0  0
 20 47  1  0  0  0  0
 21 25  1  0  0  0  0
 21 48  1  0  0  0  0
 21 49  1  0  0  0  0
 22 23  1  0  0  0  0
 22 25  1  0  0  0  0
 22 50  1  0  0  0  0
 22 51  1  0  0  0  0
 23 26  1  0  0  0  0
 23 52  1  0  0  0  0
 23 53  1  0  0  0  0
 24 54  1  0  0  0  0
M  END
$$$$
