31
0 1 C12ClH14NO2S
C                    -3.407424770846     2.303026428735    -1.406024658391
C                    -1.474786781246     3.776195234784    -1.352787552419
C                    -3.814508924278     2.880537532221    -2.607748823288
C                    -1.869275553961     4.349796665910    -2.565207981567
C                    -2.230428115068     2.741224482328    -0.799466403966
C                    -3.035254152826     3.890697805863    -3.180511434451
C                    -0.998682621029    -0.331552292980    -0.535551975689
C                     2.075430586033     0.715737011718     0.041025034769
C                     2.138221674329    -0.726784898350    -0.479311789046
C                     0.770779358118     1.476403052492    -0.248036106230
C                     1.064032386975    -1.660740235170     0.100904870516
C                    -0.472692041437     0.799014169122     0.349688862898
N                    -0.267264702115    -1.489117916131    -0.482493165394
O                    -1.979477888148    -0.224704137959    -1.263225865294
O                    -2.970161715175     1.287855164415     1.349156311940
S                    -1.776932299746     2.056284922800     0.824784543645
Cl                   -3.543399659767     4.613335558288    -4.698330821800
H                    -3.980596949295     1.512059896673    -0.934217030826
H                    -0.587074949674     4.150281098590    -0.849460182814
H                    -4.722622590529     2.548220424710    -3.100714067008
H                    -1.291160235936     5.150765091763    -3.014765480167
H                     2.239505573314     0.705851155906     1.126939904842
H                     2.907784697462     1.283908772448    -0.389860419494
H                     2.062928573343    -0.741607062061    -1.573540832156
H                     3.121471064264    -1.139596590738    -0.223252287364
H                     0.870448721558     2.480103247165     0.183131235441
H                     0.626721467225     1.609005939558    -1.325202105354
H                     1.345302652988    -2.700505259070    -0.082869569241
H                     1.012580349196    -1.545305761856     1.190896865785
H                    -0.229684610988     0.396211704920     1.340103672106
H                    -0.583197631209    -2.183330279672    -1.150993607327
