
  -OEChem-05262117483D

 48 50  0     0  0  0  0  0  0999 V2000
  -11.2131    5.5756   -5.1359 C   0  0  0  0  0  0  0  0  0  0  0  0
  -11.9107    4.3414   -5.0442 C   0  0  0  0  0  0  0  0  0  0  0  0
   -3.6987   -0.6015   -0.1568 C   0  0  0  0  0  0  0  0  0  0  0  0
   -9.9356    5.6908   -4.6297 C   0  0  0  0  0  0  0  0  0  0  0  0
   -7.9944    4.6256   -3.4695 C   0  0  0  0  0  0  0  0  0  0  0  0
  -11.3230    3.2442   -4.4500 C   0  0  0  0  0  0  0  0  0  0  0  0
   -4.2590   -1.8720    0.0227 C   0  0  0  0  0  0  0  0  0  0  0  0
   -4.4213    0.4189   -0.7665 C   0  0  0  0  0  0  0  0  0  0  0  0
   -7.4548    3.5012   -2.8858 C   0  0  0  0  0  0  0  0  0  0  0  0
   -6.3289   -1.0788   -0.9905 C   0  0  0  0  0  0  0  0  0  0  0  0
   -9.3044    4.5773   -4.0115 C   0  0  0  0  0  0  0  0  0  0  0  0
  -10.0072    3.3334   -3.9192 C   0  0  0  0  0  0  0  0  0  0  0  0
   -5.5750   -2.1016   -0.3926 C   0  0  0  0  0  0  0  0  0  0  0  0
   -5.7392    0.1742   -1.1885 C   0  0  0  0  0  0  0  0  0  0  0  0
   -8.2366    2.3150   -2.8458 C   0  0  0  0  0  0  0  0  0  0  0  0
   -5.5395   -5.7069   -6.3936 C   0  0  0  0  0  0  0  0  0  0  0  0
   -7.7243    1.0380   -2.2161 C   0  0  0  0  0  0  0  0  0  0  0  0
   -5.0377   -5.0258   -5.1157 C   0  0  0  0  0  0  0  0  0  0  0  0
   -6.1126   -4.9781   -4.0210 C   0  0  0  0  0  0  0  0  0  0  0  0
   -5.5918   -4.2917   -2.7581 C   0  0  0  0  0  0  0  0  0  0  0  0
   -9.4582    2.2274   -3.3388 N   0  0  0  0  0  0  0  0  0  0  0  0
   -6.1678   -3.3801   -0.1809 N   0  0  0  0  0  0  0  0  0  0  0  0
   -7.0629   -5.5975   -0.9381 O   0  0  0  0  0  0  0  0  0  0  0  0
   -7.9919   -3.4561   -1.9811 O   0  0  0  0  0  0  0  0  0  0  0  0
   -6.3805    1.2290   -1.7737 O   0  0  0  0  0  0  0  0  0  0  0  0
   -6.8708   -4.2455   -1.4686 S   0  0  0  0  0  0  0  0  0  0  0  0
  -11.6927    6.4292   -5.6075 H   0  0  0  0  0  0  0  0  0  0  0  0
  -12.9173    4.2656   -5.4472 H   0  0  0  0  0  0  0  0  0  0  0  0
   -2.6801   -0.4145    0.1721 H   0  0  0  0  0  0  0  0  0  0  0  0
   -9.3971    6.6336   -4.6971 H   0  0  0  0  0  0  0  0  0  0  0  0
   -7.4267    5.5525   -3.5191 H   0  0  0  0  0  0  0  0  0  0  0  0
  -11.8400    2.2925   -4.3700 H   0  0  0  0  0  0  0  0  0  0  0  0
   -3.6804   -2.6712    0.4795 H   0  0  0  0  0  0  0  0  0  0  0  0
   -3.9934    1.4045   -0.9212 H   0  0  0  0  0  0  0  0  0  0  0  0
   -6.4582    3.4994   -2.4609 H   0  0  0  0  0  0  0  0  0  0  0  0
   -7.3497   -1.2865   -1.2810 H   0  0  0  0  0  0  0  0  0  0  0  0
   -6.4032   -5.1768   -6.8101 H   0  0  0  0  0  0  0  0  0  0  0  0
   -4.7590   -5.7310   -7.1611 H   0  0  0  0  0  0  0  0  0  0  0  0
   -5.8471   -6.7397   -6.1957 H   0  0  0  0  0  0  0  0  0  0  0  0
   -8.3702    0.7689   -1.3713 H   0  0  0  0  0  0  0  0  0  0  0  0
   -7.7767    0.2266   -2.9518 H   0  0  0  0  0  0  0  0  0  0  0  0
   -4.1548   -5.5577   -4.7382 H   0  0  0  0  0  0  0  0  0  0  0  0
   -4.7086   -4.0048   -5.3479 H   0  0  0  0  0  0  0  0  0  0  0  0
   -6.4367   -5.9952   -3.7755 H   0  0  0  0  0  0  0  0  0  0  0  0
   -6.9923   -4.4385   -4.3863 H   0  0  0  0  0  0  0  0  0  0  0  0
   -4.7427   -4.8247   -2.3205 H   0  0  0  0  0  0  0  0  0  0  0  0
   -5.3085   -3.2521   -2.9444 H   0  0  0  0  0  0  0  0  0  0  0  0
   -5.6134   -4.0169    0.3870 H   0  0  0  0  0  0  0  0  0  0  0  0
  1  2  1  0  0  0  0
  1  4  2  0  0  0  0
  1 27  1  0  0  0  0
  2  6  2  0  0  0  0
  2 28  1  0  0  0  0
  3  7  1  0  0  0  0
  3  8  2  0  0  0  0
  3 29  1  0  0  0  0
  4 11  1  0  0  0  0
  4 30  1  0  0  0  0
  5  9  1  0  0  0  0
  5 11  2  0  0  0  0
  5 31  1  0  0  0  0
  6 12  1  0  0  0  0
  6 32  1  0  0  0  0
  7 13  2  0  0  0  0
  7 33  1  0  0  0  0
  8 14  1  0  0  0  0
  8 34  1  0  0  0  0
  9 15  2  0  0  0  0
  9 35  1  0  0  0  0
 10 13  1  0  0  0  0
 10 14  2  0  0  0  0
 10 36  1  0  0  0  0
 11 12  1  0  0  0  0
 12 21  2  0  0  0  0
 13 22  1  0  0  0  0
 14 25  1  0  0  0  0
 15 17  1  0  0  0  0
 15 21  1  0  0  0  0
 16 18  1  0  0  0  0
 16 37  1  0  0  0  0
 16 38  1  0  0  0  0
 16 39  1  0  0  0  0
 17 25  1  0  0  0  0
 17 40  1  0  0  0  0
 17 41  1  0  0  0  0
 18 19  1  0  0  0  0
 18 42  1  0  0  0  0
 18 43  1  0  0  0  0
 19 20  1  0  0  0  0
 19 44  1  0  0  0  0
 19 45  1  0  0  0  0
 20 26  1  0  0  0  0
 20 46  1  0  0  0  0
 20 47  1  0  0  0  0
 22 26  1  0  0  0  0
 22 48  1  0  0  0  0
 23 26  2  0  0  0  0
 24 26  2  0  0  0  0
M  END
$$$$
