
  -OEChem-05262117483D

 55 57  0     0  0  0  0  0  0999 V2000
    0.0073  -10.1721    4.5185 C   0  0  0  0  0  0  0  0  0  0  0  0
   -0.4507   -9.6576    5.7533 C   0  0  0  0  0  0  0  0  0  0  0  0
   -0.0585   -9.3954    3.3791 C   0  0  0  0  0  0  0  0  0  0  0  0
   -0.9435   -8.3714    5.8281 C   0  0  0  0  0  0  0  0  0  0  0  0
   -0.7235   -8.1175   -2.5344 C   0  0  0  0  0  0  0  0  0  0  0  0
    1.3884   -8.3287   -1.3988 C   0  0  0  0  0  0  0  0  0  0  0  0
   -1.1567   -5.9700    2.3281 C   0  0  0  0  0  0  0  0  0  0  0  0
   -0.2147   -8.8231   -3.6354 C   0  0  0  0  0  0  0  0  0  0  0  0
    1.9106   -9.0310   -2.4797 C   0  0  0  0  0  0  0  0  0  0  0  0
   -1.5445   -5.4316    3.5776 C   0  0  0  0  0  0  0  0  0  0  0  0
   -0.5869   -8.0765    3.4123 C   0  0  0  0  0  0  0  0  0  0  0  0
   -1.0186   -7.5457    4.6741 C   0  0  0  0  0  0  0  0  0  0  0  0
    0.0634   -7.8567   -1.4124 C   0  0  0  0  0  0  0  0  0  0  0  0
   -0.6906   -7.2705    2.2239 C   0  0  0  0  0  0  0  0  0  0  0  0
    1.1046   -9.2732   -3.5982 C   0  0  0  0  0  0  0  0  0  0  0  0
   -1.4922   -6.1993    4.7149 C   0  0  0  0  0  0  0  0  0  0  0  0
    0.1148  -10.7753  -10.1635 C   0  0  0  0  0  0  0  0  0  0  0  0
    3.5076  -11.8467   -9.2942 C   0  0  0  0  0  0  0  0  0  0  0  0
   -0.4784   -7.0785   -0.2340 C   0  0  0  0  0  0  0  0  0  0  0  0
    0.8580  -10.2586   -8.9398 C   0  0  0  0  0  0  0  0  0  0  0  0
    2.2221  -12.4110   -8.7081 C   0  0  0  0  0  0  0  0  0  0  0  0
    1.9953  -10.8245   -6.7658 C   0  0  0  0  0  0  0  0  0  0  0  0
    0.9967  -10.1421   -5.8286 C   0  0  0  0  0  0  0  0  0  0  0  0
   -0.2771   -7.8273    1.0005 N   0  0  0  0  0  0  0  0  0  0  0  0
    1.3444  -11.3684   -8.0180 N   0  3  0  0  0  0  0  0  0  0  0  0
    1.7116   -9.9894   -4.6273 O   0  0  0  0  0  0  0  0  0  0  0  0
   -2.0196   -5.4902    6.2361 Cl  0  0  0  0  0  0  0  0  0  0  0  0
    0.4227  -11.1751    4.4701 H   0  0  0  0  0  0  0  0  0  0  0  0
   -0.4010  -10.2721    6.6479 H   0  0  0  0  0  0  0  0  0  0  0  0
    0.3355   -9.7944    2.4496 H   0  0  0  0  0  0  0  0  0  0  0  0
   -1.2777   -7.9727    6.7794 H   0  0  0  0  0  0  0  0  0  0  0  0
   -1.7538   -7.7718   -2.5623 H   0  0  0  0  0  0  0  0  0  0  0  0
    2.0079   -8.1415   -0.5264 H   0  0  0  0  0  0  0  0  0  0  0  0
   -1.2510   -5.3396    1.4516 H   0  0  0  0  0  0  0  0  0  0  0  0
   -0.8629   -9.0120   -4.4849 H   0  0  0  0  0  0  0  0  0  0  0  0
    2.9346   -9.3929   -2.4754 H   0  0  0  0  0  0  0  0  0  0  0  0
   -1.9052   -4.4093    3.6301 H   0  0  0  0  0  0  0  0  0  0  0  0
    0.7675  -11.2949  -10.8677 H   0  0  0  0  0  0  0  0  0  0  0  0
   -0.7131  -11.4378   -9.8895 H   0  0  0  0  0  0  0  0  0  0  0  0
   -0.3155   -9.9181  -10.6878 H   0  0  0  0  0  0  0  0  0  0  0  0
    3.3225  -11.1181  -10.0868 H   0  0  0  0  0  0  0  0  0  0  0  0
    4.1513  -11.3951   -8.5362 H   0  0  0  0  0  0  0  0  0  0  0  0
    4.0628  -12.6762   -9.7399 H   0  0  0  0  0  0  0  0  0  0  0  0
    0.0651   -6.1303   -0.1480 H   0  0  0  0  0  0  0  0  0  0  0  0
   -1.5358   -6.8236   -0.4092 H   0  0  0  0  0  0  0  0  0  0  0  0
    0.2060   -9.6302   -8.3325 H   0  0  0  0  0  0  0  0  0  0  0  0
    1.7368   -9.6710   -9.2077 H   0  0  0  0  0  0  0  0  0  0  0  0
    2.4305  -13.1658   -7.9470 H   0  0  0  0  0  0  0  0  0  0  0  0
    1.6026  -12.8737   -9.4767 H   0  0  0  0  0  0  0  0  0  0  0  0
    2.4472  -11.6676   -6.2405 H   0  0  0  0  0  0  0  0  0  0  0  0
    2.7832  -10.1351   -7.0679 H   0  0  0  0  0  0  0  0  0  0  0  0
    0.6693   -9.1696   -6.2169 H   0  0  0  0  0  0  0  0  0  0  0  0
    0.1047  -10.7760   -5.6876 H   0  0  0  0  0  0  0  0  0  0  0  0
   -0.5583   -8.7966    0.8980 H   0  0  0  0  0  0  0  0  0  0  0  0
    0.5071  -11.8777   -7.7147 H   0  0  0  0  0  0  0  0  0  0  0  0
  1  2  1  0  0  0  0
  1  3  2  0  0  0  0
  1 28  1  0  0  0  0
  2  4  2  0  0  0  0
  2 29  1  0  0  0  0
  3 11  1  0  0  0  0
  3 30  1  0  0  0  0
  4 12  1  0  0  0  0
  4 31  1  0  0  0  0
  5  8  2  0  0  0  0
  5 13  1  0  0  0  0
  5 32  1  0  0  0  0
  6  9  1  0  0  0  0
  6 13  2  0  0  0  0
  6 33  1  0  0  0  0
  7 10  2  0  0  0  0
  7 14  1  0  0  0  0
  7 34  1  0  0  0  0
  8 15  1  0  0  0  0
  8 35  1  0  0  0  0
  9 15  2  0  0  0  0
  9 36  1  0  0  0  0
 10 16  1  0  0  0  0
 10 37  1  0  0  0  0
 11 12  1  0  0  0  0
 11 14  2  0  0  0  0
 12 16  2  0  0  0  0
 13 19  1  0  0  0  0
 14 24  1  0  0  0  0
 15 26  1  0  0  0  0
 16 27  1  0  0  0  0
 17 20  1  0  0  0  0
 17 38  1  0  0  0  0
 17 39  1  0  0  0  0
 17 40  1  0  0  0  0
 18 21  1  0  0  0  0
 18 41  1  0  0  0  0
 18 42  1  0  0  0  0
 18 43  1  0  0  0  0
 19 24  1  0  0  0  0
 19 44  1  0  0  0  0
 19 45  1  0  0  0  0
 20 25  1  0  0  0  0
 20 46  1  0  0  0  0
 20 47  1  0  0  0  0
 21 25  1  0  0  0  0
 21 48  1  0  0  0  0
 21 49  1  0  0  0  0
 22 23  1  0  0  0  0
 22 25  1  0  0  0  0
 22 50  1  0  0  0  0
 22 51  1  0  0  0  0
 23 26  1  0  0  0  0
 23 52  1  0  0  0  0
 23 53  1  0  0  0  0
 24 54  1  0  0  0  0
 25 55  1  0  0  0  0
M  CHG  1  25   1
M  END
$$$$
