
  -OEChem-05262117483D

 37 37  0     1  0  0  0  0  0999 V2000
    8.6404   -2.1988   -1.5346 C   0  0  0  0  0  0  0  0  0  0  0  0
    7.5534   -0.9250    0.1073 C   0  0  0  0  0  0  0  0  0  0  0  0
    9.2676   -3.2493   -2.4020 C   0  0  0  0  0  0  0  0  0  0  0  0
    0.4024    1.9545    1.0642 C   0  0  0  0  0  0  0  0  0  0  0  0
   12.8192   -2.5447   -4.0604 C   0  0  0  0  0  0  0  0  0  0  0  0
    1.7087    1.6138    1.7895 C   0  0  0  0  0  0  0  0  0  0  0  0
   12.0014   -3.8396   -4.0968 C   0  0  0  0  0  0  0  0  0  0  0  0
    2.7871    1.0668    0.8464 C   0  0  0  0  0  0  0  0  0  0  0  0
    4.0946    0.7241    1.5736 C   0  0  0  0  0  0  0  0  0  0  0  0
   10.5321   -3.6218   -4.4829 C   0  0  0  0  0  0  0  0  0  0  0  0
    5.1476    0.1801    0.6123 C   0  0  0  0  0  0  0  0  0  0  0  0
    8.6500   -0.9180   -1.8118 N   0  0  0  0  0  0  0  0  0  0  0  0
    8.0218   -0.1722   -0.8504 N   0  0  0  0  0  0  0  0  0  0  0  0
    9.8106   -2.7651   -3.5442 N   0  0  0  0  0  0  0  0  0  0  0  0
    9.2523   -4.4332   -2.0614 O   0  0  0  0  0  0  0  0  0  0  0  0
    6.3305   -1.4942    2.3937 O   0  0  0  0  0  0  0  0  0  0  0  0
    7.8487   -2.6315   -0.0480 S   0  0  0  0  0  0  0  0  0  0  0  0
    6.6714   -0.2754    1.5591 S   0  0  1  0  0  0  0  0  0  0  0  0
    0.5652    2.7151    0.2918 H   0  0  0  0  0  0  0  0  0  0  0  0
   -0.0202    1.0698    0.5743 H   0  0  0  0  0  0  0  0  0  0  0  0
   -0.3496    2.3415    1.7598 H   0  0  0  0  0  0  0  0  0  0  0  0
   12.8077   -2.0386   -5.0334 H   0  0  0  0  0  0  0  0  0  0  0  0
   12.4273   -1.8465   -3.3129 H   0  0  0  0  0  0  0  0  0  0  0  0
   13.8639   -2.7465   -3.8039 H   0  0  0  0  0  0  0  0  0  0  0  0
    1.5109    0.8758    2.5773 H   0  0  0  0  0  0  0  0  0  0  0  0
    2.0917    2.5089    2.2966 H   0  0  0  0  0  0  0  0  0  0  0  0
   12.0342   -4.3375   -3.1220 H   0  0  0  0  0  0  0  0  0  0  0  0
   12.4370   -4.5376   -4.8223 H   0  0  0  0  0  0  0  0  0  0  0  0
    2.9873    1.8028    0.0560 H   0  0  0  0  0  0  0  0  0  0  0  0
    2.4064    0.1686    0.3421 H   0  0  0  0  0  0  0  0  0  0  0  0
    3.8997   -0.0220    2.3517 H   0  0  0  0  0  0  0  0  0  0  0  0
    4.4805    1.6199    2.0765 H   0  0  0  0  0  0  0  0  0  0  0  0
   10.4603   -3.1577   -5.4722 H   0  0  0  0  0  0  0  0  0  0  0  0
   10.0093   -4.5804   -4.5203 H   0  0  0  0  0  0  0  0  0  0  0  0
    5.4603    0.9147   -0.1364 H   0  0  0  0  0  0  0  0  0  0  0  0
    4.8109   -0.7336    0.1127 H   0  0  0  0  0  0  0  0  0  0  0  0
    9.7950   -1.7594   -3.6710 H   0  0  0  0  0  0  0  0  0  0  0  0
  1  3  1  0  0  0  0
  1 12  2  0  0  0  0
  1 17  1  0  0  0  0
  2 13  2  0  0  0  0
  2 17  1  0  0  0  0
  2 18  1  0  0  0  0
  3 14  1  0  0  0  0
  3 15  2  0  0  0  0
  4  6  1  0  0  0  0
  4 19  1  0  0  0  0
  4 20  1  0  0  0  0
  4 21  1  0  0  0  0
  5  7  1  0  0  0  0
  5 22  1  0  0  0  0
  5 23  1  0  0  0  0
  5 24  1  0  0  0  0
  6  8  1  0  0  0  0
  6 25  1  0  0  0  0
  6 26  1  0  0  0  0
  7 10  1  0  0  0  0
  7 27  1  0  0  0  0
  7 28  1  0  0  0  0
  8  9  1  0  0  0  0
  8 29  1  0  0  0  0
  8 30  1  0  0  0  0
  9 11  1  0  0  0  0
  9 31  1  0  0  0  0
  9 32  1  0  0  0  0
 10 14  1  0  0  0  0
 10 33  1  0  0  0  0
 10 34  1  0  0  0  0
 11 18  1  0  0  0  0
 11 35  1  0  0  0  0
 11 36  1  0  0  0  0
 12 13  1  0  0  0  0
 14 37  1  0  0  0  0
 16 18  2  0  0  0  0
M  END
$$$$
