25
0 1 C9H11N3O2
C                     1.339370454746     1.638281340504     0.555368704418
C                     0.043900742485     1.957299759035     0.135953880586
C                     1.587768946822     1.266882109396     1.891505468357
C                    -0.960023960912     1.882533258166     1.104374238089
C                    -0.577326579393     1.490846182442     2.416940448920
C                    -2.751793675256     1.898165555144     2.280022148160
C                    -4.173960852708     1.975016363335     2.742402340839
C                    -5.228965730474     1.937059233445     6.273849257986
C                    -5.416382576348     1.896470261865     4.772344790341
N                     0.644347137713     1.186316006219     2.844981919641
N                    -2.327720509730     2.133881373431     1.055706947755
N                    -1.755748388776     1.502958212694     3.143902965601
O                    -4.454971356212     0.799746910222     6.660862624710
O                    -4.160867955453     2.140942814674     4.151743818485
H                     2.170117444403     1.674096789678    -0.143310295789
H                    -0.175455340080     2.249395540833    -0.887366770988
H                     2.600786491645     1.022508867274     2.205178302750
H                    -4.680116494583     2.806285164055     2.233517557460
H                    -4.696648620365     1.044571265332     2.470122504587
H                    -6.221503566900     1.921917335572     6.748131900283
H                    -4.725732173405     2.874610318828     6.548264551829
H                    -6.149369505692     2.661274309674     4.472755361813
H                    -5.802423013728     0.909767948296     4.476341426433
H                    -1.883271899592     1.325699119174     4.133631384340
H                    -4.265991945286     0.865530786692     7.609097332301
