54
0 1 C23ClH27N2O
C                    -1.597234228462   -10.324003625273     2.823631931694
C                    -2.467313007524   -10.117344229110     3.918627577954
C                    -1.357859811235    -9.298804092970     1.930389790804
C                    -3.061711388786    -8.887143837275     4.109002619688
C                    -0.445062360450    -6.961451684864    -3.424412142491
C                     1.420454696497    -7.034631987627    -1.909039913985
C                    -2.329896248290    -5.721729812769     1.366043690259
C                     0.355565037149    -7.469966610416    -4.456763483629
C                     2.229487650746    -7.541466659116    -2.918618166780
C                    -3.144033185529    -5.500232975549     2.499713205190
C                    -1.973409553777    -8.026751610012     2.077313573177
C                    -2.829898358263    -7.811255123768     3.209626298906
C                     0.066905345858    -6.733113030819    -2.146185161629
C                    -1.750662715317    -6.961698392571     1.129967655754
C                     1.701547031965    -7.762277777922    -4.203525401373
C                    -3.400328007024    -6.515783421800     3.388335433236
C                     4.958280850210   -10.456113319179    -9.484312503569
C                     2.385140369961    -8.083260549885   -10.831924538822
C                    -0.803715950973    -6.199808391368    -1.033464211396
C                     3.434952558762   -10.452943949862    -9.269249138288
C                     3.042788371573    -8.020815405898    -9.453191131425
C                     3.259840808153    -9.053663030591    -7.267532794824
C                     2.093375196917    -8.498579351603    -6.454816857149
N                    -0.928737961738    -7.197001965936     0.028868939930
N                     2.860973226314    -9.245058077274    -8.663117543572
O                     2.575064261664    -8.259517778651    -5.128914126459
Cl                   -4.452105110185    -6.188694278207     4.766366119756
H                    -1.107750589781   -11.285241068905     2.691837299316
H                    -2.657728330227   -10.925924080664     4.619414312159
H                    -0.656120050041    -9.468575175498     1.119822153852
H                    -3.715519140796    -8.725668856383     4.958904787184
H                    -1.490322820889    -6.741270937826    -3.630830286763
H                     1.836536942177    -6.871358280478    -0.917822739832
H                    -2.179872889783    -4.900994099214     0.674711426605
H                    -0.079352652207    -7.633425434337    -5.435962233687
H                     3.275924593835    -7.772392434084    -2.740884702933
H                    -3.585021093127    -4.520734970487     2.656086833103
H                     5.272409586646    -9.679843488203   -10.189295417258
H                     5.497591111243   -10.295338455612    -8.544678597851
H                     5.277731707066   -11.421574269007    -9.891953023336
H                     2.886181921562    -8.791333334599   -11.498942326754
H                     1.335413024143    -8.380928837592   -10.742932733219
H                     2.427546255619    -7.099020011035   -11.309926958237
H                    -0.352988388642    -5.297699722268    -0.602466968447
H                    -1.786034692822    -5.906623531119    -1.435865411102
H                     3.157156769770   -11.296948966522    -8.628285236862
H                     2.932090923312   -10.626795337941   -10.225473305196
H                     2.587153066329    -7.199623467503    -8.890514066386
H                     4.110563644834    -7.757209360932    -9.562452149315
H                     4.128833996043    -8.384794064357    -7.156520406746
H                     3.547733827501   -10.015957346949    -6.834016678936
H                     1.272289908898    -9.225221636694    -6.441073098384
H                     1.719102930438    -7.563712866878    -6.889951207530
H                    -0.985235873558    -8.138420834011    -0.340121698770
