
  -OEChem-05262117483D

 30 31  0     1  0  0  0  0  0999 V2000
    2.3080    3.3637    2.3505 C   0  0  0  0  0  0  0  0  0  0  0  0
    1.7572    2.1622    1.8874 C   0  0  0  0  0  0  0  0  0  0  0  0
    1.6773    4.5821    2.1359 C   0  0  0  0  0  0  0  0  0  0  0  0
   -0.1113    3.4339    0.9588 C   0  0  0  0  0  0  0  0  0  0  0  0
    0.5449    2.2121    1.1939 C   0  0  0  0  0  0  0  0  0  0  0  0
    0.4603    4.6218    1.4338 C   0  0  0  0  0  0  0  0  0  0  0  0
    0.5353   -0.1782    0.5209 C   0  0  0  0  0  0  0  0  0  0  0  0
   -1.8324   -0.5315    0.2443 C   0  0  0  0  0  0  0  0  0  0  0  0
   -1.4918    0.9749    0.3041 C   0  0  0  0  0  0  0  0  0  0  0  0
   -0.4842   -1.1191   -0.1408 C   0  0  2  0  0  0  0  0  0  0  0  0
   -1.3152    5.9683    0.5476 C   0  0  0  0  0  0  0  0  0  0  0  0
   -0.0707    1.0134    0.7073 N   0  0  0  0  0  0  0  0  0  0  0  0
   -0.1226   -2.4925    0.3688 N   0  3  0  0  0  0  0  0  0  0  0  0
    1.6613   -0.5886    0.8091 O   0  0  0  0  0  0  0  0  0  0  0  0
   -0.0847    5.8537    1.2613 O   0  0  0  0  0  0  0  0  0  0  0  0
    3.2491    3.3377    2.8919 H   0  0  0  0  0  0  0  0  0  0  0  0
    2.2642    1.2230    2.0584 H   0  0  0  0  0  0  0  0  0  0  0  0
    2.1018    5.5142    2.4950 H   0  0  0  0  0  0  0  0  0  0  0  0
   -1.0369    3.4654    0.3999 H   0  0  0  0  0  0  0  0  0  0  0  0
   -2.1319   -0.8750    1.2407 H   0  0  0  0  0  0  0  0  0  0  0  0
   -2.6376   -0.7505   -0.4585 H   0  0  0  0  0  0  0  0  0  0  0  0
   -1.6285    1.4546   -0.6704 H   0  0  0  0  0  0  0  0  0  0  0  0
   -2.1005    1.5006    1.0409 H   0  0  0  0  0  0  0  0  0  0  0  0
   -0.3156   -1.1363   -1.2212 H   0  0  0  0  0  0  0  0  0  0  0  0
   -1.5527    7.0317    0.5362 H   0  0  0  0  0  0  0  0  0  0  0  0
   -2.1203    5.4228    1.0551 H   0  0  0  0  0  0  0  0  0  0  0  0
   -1.2104    5.6094   -0.4835 H   0  0  0  0  0  0  0  0  0  0  0  0
   -0.5730   -2.7023    1.2680 H   0  0  0  0  0  0  0  0  0  0  0  0
    0.9094   -2.4424    0.5396 H   0  0  0  0  0  0  0  0  0  0  0  0
   -0.3386   -3.2521   -0.2854 H   0  0  0  0  0  0  0  0  0  0  0  0
  1  2  1  0  0  0  0
  1  3  2  0  0  0  0
  1 16  1  0  0  0  0
  2  5  2  0  0  0  0
  2 17  1  0  0  0  0
  3  6  1  0  0  0  0
  3 18  1  0  0  0  0
  4  5  1  0  0  0  0
  4  6  2  0  0  0  0
  4 19  1  0  0  0  0
  5 12  1  0  0  0  0
  6 15  1  0  0  0  0
  7 10  1  0  0  0  0
  7 12  1  0  0  0  0
  7 14  2  0  0  0  0
  8  9  1  0  0  0  0
  8 10  1  0  0  0  0
  8 20  1  0  0  0  0
  8 21  1  0  0  0  0
  9 12  1  0  0  0  0
  9 22  1  0  0  0  0
  9 23  1  0  0  0  0
 10 13  1  0  0  0  0
 10 24  1  0  0  0  0
 11 15  1  0  0  0  0
 11 25  1  0  0  0  0
 11 26  1  0  0  0  0
 11 27  1  0  0  0  0
 13 28  1  0  0  0  0
 13 29  1  0  0  0  0
 13 30  1  0  0  0  0
M  CHG  1  13   1
M  END
$$$$
