
  -OEChem-05262117483D

 64 66  0     0  0  0  0  0  0999 V2000
    1.4302    5.7925    1.5641 C   0  0  0  0  0  0  0  0  0  0  0  0
    1.6868    5.9384    3.9604 C   0  0  0  0  0  0  0  0  0  0  0  0
    1.9736    7.0709    1.4164 C   0  0  0  0  0  0  0  0  0  0  0  0
    2.2366    7.2169    3.8332 C   0  0  0  0  0  0  0  0  0  0  0  0
    1.2863    5.2089    2.8317 C   0  0  0  0  0  0  0  0  0  0  0  0
    0.7388    3.8283    3.0020 C   0  0  0  0  0  0  0  0  0  0  0  0
    1.5302    2.7070    2.6882 C   0  0  0  0  0  0  0  0  0  0  0  0
   -0.5482    3.6472    3.5424 C   0  0  0  0  0  0  0  0  0  0  0  0
    2.3733    7.7570    2.5597 C   0  0  0  0  0  0  0  0  0  0  0  0
    1.0013    1.4316    2.9719 C   0  0  0  0  0  0  0  0  0  0  0  0
   -0.9830    2.3314    3.7886 C   0  0  0  0  0  0  0  0  0  0  0  0
    6.3472    4.5460    5.3460 C   0  0  0  0  0  0  0  0  0  0  0  0
    6.2059    3.0174    5.2982 C   0  0  0  0  0  0  0  0  0  0  0  0
    5.3155    5.2265    4.4354 C   0  0  0  0  0  0  0  0  0  0  0  0
    6.2969    2.4970    3.8562 C   0  0  0  0  0  0  0  0  0  0  0  0
    5.3951    4.6988    2.9946 C   0  0  0  0  0  0  0  0  0  0  0  0
    5.2639    3.1592    2.9291 C   0  0  0  0  0  0  0  0  0  0  0  0
    0.9944   -0.8156    1.8378 C   0  0  0  0  0  0  0  0  0  0  0  0
    2.0965   -0.5108    4.1076 C   0  0  0  0  0  0  0  0  0  0  0  0
   -2.0710    1.3854    5.8317 C   0  0  0  0  0  0  0  0  0  0  0  0
   -3.1435    1.0577    3.5509 C   0  0  0  0  0  0  0  0  0  0  0  0
    2.9390    2.8747    2.1639 C   0  0  0  0  0  0  0  0  0  0  0  0
   -1.4144    4.8356    3.8723 C   0  0  0  0  0  0  0  0  0  0  0  0
    1.7775    0.1424    2.7508 C   0  0  0  0  0  0  0  0  0  0  0  0
   -2.3164    1.9994    4.4413 C   0  0  0  0  0  0  0  0  0  0  0  0
   -0.2175    1.2717    3.5021 N   0  0  0  0  0  0  0  0  0  0  0  0
    3.9117    2.6615    3.2464 N   0  0  0  0  0  0  0  0  0  0  0  0
   -1.3142    5.0922    5.2876 O   0  0  0  0  0  0  0  0  0  0  0  0
    2.9116    8.9975    2.4253 F   0  0  0  0  0  0  0  0  0  0  0  0
    1.1142    5.2401    0.6832 H   0  0  0  0  0  0  0  0  0  0  0  0
    1.5563    5.5041    4.9468 H   0  0  0  0  0  0  0  0  0  0  0  0
    2.0915    7.5313    0.4402 H   0  0  0  0  0  0  0  0  0  0  0  0
    2.5595    7.7855    4.6998 H   0  0  0  0  0  0  0  0  0  0  0  0
    7.3580    4.8239    5.0159 H   0  0  0  0  0  0  0  0  0  0  0  0
    6.2424    4.9078    6.3759 H   0  0  0  0  0  0  0  0  0  0  0  0
    6.9793    2.5444    5.9144 H   0  0  0  0  0  0  0  0  0  0  0  0
    5.2429    2.7217    5.7361 H   0  0  0  0  0  0  0  0  0  0  0  0
    4.3080    5.0547    4.8367 H   0  0  0  0  0  0  0  0  0  0  0  0
    5.4537    6.3138    4.4384 H   0  0  0  0  0  0  0  0  0  0  0  0
    7.3023    2.7061    3.4659 H   0  0  0  0  0  0  0  0  0  0  0  0
    6.1522    1.4123    3.8279 H   0  0  0  0  0  0  0  0  0  0  0  0
    4.6242    5.1750    2.3782 H   0  0  0  0  0  0  0  0  0  0  0  0
    6.3625    4.9866    2.5613 H   0  0  0  0  0  0  0  0  0  0  0  0
    5.4716    2.8336    1.9022 H   0  0  0  0  0  0  0  0  0  0  0  0
    0.0332   -1.0748    2.2901 H   0  0  0  0  0  0  0  0  0  0  0  0
    1.5633   -1.7378    1.6755 H   0  0  0  0  0  0  0  0  0  0  0  0
    0.7972   -0.3614    0.8601 H   0  0  0  0  0  0  0  0  0  0  0  0
    1.1733   -0.7471    4.6454 H   0  0  0  0  0  0  0  0  0  0  0  0
    2.7008    0.1615    4.7243 H   0  0  0  0  0  0  0  0  0  0  0  0
    2.6609   -1.4384    3.9600 H   0  0  0  0  0  0  0  0  0  0  0  0
   -1.4915    0.4619    5.7419 H   0  0  0  0  0  0  0  0  0  0  0  0
   -3.0241    1.1525    6.3197 H   0  0  0  0  0  0  0  0  0  0  0  0
   -1.5188    2.0817    6.4706 H   0  0  0  0  0  0  0  0  0  0  0  0
   -2.6046    0.1210    3.3843 H   0  0  0  0  0  0  0  0  0  0  0  0
   -3.3460    1.5098    2.5734 H   0  0  0  0  0  0  0  0  0  0  0  0
   -4.1040    0.8280    4.0254 H   0  0  0  0  0  0  0  0  0  0  0  0
    3.1419    2.1439    1.3730 H   0  0  0  0  0  0  0  0  0  0  0  0
    3.0412    3.8626    1.7008 H   0  0  0  0  0  0  0  0  0  0  0  0
   -1.0811    5.7107    3.3048 H   0  0  0  0  0  0  0  0  0  0  0  0
   -2.4576    4.6375    3.5959 H   0  0  0  0  0  0  0  0  0  0  0  0
    2.7309    0.3792    2.2762 H   0  0  0  0  0  0  0  0  0  0  0  0
   -2.8818    2.9217    4.5902 H   0  0  0  0  0  0  0  0  0  0  0  0
    3.5629    3.1244    4.0830 H   0  0  0  0  0  0  0  0  0  0  0  0
   -1.8616    5.8685    5.4879 H   0  0  0  0  0  0  0  0  0  0  0  0
  1  3  1  0  0  0  0
  1  5  2  0  0  0  0
  1 30  1  0  0  0  0
  2  4  2  0  0  0  0
  2  5  1  0  0  0  0
  2 31  1  0  0  0  0
  3  9  2  0  0  0  0
  3 32  1  0  0  0  0
  4  9  1  0  0  0  0
  4 33  1  0  0  0  0
  5  6  1  0  0  0  0
  6  7  1  0  0  0  0
  6  8  2  0  0  0  0
  7 10  2  0  0  0  0
  7 22  1  0  0  0  0
  8 11  1  0  0  0  0
  8 23  1  0  0  0  0
  9 29  1  0  0  0  0
 10 24  1  0  0  0  0
 10 26  1  0  0  0  0
 11 25  1  0  0  0  0
 11 26  2  0  0  0  0
 12 13  1  0  0  0  0
 12 14  1  0  0  0  0
 12 34  1  0  0  0  0
 12 35  1  0  0  0  0
 13 15  1  0  0  0  0
 13 36  1  0  0  0  0
 13 37  1  0  0  0  0
 14 16  1  0  0  0  0
 14 38  1  0  0  0  0
 14 39  1  0  0  0  0
 15 17  1  0  0  0  0
 15 40  1  0  0  0  0
 15 41  1  0  0  0  0
 16 17  1  0  0  0  0
 16 42  1  0  0  0  0
 16 43  1  0  0  0  0
 17 27  1  0  0  0  0
 17 44  1  0  0  0  0
 18 24  1  0  0  0  0
 18 45  1  0  0  0  0
 18 46  1  0  0  0  0
 18 47  1  0  0  0  0
 19 24  1  0  0  0  0
 19 48  1  0  0  0  0
 19 49  1  0  0  0  0
 19 50  1  0  0  0  0
 20 25  1  0  0  0  0
 20 51  1  0  0  0  0
 20 52  1  0  0  0  0
 20 53  1  0  0  0  0
 21 25  1  0  0  0  0
 21 54  1  0  0  0  0
 21 55  1  0  0  0  0
 21 56  1  0  0  0  0
 22 27  1  0  0  0  0
 22 57  1  0  0  0  0
 22 58  1  0  0  0  0
 23 28  1  0  0  0  0
 23 59  1  0  0  0  0
 23 60  1  0  0  0  0
 24 61  1  0  0  0  0
 25 62  1  0  0  0  0
 27 63  1  0  0  0  0
 28 64  1  0  0  0  0
M  END
$$$$
