
  -OEChem-05262117483D

 65 67  0     0  0  0  0  0  0999 V2000
    3.6208   -6.3546   -1.4981 C   0  0  0  0  0  0  0  0  0  0  0  0
    4.4590   -4.7860    0.1416 C   0  0  0  0  0  0  0  0  0  0  0  0
    2.4524   -6.5192   -0.7506 C   0  0  0  0  0  0  0  0  0  0  0  0
    3.2972   -4.9430    0.9057 C   0  0  0  0  0  0  0  0  0  0  0  0
    4.6294   -5.4782   -1.0707 C   0  0  0  0  0  0  0  0  0  0  0  0
    5.8514   -5.2467   -1.9018 C   0  0  0  0  0  0  0  0  0  0  0  0
    5.8264   -4.2390   -2.8909 C   0  0  0  0  0  0  0  0  0  0  0  0
    7.0150   -5.9981   -1.7091 C   0  0  0  0  0  0  0  0  0  0  0  0
    2.3077   -5.8021    0.4352 C   0  0  0  0  0  0  0  0  0  0  0  0
    7.0115   -3.9674   -3.6015 C   0  0  0  0  0  0  0  0  0  0  0  0
    8.1220   -5.7228   -2.5452 C   0  0  0  0  0  0  0  0  0  0  0  0
    0.3304   -0.7758   -1.1576 C   0  0  0  0  0  0  0  0  0  0  0  0
    1.5077    0.1689   -1.4288 C   0  0  0  0  0  0  0  0  0  0  0  0
    0.3569   -1.9807   -2.1054 C   0  0  0  0  0  0  0  0  0  0  0  0
    2.8501   -0.5758   -1.3474 C   0  0  0  0  0  0  0  0  0  0  0  0
    1.6963   -2.7332   -2.0316 C   0  0  0  0  0  0  0  0  0  0  0  0
    2.8588   -1.7739   -2.3003 C   0  0  0  0  0  0  0  0  0  0  0  0
    6.8884   -3.4515   -6.0487 C   0  0  0  0  0  0  0  0  0  0  0  0
    8.4891   -2.1535   -4.5652 C   0  0  0  0  0  0  0  0  0  0  0  0
   10.6021   -5.6650   -2.1479 C   0  0  0  0  0  0  0  0  0  0  0  0
    9.5984   -7.2095   -3.9052 C   0  0  0  0  0  0  0  0  0  0  0  0
    4.5304   -3.5407   -3.2059 C   0  0  0  0  0  0  0  0  0  0  0  0
    7.0472   -7.1227   -0.7029 C   0  0  0  0  0  0  0  0  0  0  0  0
    7.1290   -2.8635   -4.6442 C   0  0  0  0  0  0  0  0  0  0  0  0
    9.3978   -6.5431   -2.5310 C   0  0  0  0  0  0  0  0  0  0  0  0
    8.1055   -4.7127   -3.4241 N   0  0  0  0  0  0  0  0  0  0  0  0
    4.1864   -2.5028   -2.1474 N   0  3  0  0  0  0  0  0  0  0  0  0
    6.8220   -8.3407   -1.4262 O   0  0  0  0  0  0  0  0  0  0  0  0
    1.1763   -5.9485    1.1542 F   0  0  0  0  0  0  0  0  0  0  0  0
    3.7588   -6.9219   -2.4141 H   0  0  0  0  0  0  0  0  0  0  0  0
    5.2624   -4.1542    0.5166 H   0  0  0  0  0  0  0  0  0  0  0  0
    1.6661   -7.1975   -1.0678 H   0  0  0  0  0  0  0  0  0  0  0  0
    3.1627   -4.4294    1.8528 H   0  0  0  0  0  0  0  0  0  0  0  0
   -0.6143   -0.2350   -1.2674 H   0  0  0  0  0  0  0  0  0  0  0  0
    0.3731   -1.1259   -0.1180 H   0  0  0  0  0  0  0  0  0  0  0  0
    1.4024    0.6158   -2.4254 H   0  0  0  0  0  0  0  0  0  0  0  0
    1.5138    0.9963   -0.7135 H   0  0  0  0  0  0  0  0  0  0  0  0
   -0.4527   -2.6767   -1.8675 H   0  0  0  0  0  0  0  0  0  0  0  0
    0.1874   -1.6438   -3.1360 H   0  0  0  0  0  0  0  0  0  0  0  0
    3.6771    0.1053   -1.5855 H   0  0  0  0  0  0  0  0  0  0  0  0
    3.0043   -0.9333   -0.3198 H   0  0  0  0  0  0  0  0  0  0  0  0
    1.8178   -3.1696   -1.0316 H   0  0  0  0  0  0  0  0  0  0  0  0
    1.6957   -3.5609   -2.7466 H   0  0  0  0  0  0  0  0  0  0  0  0
    2.8340   -1.4266   -3.3385 H   0  0  0  0  0  0  0  0  0  0  0  0
    7.6435   -4.2121   -6.2677 H   0  0  0  0  0  0  0  0  0  0  0  0
    6.9567   -2.6690   -6.8106 H   0  0  0  0  0  0  0  0  0  0  0  0
    5.9036   -3.9254   -6.1320 H   0  0  0  0  0  0  0  0  0  0  0  0
    9.3000   -2.8497   -4.7865 H   0  0  0  0  0  0  0  0  0  0  0  0
    8.6675   -1.7389   -3.5675 H   0  0  0  0  0  0  0  0  0  0  0  0
    8.5238   -1.3335   -5.2890 H   0  0  0  0  0  0  0  0  0  0  0  0
   10.7346   -4.8576   -2.8731 H   0  0  0  0  0  0  0  0  0  0  0  0
   11.5155   -6.2673   -2.1300 H   0  0  0  0  0  0  0  0  0  0  0  0
   10.4733   -5.2166   -1.1565 H   0  0  0  0  0  0  0  0  0  0  0  0
    9.7039   -6.4533   -4.6880 H   0  0  0  0  0  0  0  0  0  0  0  0
    8.7516   -7.8564   -4.1545 H   0  0  0  0  0  0  0  0  0  0  0  0
   10.5042   -7.8234   -3.8926 H   0  0  0  0  0  0  0  0  0  0  0  0
    4.5514   -3.0152   -4.1584 H   0  0  0  0  0  0  0  0  0  0  0  0
    3.6964   -4.2394   -3.2166 H   0  0  0  0  0  0  0  0  0  0  0  0
    8.0139   -7.1443   -0.1855 H   0  0  0  0  0  0  0  0  0  0  0  0
    6.2693   -6.9758    0.0545 H   0  0  0  0  0  0  0  0  0  0  0  0
    6.3564   -2.1064   -4.4545 H   0  0  0  0  0  0  0  0  0  0  0  0
    9.2977   -7.3421   -1.7948 H   0  0  0  0  0  0  0  0  0  0  0  0
    4.9520   -1.8200   -2.1100 H   0  0  0  0  0  0  0  0  0  0  0  0
    4.1873   -2.9900   -1.2380 H   0  0  0  0  0  0  0  0  0  0  0  0
    6.9178   -9.0863   -0.8111 H   0  0  0  0  0  0  0  0  0  0  0  0
  1  3  1  0  0  0  0
  1  5  2  0  0  0  0
  1 30  1  0  0  0  0
  2  4  2  0  0  0  0
  2  5  1  0  0  0  0
  2 31  1  0  0  0  0
  3  9  2  0  0  0  0
  3 32  1  0  0  0  0
  4  9  1  0  0  0  0
  4 33  1  0  0  0  0
  5  6  1  0  0  0  0
  6  7  1  0  0  0  0
  6  8  2  0  0  0  0
  7 10  2  0  0  0  0
  7 22  1  0  0  0  0
  8 11  1  0  0  0  0
  8 23  1  0  0  0  0
  9 29  1  0  0  0  0
 10 24  1  0  0  0  0
 10 26  1  0  0  0  0
 11 25  1  0  0  0  0
 11 26  2  0  0  0  0
 12 13  1  0  0  0  0
 12 14  1  0  0  0  0
 12 34  1  0  0  0  0
 12 35  1  0  0  0  0
 13 15  1  0  0  0  0
 13 36  1  0  0  0  0
 13 37  1  0  0  0  0
 14 16  1  0  0  0  0
 14 38  1  0  0  0  0
 14 39  1  0  0  0  0
 15 17  1  0  0  0  0
 15 40  1  0  0  0  0
 15 41  1  0  0  0  0
 16 17  1  0  0  0  0
 16 42  1  0  0  0  0
 16 43  1  0  0  0  0
 17 27  1  0  0  0  0
 17 44  1  0  0  0  0
 18 24  1  0  0  0  0
 18 45  1  0  0  0  0
 18 46  1  0  0  0  0
 18 47  1  0  0  0  0
 19 24  1  0  0  0  0
 19 48  1  0  0  0  0
 19 49  1  0  0  0  0
 19 50  1  0  0  0  0
 20 25  1  0  0  0  0
 20 51  1  0  0  0  0
 20 52  1  0  0  0  0
 20 53  1  0  0  0  0
 21 25  1  0  0  0  0
 21 54  1  0  0  0  0
 21 55  1  0  0  0  0
 21 56  1  0  0  0  0
 22 27  1  0  0  0  0
 22 57  1  0  0  0  0
 22 58  1  0  0  0  0
 23 28  1  0  0  0  0
 23 59  1  0  0  0  0
 23 60  1  0  0  0  0
 24 61  1  0  0  0  0
 25 62  1  0  0  0  0
 27 63  1  0  0  0  0
 27 64  1  0  0  0  0
 28 65  1  0  0  0  0
M  CHG  1  27   1
M  END
$$$$
