
  -OEChem-05262117483D

 30 31  0     1  0  0  0  0  0999 V2000
    2.2532    3.2601    2.7578 C   0  0  0  0  0  0  0  0  0  0  0  0
    1.8532    2.0332    2.2323 C   0  0  0  0  0  0  0  0  0  0  0  0
    1.7503    4.4655    2.2627 C   0  0  0  0  0  0  0  0  0  0  0  0
    0.4033    3.2112    0.6680 C   0  0  0  0  0  0  0  0  0  0  0  0
    0.9227    2.0209    1.1793 C   0  0  0  0  0  0  0  0  0  0  0  0
    0.8189    4.4374    1.2132 C   0  0  0  0  0  0  0  0  0  0  0  0
   -0.5659    0.5257   -0.1337 C   0  0  0  0  0  0  0  0  0  0  0  0
    0.7576   -1.4883   -0.1355 C   0  0  0  0  0  0  0  0  0  0  0  0
    1.2683   -0.4815    0.9201 C   0  0  0  0  0  0  0  0  0  0  0  0
   -0.6644   -0.9936   -0.3460 C   0  0  2  0  0  0  0  0  0  0  0  0
    0.6303    6.8246    1.1485 C   0  0  0  0  0  0  0  0  0  0  0  0
    0.5187    0.7600    0.6342 N   0  0  0  0  0  0  0  0  0  0  0  0
   -1.2894   -1.1480   -1.7105 N   0  3  0  0  0  0  0  0  0  0  0  0
   -1.3840    1.2798   -0.6640 O   0  0  0  0  0  0  0  0  0  0  0  0
    0.2588    5.5361    0.6464 O   0  0  0  0  0  0  0  0  0  0  0  0
    2.9692    3.2791    3.5741 H   0  0  0  0  0  0  0  0  0  0  0  0
    2.2506    1.1174    2.6539 H   0  0  0  0  0  0  0  0  0  0  0  0
    2.0830    5.4014    2.6951 H   0  0  0  0  0  0  0  0  0  0  0  0
   -0.3199    3.2220   -0.1361 H   0  0  0  0  0  0  0  0  0  0  0  0
    1.3436   -1.3786   -1.0549 H   0  0  0  0  0  0  0  0  0  0  0  0
    0.8297   -2.5224    0.2046 H   0  0  0  0  0  0  0  0  0  0  0  0
    1.0634   -0.8277    1.9380 H   0  0  0  0  0  0  0  0  0  0  0  0
    2.3391   -0.2991    0.8228 H   0  0  0  0  0  0  0  0  0  0  0  0
   -1.3761   -1.4147    0.3696 H   0  0  0  0  0  0  0  0  0  0  0  0
    0.0659    7.5439    0.5559 H   0  0  0  0  0  0  0  0  0  0  0  0
    1.7032    7.0043    1.0176 H   0  0  0  0  0  0  0  0  0  0  0  0
    0.3595    6.9285    2.2050 H   0  0  0  0  0  0  0  0  0  0  0  0
   -0.5881   -1.1317   -2.4610 H   0  0  0  0  0  0  0  0  0  0  0  0
   -1.8862   -0.2943   -1.8204 H   0  0  0  0  0  0  0  0  0  0  0  0
   -1.8570   -1.9953   -1.8175 H   0  0  0  0  0  0  0  0  0  0  0  0
  1  2  1  0  0  0  0
  1  3  2  0  0  0  0
  1 16  1  0  0  0  0
  2  5  2  0  0  0  0
  2 17  1  0  0  0  0
  3  6  1  0  0  0  0
  3 18  1  0  0  0  0
  4  5  1  0  0  0  0
  4  6  2  0  0  0  0
  4 19  1  0  0  0  0
  5 12  1  0  0  0  0
  6 15  1  0  0  0  0
  7 10  1  0  0  0  0
  7 12  1  0  0  0  0
  7 14  2  0  0  0  0
  8  9  1  0  0  0  0
  8 10  1  0  0  0  0
  8 20  1  0  0  0  0
  8 21  1  0  0  0  0
  9 12  1  0  0  0  0
  9 22  1  0  0  0  0
  9 23  1  0  0  0  0
 10 13  1  0  0  0  0
 10 24  1  0  0  0  0
 11 15  1  0  0  0  0
 11 25  1  0  0  0  0
 11 26  1  0  0  0  0
 11 27  1  0  0  0  0
 13 28  1  0  0  0  0
 13 29  1  0  0  0  0
 13 30  1  0  0  0  0
M  CHG  1  13   1
M  END
$$$$
