23
-1 1 C10F4H7O2
C                     2.003329270310    -0.746805783647    -0.412904594739
C                     0.987347989142    -0.151631247587     0.332587141350
C                     3.160635760673    -1.261669396364     1.653776850464
C                     3.093954521364    -1.312588325146     0.261486351563
C                     1.052777766682    -0.104060729939     1.730575894540
C                     2.156289488252    -0.647649367552     2.422491983536
C                     1.460411264268    -1.916435636472     4.503075025191
C                     2.256141428413    -0.663525027838     3.917432568810
C                     4.210475339686    -1.960450321394    -0.493242675456
C                    -0.069329384949     0.524487737481     2.517507640874
O                     2.170684193196    -2.910742718693     4.777034766248
O                     0.213380661127    -1.744715467275     4.595893321788
F                     5.018564104204    -1.016626819156    -1.120778879790
F                     3.742876824697    -2.774030352536    -1.510592784607
F                    -1.214400488560     0.636814739336     1.744152216344
F                     0.267750941887     1.835432501712     2.869333268431
H                     1.945159571263    -0.791462386984    -1.496602942564
H                     0.120488517851     0.267136747066    -0.168934765572
H                     3.997439903187    -1.720454041568     2.176047859318
H                     3.303531440826    -0.751284051627     4.214480152816
H                     1.844093672122     0.251883505016     4.348796806738
H                     4.863405726464    -2.567680043490     0.139301661999
H                    -0.310803751976    -0.032924083105     3.426036790612
