22   
torsion grid (-165,)
C        3.3552409010   -0.7484215104   -0.3554764913
C        2.0100159364   -0.9818965674   -0.0625000467
C        1.5459831965    1.3912705349   -0.4345228365
C        3.8200357448    0.5293475543   -0.6959967383
C        2.8921742871    1.5939855137   -0.7426001326
C        1.1375342748    0.1027075715   -0.1046675062
C        5.2254511459    0.8405050719   -0.9380875917
C        5.5774692614    2.0367606750   -1.4377856195
C        4.4852288531    3.0064348181   -1.8227107316
C        6.9929112154    2.4702121642   -1.6598884129
O        3.2981739146    2.8697655200   -1.0137560930
O        7.1191697692    2.9238125342   -3.0197040015
F       -0.1740267488   -0.1015461324    0.1829457345
H        4.0630656911   -1.5728067565   -0.3125165019
H        1.6391116389   -1.9673136920    0.1988911789
H        0.8399996595    2.2146034354   -0.4575849720
H        5.9765028764    0.0949333990   -0.6833167879
H        4.8049211460    4.0421201555   -1.6890157862
H        4.2117970990    2.8731995912   -2.8791053210
H        7.6713485649    1.6322257733   -1.4531123103
H        7.2453180293    3.2925068529   -0.9709277335
H        8.0622102270    2.9774388428   -3.2372435454
22   
torsion grid (-150,)
C        3.3678429385   -0.7516536221   -0.3591782830
C        2.0234046093   -0.9937671619   -0.0692766160
C        1.5466360909    1.3775015360   -0.4329423404
C        3.8260495322    0.5299243072   -0.6941577224
C        2.8921615389    1.5892247596   -0.7379781057
C        1.1443453928    0.0855957884   -0.1086156529
C        5.2299854934    0.8507473659   -0.9330385488
C        5.5770130946    2.0504231048   -1.4280270593
C        4.4792480650    3.0154995142   -1.8092628448
C        6.9910426234    2.4921508876   -1.6495817520
O        3.2914843130    2.8683326882   -1.0032499602
O        7.1211588969    2.9672962449   -3.0037204250
F       -0.1665517757   -0.1272178733    0.1760514779
H        4.0802158119   -1.5722171828   -0.3180002267
H        1.6578487334   -1.9822971991    0.1878349400
H        0.8361903562    2.1970297049   -0.4538979260
H        5.9845536295    0.1082955103   -0.6792066176
H        4.7928041541    4.0523511164   -1.6697545304
H        4.2086471577    2.8861266181   -2.8668754007
H        7.6721915930    1.6555735463   -1.4507402328
H        7.2440617856    3.3087593877   -0.9553245828
H        8.0275022571    2.8044798729   -3.3029063487
22   
torsion grid (-135,)
C        3.3836509215   -0.7590866683   -0.3621634789
C        2.0400558960   -1.0087790708   -0.0749565522
C        1.5507069444    1.3618937257   -0.4313411365
C        3.8351708840    0.5261278032   -0.6922018931
C        2.8957062978    1.5807238922   -0.7335642837
C        1.1558423004    0.0664718939   -0.1120646080
C        5.2377399612    0.8554746831   -0.9281788601
C        5.5787552565    2.0588751668   -1.4187280159
C        4.4762791957    3.0191272896   -1.7981416983
C        6.9910597580    2.5095661353   -1.6399905957
O        3.2888013847    2.8628204918   -0.9937024250
O        7.1303950445    3.0068405941   -2.9870297299
F       -0.1542011713   -0.1543669531    0.1700993437
H        4.1002376829   -1.5760757177   -0.3225715216
H        1.6790558007   -1.9999399931    0.1784811219
H        0.8359811500    2.1777814020   -0.4503284757
H        5.9960606024    0.1164924240   -0.6748397298
H        4.7839256877    4.0573522198   -1.6550824571
H        4.2074530226    2.8918650245   -2.8564141019
H        7.6793676827    1.6795505559   -1.4432445535
H        7.2393163689    3.3251804845   -0.9445281161
H        7.9429831532    2.6482562867   -3.3701026380
22   
torsion grid (-120,)
C        3.3969442798   -0.7644148703   -0.3664214411
C        2.0541258547   -1.0211335312   -0.0818616971
C        1.5564802622    1.3484965731   -0.4311176225
C        3.8439167789    0.5236621930   -0.6917167473
C        2.9007445480    1.5750537910   -0.7309694697
C        1.1656175503    0.0506621855   -0.1166372753
C        5.2454835057    0.8596596427   -0.9243416116
C        5.5819775954    2.0665195943   -1.4102855207
C        4.4761700207    3.0229697342   -1.7893193868
C        6.9930098218    2.5246112567   -1.6306172500
O        3.2889631712    2.8597224136   -0.9860960098
O        7.1483820172    3.0367375061   -2.9708215728
F       -0.1439454380   -0.1761397803    0.1628805573
H        4.1169010740   -1.5785102107   -0.3282785430
H        1.6969797083   -2.0146324320    0.1678642955
H        0.8384236477    2.1614627112   -0.4481359209
H        6.0067891634    0.1236398254   -0.6708116850
H        4.7794642623    4.0622313468   -1.6441614346
H        4.2083961992    2.8971550850   -2.8480237297
H        7.6915129986    1.7057046472   -1.4255999897
H        7.2305560550    3.3466177429   -0.9409788463
H        7.8182249006    2.5121706116   -3.4304304855
22   
torsion grid (-105,)
C        3.4128141146   -0.7741864176   -0.3706847754
C        2.0708357849   -1.0369862700   -0.0880253860
C        1.5634905187    1.3318792408   -0.4294234721
C        3.8547202708    0.5168314259   -0.6914213174
C        2.9071173316    1.5644588343   -0.7274897107
C        1.1779208065    0.0313225897   -0.1197726255
C        5.2549253186    0.8600213190   -0.9214145370
C        5.5870634856    2.0703411983   -1.4026312703
C        4.4766831269    3.0217692373   -1.7808703675
C        6.9966981350    2.5343950433   -1.6243292358
O        3.2905116362    2.8515536028   -0.9776486351
O        7.1698781416    3.0434022444   -2.9623259374
F       -0.1307702564   -0.2018897084    0.1579978594
H        4.1360175232   -1.5854865283   -0.3344625527
H        1.7174516412   -2.0326978134    0.1582031469
H        0.8422138173    2.1420478486   -0.4439633614
H        6.0196179048    0.1273927386   -0.6679375112
H        4.7753876344    4.0622003079   -1.6346395960
H        4.2083759498    2.8967719862   -2.8396042119
H        7.7057598774    1.7291976991   -1.4003839374
H        7.2219276846    3.3720995240   -0.9517816538
H        7.6577702218    2.3882078489   -3.4809996106
22   
torsion grid (-90,)
C        3.4111911907   -0.7619468763   -0.3758038440
C        2.0668847032   -1.0221391530   -0.1023554257
C        1.5660944358    1.3479035536   -0.4454131754
C        3.8580638232    0.5283517212   -0.6926862936
C        2.9122703764    1.5775971502   -0.7340170406
C        1.1760744832    0.0478218816   -0.1394609345
C        5.2603899061    0.8689842712   -0.9123715793
C        5.5976962904    2.0794513231   -1.3903808560
C        4.4911241313    3.0329566949   -1.7755499812
C        7.0102688823    2.5402463893   -1.6036279726
O        3.2996281694    2.8642262305   -0.9801327690
O        7.2083097979    3.0492622525   -2.9356357493
F       -0.1347628650   -0.1832097088    0.1291520374
H        4.1325010417   -1.5746921687   -0.3349166344
H        1.7099345479   -2.0172763499    0.1409896305
H        0.8465637362    2.1595494272   -0.4640697830
H        6.0226529891    0.1356341679   -0.6534051682
H        4.7912709711    4.0726771516   -1.6276410244
H        4.2275725406    2.9097009172   -2.8358151241
H        7.7192335074    1.7374209308   -1.3667783747
H        7.2314388538    3.3848167542   -0.9403870484
H        7.4814185866    2.3125901344   -3.5023983408
22   
torsion grid (-75,)
C        3.4547838425   -0.8047622963   -0.3682908092
C        2.1147573329   -1.0816443146   -0.0908210780
C        1.5850984748    1.2833895748   -0.4236824242
C        3.8855147899    0.4917440178   -0.6826853386
C        2.9273029684    1.5298645710   -0.7168073929
C        1.2111330645   -0.0220974949   -0.1206791787
C        5.2826155203    0.8499939454   -0.9063006106
C        5.6040914417    2.0664149637   -1.3816512927
C        4.4837927627    3.0060638286   -1.7616927329
C        7.0109972876    2.5375525608   -1.6069798532
O        3.2991105635    2.8217325486   -0.9598799767
O        7.2166841402    2.9974842932   -2.9541062531
F       -0.0956527939   -0.2693126266    0.1521810581
H        4.1857146770   -1.6090887909   -0.3327258893
H        1.7704119003   -2.0817041496    0.1504722031
H        0.8561291481    2.0866678910   -0.4365398560
H        6.0550249914    0.1261967834   -0.6508788628
H        4.7719980416    4.0492077068   -1.6142702472
H        4.2144495984    2.8810288160   -2.8205015157
H        7.7285748092    1.7521302589   -1.3363999997
H        7.2221130186    3.4126078261   -0.9821764515
H        7.2677987983    2.2170526038   -3.5281546251
22   
torsion grid (-60,)
C        3.4517967438   -0.7873333059   -0.3844109666
C        2.1101349328   -1.0616343079   -0.1135032920
C        1.5877545398    1.3075444626   -0.4374702252
C        3.8864005850    0.5097985686   -0.6914556548
C        2.9316471506    1.5512437522   -0.7247366417
C        1.2102478025    0.0013284919   -0.1421119143
C        5.2854551173    0.8657510358   -0.9042164955
C        5.6133436893    2.0826934924   -1.3747562214
C        4.4955651470    3.0248255509   -1.7592786179
C        7.0232903069    2.5473225243   -1.5895576034
O        3.3084687744    2.8430215323   -0.9609409345
O        7.2632494567    2.9464723707   -2.9498234230
F       -0.0978576246   -0.2435752197    0.1247588470
H        4.1806911398   -1.5934982472   -0.3492311674
H        1.7617724324   -2.0616538647    0.1221416585
H        0.8608390309    2.1127089507   -0.4491063132
H        6.0550864756    0.1410157107   -0.6433877790
H        4.7862295310    4.0671636246   -1.6115804591
H        4.2261356514    2.9005846534   -2.8185686979
H        7.7317169862    1.7692524780   -1.2737175138
H        7.2268231484    3.4467044041   -0.9986045058
H        7.0929772730    2.1757286164   -3.5151373054
22   
torsion grid (-45,)
C        3.5199210874   -0.8451759320   -0.3613995965
C        2.1842480334   -1.1396067899   -0.0827509772
C        1.6248199490    1.2214114275   -0.4012735307
C        3.9334270089    0.4585996864   -0.6699972764
C        2.9630066879    1.4855593911   -0.6965958362
C        1.2680485585   -0.0903858795   -0.1047706246
C        5.3255486516    0.8353403613   -0.8904810054
C        5.6328000977    2.0574473447   -1.3627663176
C        4.4972889595    2.9819985951   -1.7407412382
C        7.0352578075    2.5363263388   -1.5900911013
O        3.3195892783    2.7831380167   -0.9333721263
O        7.2823470768    2.8765638481   -2.9660127210
F       -0.0344022793   -0.3549106368    0.1697908065
H        4.2609385209   -1.6403801857   -0.3312444590
H        1.8523462816   -2.1449056674    0.1541232302
H        0.8860071247    2.0157041011   -0.4075122885
H        6.1076664697    0.1227995892   -0.6338239243
H        4.7730341152    4.0288139574   -1.5959494650
H        4.2191653764    2.8531088037   -2.7976738676
H        7.7499094497    1.7764795269   -1.2446676978
H        7.2280906147    3.4590447683   -1.0324592435
H        6.9074772639    2.1684109340   -3.5140574028
22   
torsion grid (-30,)
C        3.5103998230   -0.8316584843   -0.3702139472
C        2.1729121217   -1.1219224174   -0.0966779694
C        1.6230156089    1.2419315126   -0.4147073419
C        3.9289609421    0.4712944572   -0.6760267503
C        2.9628344621    1.5021320871   -0.7053323156
C        1.2608429518   -0.0690615275   -0.1209268900
C        5.3231361438    0.8430487121   -0.8901619674
C        5.6371399009    2.0633767374   -1.3631072162
C        4.5047266971    2.9919115705   -1.7445465352
C        7.0429190193    2.5331157282   -1.5853306352
O        3.3254219678    2.7988555542   -0.9393251049
O        7.3266880268    2.7988745230   -2.9727614112
F       -0.0432976323   -0.3291637582    0.1485763777
H        4.2487423055   -1.6292493117   -0.3382828450
H        1.8365616966   -2.1262704992    0.1379524051
H        0.8868089515    2.0385984966   -0.4225089673
H        6.1017702472    0.1285944518   -0.6287972192
H        4.7842113319    4.0378775434   -1.6002688024
H        4.2247382108    2.8633348737   -2.8016042689
H        7.7469319368    1.7851930484   -1.1958658220
H        7.2279207147    3.4770218216   -1.0607576597
H        6.7754310898    2.2063716648   -3.5074577920
22   
torsion grid (-15,)
C        3.5268971424   -0.8474952721   -0.3693171748
C        2.1910636773   -1.1395119784   -0.0899983109
C        1.6353113404    1.2239197106   -0.4009266741
C        3.9421899050    0.4564677971   -0.6754811454
C        2.9734334097    1.4848318610   -0.6982421968
C        1.2769204640   -0.0882157367   -0.1076144963
C        5.3348173736    0.8317718014   -0.8927851762
C        5.6452100305    2.0518820049   -1.3688034447
C        4.5063007971    2.9753052045   -1.7467729008
C        7.0495059027    2.5268031788   -1.5884490906
O        3.3335354864    2.7824456382   -0.9330901342
O        7.3707704439    2.7137027809   -2.9828287493
F       -0.0252215483   -0.3509422534    0.1681038488
H        4.2664541257   -1.6440818476   -0.3420367850
H        1.8572729707   -2.1447258345    0.1445496302
H        0.8980897604    2.0197087870   -0.4037288945
H        6.1159344502    0.1206106875   -0.6305007156
H        4.7836528630    4.0227260579   -1.6084214928
H        4.2165741127    2.8415786840   -2.8013002797
H        7.7538964831    1.8068834788   -1.1527949630
H        7.2104256860    3.4954998935   -1.1002961268
H        6.6920772489    2.2701950855   -3.5132930680
22   
torsion grid (0,)
C        3.5021054069   -0.8307469801   -0.3691008795
C        2.1626999813   -1.1131742976   -0.0970112408
C        1.6234715149    1.2521205462   -0.4196020258
C        3.9272730465    0.4695895773   -0.6771175306
C        2.9648977805    1.5033960847   -0.7095196227
C        1.2548459124   -0.0567003045   -0.1238615974
C        5.3234136516    0.8351884064   -0.8878843232
C        5.6449868751    2.0510805405   -1.3666243762
C        4.5133945019    2.9809652249   -1.7524342890
C        7.0536985228    2.5197278188   -1.5738739212
O        3.3346448828    2.7984538785   -0.9464630675
O        7.4133344759    2.6634994714   -2.9648172984
F       -0.0505737913   -0.3103799445    0.1446695415
H        4.2364747159   -1.6318235525   -0.3346741292
H        1.8213309221   -2.1155066991    0.1389294491
H        0.8912904296    2.0524768518   -0.4297664630
H        6.0982581121    0.1196202077   -0.6194583253
H        4.7966032133    4.0271142489   -1.6143479683
H        4.2274186839    2.8467777891   -2.8086360312
H        7.7513167811    1.8087888836   -1.1169245190
H        7.2025515504    3.4960249624   -1.0938594285
H        6.6508240364    2.4216891782   -3.5103271949
22   
torsion grid (15,)
C        3.5033791073   -0.8390616126   -0.3552653096
C        2.1637499591   -1.1197329833   -0.0821738440
C        1.6259170929    1.2440691953   -0.4179463848
C        3.9292989955    0.4594192820   -0.6699767256
C        2.9674483222    1.4931146173   -0.7086380990
C        1.2565046677   -0.0629959663   -0.1151452033
C        5.3255614474    0.8232731984   -0.8832893755
C        5.6489783935    2.0359024336   -1.3683450030
C        4.5174323491    2.9639547737   -1.7580780880
C        7.0588965702    2.5038021258   -1.5758660263
O        3.3382528770    2.7871597952   -0.9524944664
O        7.4394104056    2.6119735900   -2.9640393215
F       -0.0492307425   -0.3144675963    0.1541871307
H        4.2374268714   -1.6402157092   -0.3165491661
H        1.8219008553   -2.1206951964    0.1588932938
H        0.8940592414    2.0446392905   -0.4328490076
H        6.0995541364    0.1079598477   -0.6121050402
H        4.8004537822    4.0111248778   -1.6246899141
H        4.2312823488    2.8235285403   -2.8139915803
H        7.7583338217    1.8036413461   -1.1090676724
H        7.1976319868    3.4867714061   -1.1030437686
H        6.6424594473    2.5881434089   -3.5134067299
22   
torsion grid (30,)
C        3.4434084532   -0.8456404595   -0.3876413588
C        2.1020874998   -1.0925994136   -0.0909097380
C        1.6274912082    1.2927026031   -0.3606175049
C        3.9014170718    0.4465328447   -0.6822618526
C        2.9693896166    1.5077108814   -0.6756783657
C        1.2259090683   -0.0096053494   -0.0791404480
C        5.3029657291    0.7744228487   -0.9193651881
C        5.6509614124    1.9878864601   -1.3841605244
C        4.5390259819    2.9559780043   -1.7268759280
C        7.0703546443    2.4201842381   -1.6115281527
O        3.3730918051    2.7958995688   -0.8993184898
O        7.4280086617    2.5534569886   -3.0023545008
F       -0.0806345924   -0.2289863852    0.2139478819
H        4.1535585740   -1.6689459962   -0.3840435844
H        1.7357913273   -2.0884919557    0.1347667000
H        0.9199208606    2.1147489735   -0.3411782080
H        6.0610044536    0.0304429055   -0.6825565573
H        4.8543681256    3.9919923845   -1.5759564310
H        4.2268406118    2.8460675762   -2.7791903856
H        7.7609919908    1.6837684717   -1.1932322739
H        7.2490970218    3.3799405366   -1.1031597468
H        6.6415258443    2.8036044313   -3.5098248229
22   
torsion grid (45,)
C        3.4194983683   -0.8359767523   -0.3676417784
C        2.0750484435   -1.0722715876   -0.0756226000
C        1.6161095814    1.3105198380   -0.3823108676
C        3.8865959882    0.4493280745   -0.6773597737
C        2.9608193943    1.5156333505   -0.6917878022
C        1.2043306536    0.0149320675   -0.0846976558
C        5.2914626717    0.7655910617   -0.9121980687
C        5.6490187287    1.9708926732   -1.3894332536
C        4.5459361950    2.9409452242   -1.7508714876
C        7.0722234696    2.3963018554   -1.6115127601
O        3.3723262044    2.7989784781   -0.9311804360
O        7.4223594187    2.5761769159   -2.9967652590
F       -0.1055606741   -0.1929744272    0.2030454011
H        4.1251355808   -1.6629485600   -0.3483873342
H        1.7023977659   -2.0631076509    0.1616139610
H        0.9128000645    2.1363888952   -0.3794041355
H        6.0433107617    0.0188158411   -0.6645140181
H        4.8650765831    3.9777772351   -1.6090158036
H        4.2444454220    2.8181064328   -2.8046000400
H        7.7578099170    1.6339545292   -1.2356057869
H        7.2681120386    3.3294635925   -1.0599515939
H        6.7168371659    3.0722866107   -3.4396276168
22   
torsion grid (60,)
C        3.4331806208   -0.8559956699   -0.3279478280
C        2.0903384007   -1.0942867976   -0.0295217265
C        1.6166805352    1.2799528688   -0.3847042886
C        3.8914316920    0.4258135193   -0.6636865692
C        2.9600716607    1.4866177857   -0.6985103961
C        1.2140491805   -0.0121978413   -0.0605158915
C        5.2938937057    0.7439624032   -0.9112149641
C        5.6446796087    1.9426349794   -1.4082879550
C        4.5391655015    2.9037928953   -1.7813023600
C        7.0647928410    2.3709421328   -1.6475834011
O        3.3633503209    2.7677309646   -0.9636200166
O        7.3657765972    2.6370948871   -3.0289667857
F       -0.0945739910   -0.2219127022    0.2324678157
H        4.1438143469   -1.6782152700   -0.2934264103
H        1.7236246195   -2.0822446264    0.2281774028
H        0.9081844076    2.1013097787   -0.3983318752
H        6.0492460068    0.0016584842   -0.6603994086
H        4.8526342305    3.9442525392   -1.6483986386
H        4.2466844618    2.7676499123   -2.8351084712
H        7.7522804740    1.5768301178   -1.3493288919
H        7.2932208554    3.2607145624   -1.0397332899
H        6.7877237412    3.3489263013   -3.3447349857
22   
torsion grid (75,)
C        3.4049088834   -0.8381659246   -0.3128615967
C        2.0583219668   -1.0658040876   -0.0225473914
C        1.6014560542    1.3061951556   -0.4090952183
C        3.8740430116    0.4367115708   -0.6593304314
C        2.9486809463    1.5020993186   -0.7138604961
C        1.1882707671    0.0204353827   -0.0731509985
C        5.2803930959    0.7431526311   -0.9004211586
C        5.6403797960    1.9354929421   -1.4054387161
C        4.5462852882    2.9010394543   -1.7964382981
C        7.0641824235    2.3515532303   -1.6443145255
O        3.3602075655    2.7777733990   -0.9905428575
O        7.3411019114    2.6632143060   -3.0215448882
F       -0.1241320842   -0.1784341119    0.2115876580
H        4.1103014739   -1.6641547516   -0.2635776964
H        1.6841266444   -2.0487854092    0.2432894293
H        0.8978224238    2.1313169596   -0.4383752998
H        6.0293969399   -0.0027602234   -0.6408904720
H        4.8637636807    3.9407620372   -1.6662384379
H        4.2688587141    2.7603321450   -2.8528160623
H        7.7404811637    1.5339375326   -1.3851305197
H        7.3187455665    3.2122556035   -1.0068760186
H        6.9533135504    3.5269174032   -3.2302263248
22   
torsion grid (90,)
C        3.3867989104   -0.8246545916   -0.3034649539
C        2.0383979591   -1.0447998954   -0.0152706530
C        1.5913178553    1.3248648032   -0.4248681203
C        3.8623827740    0.4449793205   -0.6598330654
C        2.9405216017    1.5128627563   -0.7266303743
C        1.1722695346    0.0438294583   -0.0785256521
C        5.2704850840    0.7437493814   -0.9006731647
C        5.6354052789    1.9313431674   -1.4130326098
C        4.5481127402    2.8993449603   -1.8144885571
C        7.0599983318    2.3407012571   -1.6542696693
O        3.3567534041    2.7841696804   -1.0135657316
O        7.3068662184    2.6898821669   -3.0294921403
F       -0.1419661625   -0.1477723500    0.2038179507
H        4.0887891859   -1.6529363327   -0.2447921883
H        1.6598715748   -2.0240390303    0.2581326883
H        0.8908890830    2.1523137732   -0.4642664275
H        6.0160328771   -0.0042633151   -0.6369555767
H        4.8687886374    3.9381845485   -1.6878182022
H        4.2786637681    2.7553637212   -2.8716436955
H        7.7303508653    1.5091371418   -1.4220020863
H        7.3311130607    3.1808432791   -0.9978110383
H        7.1407898127    3.6369569136   -3.1458200163
22   
torsion grid (105,)
C        3.3630648140   -0.7926150787   -0.3153257080
C        2.0137674140   -1.0058381057   -0.0261791773
C        1.5771276699    1.3659438433   -0.4391528665
C        3.8434737014    0.4746496764   -0.6736727254
C        2.9271197835    1.5474431734   -0.7419134317
C        1.1531677781    0.0871437345   -0.0907664675
C        5.2526803723    0.7671648454   -0.9153542827
C        5.6235188131    1.9526524786   -1.4284931961
C        4.5412115283    2.9238743144   -1.8342522359
C        7.0483255646    2.3553722508   -1.6708119112
O        3.3494427032    2.8156725146   -1.0310949032
O        7.2682286967    2.7153875475   -3.0496012940
F       -0.1618591479   -0.0981213077    0.1926442075
H        4.0613877791   -1.6239756792   -0.2558984805
H        1.6305438461   -1.9828094645    0.2488194395
H        0.8803375505    2.1964228222   -0.4795503575
H        5.9948392300    0.0160084810   -0.6511351899
H        4.8668046457    3.9612042949   -1.7129474056
H        4.2719115132    2.7766588442   -2.8904252140
H        7.7171866598    1.5210243098   -1.4384663681
H        7.3215783988    3.1939379764   -1.0143223687
H        7.3380847449    3.6783704060   -3.1152070031
22   
torsion grid (120,)
C        3.3529256606   -0.7797786231   -0.3207438639
C        2.0044651535   -0.9922342353   -0.0272984028
C        1.5713034014    1.3803958249   -0.4404226169
C        3.8345936979    0.4864839368   -0.6811179758
C        2.9204180276    1.5616270600   -0.7477950772
C        1.1460646340    0.1025736091   -0.0900778260
C        5.2439031681    0.7757628056   -0.9257704954
C        5.6125096795    1.9611484238   -1.4409376982
C        4.5321154351    2.9337192456   -1.8482246423
C        7.0353071500    2.3663116802   -1.6805538698
O        3.3433741498    2.8287320224   -1.0390459838
O        7.2248660568    2.7523112488   -3.0573302688
F       -0.1685556142   -0.0801857239    0.1972410488
H        4.0503978939   -1.6119764689   -0.2629149029
H        1.6207253156   -1.9685739054    0.2492810850
H        0.8753455561    2.2116209210   -0.4791894817
H        5.9860625604    0.0244117149   -0.6619460207
H        4.8603436526    3.9703402552   -1.7335249839
H        4.2589973283    2.7823591222   -2.9023614505
H        7.7081421059    1.5319027685   -1.4537284520
H        7.3015925573    3.2005577755   -1.0157166190
H        7.5252444470    3.6714192780   -3.0873450344
22   
torsion grid (135,)
C        3.3473659300   -0.7740103106   -0.3270528219
C        1.9995969133   -0.9857262428   -0.0298237768
C        1.5656573062    1.3874325945   -0.4366408311
C        3.8283684276    0.4927032064   -0.6865668107
C        2.9140108085    1.5681944469   -0.7481859050
C        1.1409328806    0.1092062834   -0.0874374647
C        5.2370417742    0.7825700662   -0.9340244168
C        5.6041830752    1.9686438103   -1.4485989290
C        4.5222523067    2.9404824780   -1.8537898083
C        7.0248778983    2.3789699566   -1.6834347461
O        3.3366851790    2.8350753248   -1.0387249980
O        7.1880371042    2.7839662249   -3.0571810043
F       -0.1728583835   -0.0738751703    0.2038634960
H        4.0445401433   -1.6067172869   -0.2728408238
H        1.6162681006   -1.9623964460    0.2460944468
H        0.8701103919    2.2191768977   -0.4716749652
H        5.9799183195    0.0315327194   -0.6715788388
H        4.8514152956    3.9766467382   -1.7432537362
H        4.2446239847    2.7870086366   -2.9061876648
H        7.7038867228    1.5478728329   -1.4564675063
H        7.2790891184    3.2140671227   -1.0139695962
H        7.7002999856    3.6047600754   -3.0813121894
22   
torsion grid (150,)
C        3.3288601084   -0.7476029943   -0.3409410767
C        1.9798678422   -0.9547987829   -0.0458906655
C        1.5564279230    1.4206627919   -0.4458368658
C        3.8156898765    0.5180550351   -0.6962099286
C        2.9057880383    1.5974679788   -0.7557930831
C        1.1252858584    0.1434625215   -0.1008861905
C        5.2260165826    0.8033291113   -0.9396868692
C        5.5985805286    1.9889470161   -1.4510927449
C        4.5210014438    2.9659875600   -1.8562302377
C        7.0203961659    2.3988779285   -1.6738608732
O        3.3337970886    2.8631026969   -1.0424504767
O        7.1742721658    2.8146137119   -3.0435759018
F       -0.1896344982   -0.0350969860    0.1884918749
H        4.0225745257   -1.5832916557   -0.2881797475
H        1.5924260747   -1.9307755485    0.2266650631
H        0.8644348228    2.2554129055   -0.4791441362
H        5.9654165559    0.0494965569   -0.6756642122
H        4.8549799323    4.0000381392   -1.7444374295
H        4.2435397691    2.8150527500   -2.9089908102
H        7.6980104491    1.5664893418   -1.4426554931
H        7.2661890906    3.2341032389   -0.9998651755
H        7.8710710715    3.4863493208   -3.0849092698
22   
torsion grid (165,)
C        3.3400477564   -0.7531271255   -0.3452758118
C        1.9932862015   -0.9714267075   -0.0481604151
C        1.5535518483    1.4040912669   -0.4359151131
C        3.8178277089    0.5173600585   -0.6955269322
C        2.9010000479    1.5912837335   -0.7481315027
C        1.1323166017    0.1221754518   -0.0962594224
C        5.2257687305    0.8126797543   -0.9411611161
C        5.5892447469    2.0027745311   -1.4483935143
C        4.5048465964    2.9756237672   -1.8456384285
C        7.0078495238    2.4214834931   -1.6729842026
O        3.3202499490    2.8608316714   -1.0293943146
O        7.1434080553    2.8446330397   -3.0410263668
F       -0.1807114568   -0.0663002886    0.1951801562
H        4.0395172943   -1.5843378478   -0.2980709378
H        1.6127404710   -1.9511887958    0.2205909961
H        0.8558869559    2.2343311692   -0.4635328266
H        5.9703161852    0.0623299986   -0.6818594650
H        4.8330545065    4.0107870811   -1.7294050475
H        4.2256678298    2.8281969446   -2.8984917505
H        7.6886073566    1.5897505958   -1.4464960154
H        7.2524206435    3.2570803767   -0.9976863781
H        7.9769220436    3.3324421258   -3.1271896383
22   
torsion grid (180,)
C        3.3263747120   -0.7275985688   -0.3576637246
C        1.9777630455   -0.9440921369   -0.0674197088
C        1.5427453551    1.4331873281   -0.4485565583
C        3.8071045168    0.5434460223   -0.7013491385
C        2.8919329707    1.6189510904   -0.7540703225
C        1.1183187585    0.1506440817   -0.1154024582
C        5.2166757621    0.8374688084   -0.9393464550
C        5.5842138520    2.0285193319   -1.4408229671
C        4.5037539463    3.0064090283   -1.8371079698
C        7.0047618377    2.4456521205   -1.6570105534
O        3.3138404485    2.8887400486   -1.0288909943
O        7.1434432727    2.8762586145   -3.0221839964
F       -0.1963048742   -0.0371041259    0.1695412781
H        4.0242559230   -1.5601544459   -0.3100732621
H        1.5945534182   -1.9241664075    0.1962945817
H        0.8464987488    2.2646334655   -0.4761731252
H        5.9585976139    0.0848238982   -0.6790201328
H        4.8337028304    4.0398762255   -1.7119256048
H        4.2302446138    2.8664545190   -2.8925425677
H        7.6781100458    1.6073722779   -1.4328287374
H        7.2536923237    3.2765663070   -0.9769413464
H        8.0641871264    3.1467199773   -3.1626260143
