27   
torsion grid (-165,)
C        0.7006234885   -3.6273991115   -6.0032975795
C        0.3412510597   -2.3506186718   -4.2925715648
C       -0.9111311268   -2.6836399408   -4.8482551884
C        0.4965698469    2.2707799944   -1.8974015764
C       -0.5730105756    1.8318025626   -5.2375320335
C       -0.6881115646    1.4152220142   -2.3523544096
C       -0.2408794676    0.4375334901   -4.7084945236
N        1.3233674086   -2.9670884314   -5.0400866203
N        0.6550418934   -1.7776727000   -3.0820810458
N        0.2223483531   -0.7031065400   -2.5607017025
N       -0.6487226970   -3.5030820643   -5.9368033209
N       -0.2929388262    0.3069873025   -3.2404119477
N       -2.2287913788   -2.4024330764   -4.4747643461
O       -3.1409356569   -2.8961858048   -5.1800669402
O       -2.4155688710   -1.6751416231   -3.4793983171
H        1.1923122055   -4.2107008625   -6.7721080937
H        1.0022312427    2.7485022034   -2.7419643910
H        0.1501943328    3.0574294093   -1.2187815951
H        1.2239219889    1.6506047662   -1.3666312238
H        0.0747485399    2.6087656134   -4.8247300000
H       -0.4290881229    1.8216513426   -6.3221983182
H       -1.6149781578    2.1018140128   -5.0493480734
H       -1.1807534855    0.9606922986   -1.4920205888
H       -1.4356186993    2.0149056532   -2.8709261172
H       -0.9397042448   -0.2680240524   -5.1615503146
H        0.7660960598    0.1392019593   -5.0242872291
H       -1.3699625074   -3.9260232317   -6.5097829043
27   
torsion grid (-150,)
C        0.6146890001   -3.6146214911   -6.1025451765
C        0.4082747257   -2.3469977243   -4.3605930830
C       -0.8895181276   -2.6799230415   -4.8024885073
C        0.2645133722    2.3117253643   -1.8858038621
C       -0.3035105404    1.8491680233   -5.2660008621
C       -0.7615102267    1.2957729011   -2.3906440443
C       -0.2630828365    0.4056914428   -4.7619096333
N        1.3203986411   -2.9567257956   -5.1961049436
N        0.8244570264   -1.7695231860   -3.1820880878
N        0.3945873182   -0.7041754657   -2.6388673612
N       -0.7229939187   -3.4924135755   -5.9152720121
N       -0.1887148403    0.2842271048   -3.2975479944
N       -2.1705552648   -2.4164371566   -4.3080492950
O       -3.1374487405   -2.9154257354   -4.9321115938
O       -2.2769542284   -1.7025771464   -3.2911778078
H        1.0365176774   -4.1940898056   -6.9145414548
H        0.6814760941    2.9115509141   -2.6991204198
H       -0.2090108238    2.9913443811   -1.1693744870
H        1.0844133697    1.7946656793   -1.3798451279
H        0.5712946937    2.4179884119   -4.9415438645
H       -0.3012563733    1.8259580941   -6.3599818449
H       -1.2051425240    2.3804257002   -4.9530808103
H       -1.1990366650    0.7501063552   -1.5540261526
H       -1.5842050710    1.7839880913   -2.9149422958
H       -1.1396124495   -0.1333788861   -5.1383150319
H        0.6223951948   -0.0898297023   -5.1670115805
H       -1.4917607891   -3.9185134534   -6.4201657534
27   
torsion grid (-135,)
C        0.5895651409   -3.5943965916   -6.1180505069
C        0.4353565813   -2.3160429826   -4.3771865725
C       -0.8740508939   -2.6816402897   -4.7572427589
C        0.1734889237    2.3087933786   -1.8911355060
C       -0.1674914994    1.8701280198   -5.2676792317
C       -0.8269642676    1.2749756558   -2.4112318783
C       -0.3473263598    0.4286261815   -4.7842919102
N        1.3207281548   -2.9140269599   -5.2489555496
N        0.8981249991   -1.7082280763   -3.2300225138
N        0.4502010441   -0.6513533070   -2.6842660642
N       -0.7402564590   -3.4963060621   -5.8726122456
N       -0.2322513755    0.2846219920   -3.3261563705
N       -2.1412560388   -2.4367315125   -4.2188065113
O       -3.1239262007   -2.9438389712   -4.8118985345
O       -2.2223764184   -1.7349073003   -3.1919281105
H        0.9868401415   -4.1737009983   -6.9424320493
H        0.5768990314    2.9281195224   -2.6964967523
H       -0.3178873229    2.9672213445   -1.1670409201
H        1.0043489918    1.8052100004   -1.3899107741
H        0.8140599143    2.2608805505   -4.9874843584
H       -0.2369635848    1.8776468495   -6.3598421769
H       -0.9361388674    2.5461841672   -4.8854627253
H       -1.2627814969    0.7148088158   -1.5828445151
H       -1.6546126367    1.7501181020   -2.9416000976
H       -1.3093160084    0.0260076402   -5.1250423902
H        0.4373422849   -0.1804043179   -5.2323092342
H       -1.5225078640   -3.9414328910   -6.3391302643
27   
torsion grid (-120,)
C       -2.2171292972   -2.9962980792   -2.5655203426
C       -0.4234674276   -2.0596518884   -3.3388073248
C       -1.1636828432   -2.5417425903   -4.4377150176
C       -0.9481957275    1.1516376308   -3.0625677109
C        1.7920721989    2.5765920389   -4.9527855947
C       -0.5630181533    0.6549311109   -4.4608873531
C        1.7589056201    1.1048388799   -5.3699468298
N       -1.1160476705   -2.3671887410   -2.1855010277
N        0.8756121104   -1.6163459270   -3.2599955968
N        1.4661051855   -0.7147508303   -3.9334690127
N       -2.2985325727   -3.1414132435   -3.9116868923
N        0.8548805164    0.2747728571   -4.5600044660
N       -0.9265703857   -2.5580258028   -5.8158047439
O       -1.7802436790   -3.1268559507   -6.5365103881
O        0.1036502207   -1.9992127630   -6.2404102758
H       -2.9837426532   -3.3637909054   -1.8945529762
H       -0.3468633982    2.0209633980   -2.7823757765
H       -2.0025495742    1.4464753690   -3.0625243784
H       -0.8140598008    0.3806035278   -2.3013604616
H        2.1152231570    2.6811149869   -3.9125476285
H        2.5029168854    3.1148920119   -5.5877808616
H        0.8193649023    3.0649782620   -5.0633352467
H       -1.2033933226   -0.1686214678   -4.7737756552
H       -0.7101054920    1.4502141655   -5.1934254292
H        1.4505111699    1.0107125934   -6.4179415769
H        2.7446954047    0.6504334901   -5.2729586540
H       -3.0003170296   -3.6093067793   -4.4739602726
27   
torsion grid (-105,)
C       -2.2057840484   -2.9577868183   -2.5130384018
C       -0.4220299359   -2.0156049752   -3.3032713808
C       -1.1462591928   -2.5431141342   -4.3916695563
C       -0.9906868784    1.1651498572   -3.1120252503
C        1.8634543757    2.5361252377   -4.8276961129
C       -0.6209900931    0.6573655953   -4.5113792681
C        1.6866882969    1.1357239490   -5.4194875117
N       -1.1173096716   -2.3004318952   -2.1456058444
N        0.8655553214   -1.5375039462   -3.2259395226
N        1.4348944352   -0.6506444498   -3.9364750156
N       -2.2755340627   -3.1433016080   -3.8549872467
N        0.7941314021    0.2707739239   -4.6350534384
N       -0.9017502392   -2.6011733366   -5.7681747255
O       -1.7533122341   -3.1907464512   -6.4750536095
O        0.1315889175   -2.0586767001   -6.2039204551
H       -2.9707487146   -3.3179873694   -1.8362780068
H       -0.3838005459    2.0336661250   -2.8423457572
H       -2.0435775009    1.4651576063   -3.1080013172
H       -0.8565015956    0.4014108764   -2.3441531179
H        2.2773460604    2.4777115080   -3.8166021666
H        2.5551047866    3.1124447113   -5.4507130799
H        0.9192080374    3.0878886000   -4.7844809669
H       -1.2705512887   -0.1646855281   -4.8126974620
H       -0.7713606817    1.4517298903   -5.2452198032
H        1.2827061023    1.1905996540   -6.4361268474
H        2.6424372690    0.6147968576   -5.4713358259
H       -2.9656407857   -3.6387743086   -4.4081067740
27   
torsion grid (-90,)
C       -2.1647357503   -2.9438795590   -2.5103828209
C       -0.3967085492   -1.9751267316   -3.3031430012
C       -1.0935896986   -2.5473277131   -4.3864423237
C       -1.0372548593    1.1728184631   -3.1794537292
C        1.9802521523    2.4738086694   -4.7349315218
C       -0.6669002854    0.6621150594   -4.5782383223
C        1.6350322922    1.1801053225   -5.4762443634
N       -1.0975518061   -2.2508625272   -2.1467802322
N        0.8742981049   -1.4524907410   -3.2206271517
N        1.4189230222   -0.5710516398   -3.9562012848
N       -2.2139307270   -3.1621243432   -3.8484443940
N        0.7509596481    0.2840789240   -4.7148739238
N       -0.8334513646   -2.6349284902   -5.7595069981
O       -1.6729166884   -3.2483668282   -6.4608047956
O        0.1998513938   -2.0952757300   -6.1965323176
H       -2.9279823443   -3.3080578589   -1.8338549429
H       -0.4325375275    2.0432639223   -2.9115825071
H       -2.0904518443    1.4718589584   -3.1798250159
H       -0.9052465609    0.4139287850   -2.4069145875
H        2.4608502449    2.2464169403   -3.7790570977
H        2.6712843600    3.0732735587   -5.3366853406
H        1.0915867061    3.0831606007   -4.5416225558
H       -1.3141729154   -0.1646099791   -4.8748600097
H       -0.8253959160    1.4554050322   -5.3115468047
H        1.1434626847    1.3888583876   -6.4309515759
H        2.5389643179    0.6098935423   -5.6908345871
H       -2.8847818866   -3.6873860010   -4.3978704028
27   
torsion grid (-75,)
C       -2.1402640709   -2.9672283661   -2.5640148551
C       -0.3924313293   -1.9655550320   -3.3596260909
C       -1.0611818164   -2.5792408925   -4.4372617569
C       -1.1082031570    1.1744813420   -3.2814590829
C        2.1274475420    2.3563497212   -4.6804575538
C       -0.7332059026    0.6407195117   -4.6705972622
C        1.5731527588    1.2230014043   -5.5465135266
N       -1.0965997586   -2.2371224707   -2.2046110670
N        0.8624264538   -1.4032063587   -3.2760412402
N        1.3827335347   -0.5162403468   -4.0212631850
N       -2.1692577762   -3.2141024017   -3.8978119623
N        0.6943060971    0.2957944679   -4.8103421858
N       -0.7854169624   -2.6851694421   -5.8064948754
O       -1.6026944679   -3.3321916514   -6.5036753420
O        0.2389215618   -2.1291863868   -6.2429961540
H       -2.8999084401   -3.3389857351   -1.8875768180
H       -0.5351970370    2.0745435020   -3.0431882632
H       -2.1720623137    1.4331659603   -3.2779253130
H       -0.9397870371    0.4417982561   -2.4907949048
H        2.6761933991    1.9434442668   -3.8299408285
H        2.8124969336    2.9748368580   -5.2697915924
H        1.3305961748    3.0039396288   -4.3010378006
H       -1.3593472234   -0.2108688180   -4.9405936992
H       -0.9204356278    1.4100886756   -5.4216315044
H        1.0004335761    1.6084603093   -6.3931701097
H        2.3899797781    0.6241969369   -5.9526373493
H       -2.8198459031   -3.7685789412   -4.4429463836
27   
torsion grid (-60,)
C       -2.1135239156   -2.9638408882   -2.5369583514
C       -0.3926085437   -1.9218258911   -3.3387167290
C       -1.0266321886   -2.5856367174   -4.4072748086
C       -1.2071153357    1.2330190153   -3.3320985650
C        2.3039943013    2.2525620703   -4.6041662836
C       -0.8023432098    0.6481269069   -4.6916342929
C        1.5062313636    1.3265608941   -5.5244406045
N       -1.1001198300   -2.1884416059   -2.1848695241
N        0.8442322535   -1.3202918107   -3.2578149623
N        1.3430022394   -0.4215956864   -4.0033037375
N       -2.1180863226   -3.2457050410   -3.8641105082
N        0.6425698862    0.3703109068   -4.7991321761
N       -0.7345478037   -2.7049761921   -5.7716268613
O       -1.5157261907   -3.4003589470   -6.4632598035
O        0.2664174683   -2.1091428591   -6.2106117631
H       -2.8675788627   -3.3448858171   -1.8594340421
H       -0.6799835326    2.1723180849   -3.1418651527
H       -2.2826994322    1.4374879728   -3.3367836637
H       -0.9993480305    0.5482747276   -2.5078802771
H        2.9352830039    1.6660312586   -3.9336435514
H        2.9442455047    2.9074491705   -5.2043982037
H        1.6433480293    2.8821245240   -3.9992775202
H       -1.3803939469   -0.2480960375   -4.9161009553
H       -1.0266524358    1.3625818233   -5.4847259572
H        0.8610578449    1.8966526360   -6.1948910853
H        2.1851858534    0.7404714830   -6.1492058890
H       -2.7438483976   -3.8348988389   -4.4017951565
27   
torsion grid (-45,)
C       -2.1182552552   -3.0210134632   -2.5624501809
C       -0.4250052747   -1.9007932368   -3.3173902649
C       -0.9884315642   -2.6072901213   -4.3994659595
C       -1.3861902928    1.2372720110   -3.4132388684
C        2.5121390089    2.0588131552   -4.7082993813
C       -0.8849299655    0.6295899392   -4.7290948198
C        1.4208780848    1.3710067848   -5.5278927160
N       -1.1591144718   -2.1901903013   -2.1854401248
N        0.7797382601   -1.2466049235   -3.2020262797
N        1.2749255165   -0.3385580857   -3.9410286389
N       -2.0624729394   -3.3180021762   -3.8849926142
N        0.5775342245    0.4435667969   -4.7411531195
N       -0.6432000092   -2.7228390614   -5.7501254720
O       -1.3504215419   -3.4779588303   -6.4585235098
O        0.3291471767   -2.0632481689   -6.1652776481
H       -2.8753970185   -3.4324163698   -1.9063828121
H       -0.9150722441    2.2082719324   -3.2325642723
H       -2.4691903377    1.3857920749   -3.4734088095
H       -1.1816665905    0.5898262049   -2.5582168158
H        3.2178669365    1.3321657774   -4.3043325179
H        3.0567191241    2.7580430734   -5.3512556964
H        2.0795812584    2.6204308326   -3.8741514775
H       -1.3953085564   -0.3078918377   -4.9449783015
H       -1.1103854729    1.2975889589   -5.5611518839
H        0.7508142055    2.1166063414   -5.9595785065
H        1.8603416813    0.8076557245   -6.3578938738
H       -2.6377196601   -3.9456309986   -4.4353106712
27   
torsion grid (-30,)
C       -2.1096630908   -3.0271152699   -2.6130866533
C       -0.4338435480   -1.8345270643   -3.2931434144
C       -0.9227660926   -2.5588704669   -4.4003290798
C       -1.5334383539    1.2453298275   -3.4400377247
C        2.6799322157    1.8830317122   -4.8514757701
C       -0.9265069372    0.6757739044   -4.7275767434
C        1.3574004563    1.4666579841   -5.4877364190
N       -1.2029077275   -2.1583433891   -2.1939946353
N        0.7397568470   -1.1383794862   -3.1274164646
N        1.2357103363   -0.2144097486   -3.8477493640
N       -1.9864364701   -3.3167009998   -3.9325031170
N        0.5409591173    0.5656888342   -4.6478554364
N       -0.5129958705   -2.6578602851   -5.7332831630
O       -1.1458340961   -3.4507841369   -6.4699801816
O        0.4398912150   -1.9465812716   -6.1090274574
H       -2.8762624893   -3.4715724683   -1.9903736005
H       -1.1163379073    2.2333916602   -3.2223546953
H       -2.6160664047    1.3483749736   -3.5652902449
H       -1.3530420194    0.5978150822   -2.5797486130
H        3.3491252599    1.0328221947   -4.7162703402
H        3.1669243034    2.6126422680   -5.5066009754
H        2.5147469713    2.3457863530   -3.8742880062
H       -1.3768817192   -0.2819224154   -4.9840793322
H       -1.1306151142    1.3438315317   -5.5656975564
H        0.7489540556    2.3555842367   -5.6767910018
H        1.5271322849    0.9726455274   -6.4518430720
H       -2.5112134944   -3.9662086347   -4.5072194457
27   
torsion grid (-15,)
C       -2.1178329357   -3.0218088188   -2.6049596293
C       -0.4492582870   -1.7957858852   -3.2427664773
C       -0.8818079018   -2.5459076124   -4.3566878823
C       -1.6099072127    1.2559629170   -3.4708084383
C        2.7352252163    1.7444281365   -4.9286030202
C       -0.9534328496    0.6831913569   -4.7321547804
C        1.3116403922    1.5311976258   -5.4267009400
N       -1.2481008429   -2.1254029473   -2.1664345440
N        0.6977050048   -1.0655428963   -3.0453590625
N        1.1974654062   -0.1430623756   -3.7665657577
N       -1.9423407826   -3.3241150997   -3.9155510386
N        0.5121310398    0.5997742127   -4.6070481330
N       -0.4235671698   -2.6526281846   -5.6727629433
O       -1.0145030555   -3.4671465206   -6.4209731538
O        0.5278075584   -1.9267914643   -6.0242668263
H       -2.8941003794   -3.4779831867   -2.0030273980
H       -1.2117354719    2.2506031170   -3.2474064169
H       -2.6886294127    1.3457179240   -3.6336557819
H       -1.4513817667    0.6176551684   -2.5994570059
H        3.3169092654    0.8220357160   -4.9616265054
H        3.2166760555    2.4867805851   -5.5734056335
H        2.7439906709    2.1136979932   -3.9000562732
H       -1.3792713458   -0.2845351102   -4.9933266481
H       -1.1398147575    1.3407158391   -5.5833073381
H        0.7776406179    2.4881667444   -5.4369518931
H        1.3163893467    1.1472357997   -6.4541306322
H       -2.4306951057   -3.9934716669   -4.4995019381
27   
torsion grid (0,)
C       -2.1485667337   -3.0148071498   -2.5851685984
C       -0.4789141351   -1.7726463209   -3.1882945265
C       -0.8645864702   -2.5452527557   -4.3039851269
C       -1.6656481719    1.2589982959   -3.4835282238
C        2.7440555431    1.6250745025   -4.9945929222
C       -0.9843303123    0.6749624487   -4.7264835818
C        1.2657278801    1.5772733167   -5.3535341951
N       -1.3061657268   -2.0996313996   -2.1326523152
N        0.6466489290   -1.0166329551   -2.9652820513
N        1.1510229954   -0.0981343135   -3.6886472558
N       -1.9275207190   -3.3323535552   -3.8852732501
N        0.4793273990    0.5981993936   -4.5788261120
N       -0.3636735703   -2.6655250177   -5.6034456052
O       -0.9254835787   -3.4934317111   -6.3597470024
O        0.5956444660   -1.9401272104   -5.9324440656
H       -2.9365107038   -3.4744195979   -2.0013036590
H       -1.2717649507    2.2555244799   -3.2607588716
H       -2.7405816220    1.3481579560   -3.6697459314
H       -1.5260500096    0.6286988717   -2.6032580715
H        3.2251135587    0.6590691273   -5.1603410557
H        3.2268576474    2.3724457102   -5.6325839720
H        2.8954513302    1.9034014741   -3.9496861005
H       -1.4015526458   -0.2975358762   -4.9851334880
H       -1.1572851729    1.3240335028   -5.5872933001
H        0.8094688856    2.5643156315   -5.2026133570
H        1.1413484742    1.3192836862   -6.4118696642
H       -2.3873345203   -4.0167614170   -4.4749565128
27   
torsion grid (15,)
C       -2.1848533173   -3.0069235334   -2.5822462397
C       -0.5111019771   -1.7535310888   -3.1492202159
C       -0.8511127609   -2.5460894368   -4.2651434563
C       -1.7107611785    1.2612456949   -3.4950917447
C        2.7400889749    1.5151410911   -5.0726506535
C       -1.0105440702    0.6693766501   -4.7240985317
C        1.2353718552    1.6196916996   -5.2778787049
N       -1.3676366423   -2.0760287656   -2.1159900356
N        0.5952645255   -0.9756589993   -2.9009278815
N        1.1043103000   -0.0583655840   -3.6211472456
N       -1.9183703183   -3.3391241222   -3.8702158326
N        0.4521734147    0.5940109986   -4.5611932893
N       -0.3084683755   -2.6788212213   -5.5472180454
O       -0.8457272356   -3.5155967661   -6.3116978250
O        0.6599106698   -1.9561584486   -5.8524860862
H       -2.9856650041   -3.4681003842   -2.0174773342
H       -1.3195960623    2.2586364021   -3.2715671867
H       -2.7821812461    1.3510561673   -3.7002303956
H       -1.5878965322    0.6363995234   -2.6085943559
H        3.1043372014    0.5249441956   -5.3563840002
H        3.2269096283    2.2637765415   -5.7061284440
H        3.0220863331    1.6960786381   -4.0342983743
H       -1.4230230407   -0.3058506902   -4.9816987241
H       -1.1735679789    1.3131361399   -5.5907803693
H        0.8723488167    2.6105292223   -4.9707496823
H        0.9971153865    1.5014018050   -6.3404799965
H       -2.3513729210   -4.0362881560   -4.4653049683
27   
torsion grid (30,)
C       -2.2230078512   -2.9942234424   -2.5890800287
C       -0.5457599285   -1.7295841869   -3.1180726460
C       -0.8376114665   -2.5422864910   -4.2322656535
C       -1.7609869085    1.2722208121   -3.5119375856
C        2.7164019616    1.4091726953   -5.1859875740
C       -1.0381090992    0.6705127663   -4.7233307055
C        1.2140859914    1.6623698152   -5.2030401931
N       -1.4322762640   -2.0473928197   -2.1094292389
N        0.5410459194   -0.9306239200   -2.8444998386
N        1.0538852415   -0.0122712507   -3.5581498801
N       -1.9088145930   -3.3414229254   -3.8623946374
N        0.4239266283    0.6026825951   -4.5425817203
N       -0.2513168677   -2.6868783733   -5.4946595185
O       -0.7601912702   -3.5340112797   -6.2669928891
O        0.7238467808   -1.9643137082   -5.7745879059
H       -3.0371155300   -3.4568577197   -2.0449436612
H       -1.3809847780    2.2751698635   -3.2945470691
H       -2.8296326662    1.3516384061   -3.7352100880
H       -1.6487795444    0.6592835325   -2.6158040100
H        2.9440037183    0.4281368302   -5.6110965826
H        3.2073783656    2.1777370272   -5.7918684206
H        3.1229075172    1.4470705746   -4.1747803816
H       -1.4415190121   -0.3104415274   -4.9745999597
H       -1.1943673405    1.3027777188   -5.5992313784
H        0.9748074734    2.6308575739   -4.7409949437
H        0.8622546660    1.6991948382   -6.2382025826
H       -2.3135027508   -4.0518467602   -4.4618091029
27   
torsion grid (45,)
C       -2.2526686746   -2.9876737685   -2.6182816006
C       -0.5746566289   -1.7080187659   -3.1056904694
C       -0.8178167975   -2.5370004186   -4.2187183588
C       -1.8167699812    1.2879445676   -3.5557478012
C        2.6709094818    1.2916713948   -5.3540124036
C       -1.0552409455    0.6741543858   -4.7373411707
C        1.2179061129    1.7001709415   -5.1330307602
N       -1.4901566391   -2.0253187936   -2.1237145366
N        0.4933536047   -0.8914490441   -2.8055452130
N        1.0104025764    0.0321310183   -3.5067875834
N       -1.8909567547   -3.3451550759   -3.8761458989
N        0.4031830691    0.6280845527   -4.5206566156
N       -0.1899012748   -2.6846994839   -5.4613114874
O       -0.6641674187   -3.5441648265   -6.2416377866
O        0.7848207206   -1.9529441592   -5.7156563775
H       -3.0787899309   -3.4545819014   -2.0964011502
H       -1.4608267874    2.3023210690   -3.3514055088
H       -2.8815404134    1.3416803821   -3.8041213769
H       -1.7135779588    0.6956002635   -2.6446428415
H        2.7215306381    0.3747854794   -5.9474143173
H        3.1890295953    2.0913931316   -5.8935363302
H        3.1845409048    1.1192844447   -4.4074018677
H       -1.4386565982   -0.3176714596   -4.9766930810
H       -1.2014859376    1.2843148576   -5.6298715054
H        1.1547582480    2.6067430630   -4.5155807360
H        0.7507475742    1.9243989980   -6.0946868542
H       -2.2668260472   -4.0669807890   -4.4807427741
27   
torsion grid (60,)
C       -2.2052441154   -3.0124952834   -2.7017874445
C       -0.5399845127   -1.6937478544   -3.1220688708
C       -0.7210113158   -2.5252621242   -4.2452727679
C       -1.8526713736    1.2711606355   -3.6521799566
C        2.6285531340    1.2113749617   -5.5581290948
C       -0.9997482663    0.6806135596   -4.7819517940
C        1.2957496581    1.7536067207   -5.0470778788
N       -1.4847069153   -2.0343697296   -2.1762345297
N        0.4982144656   -0.8567925668   -2.7785389244
N        1.0221211820    0.0843113965   -3.4510661119
N       -1.7864723668   -3.3599819813   -3.9446604509
N        0.4418762340    0.6901320731   -4.4736080935
N       -0.0409542964   -2.6553178654   -5.4616593339
O       -0.4563528751   -3.5304591878   -6.2576475471
O        0.9194758090   -1.8928406527   -5.6798190832
H       -3.0403512399   -3.4989572701   -2.2131027252
H       -1.5543081190    2.3027330473   -3.4417643686
H       -2.9039853867    1.2726593990   -3.9575229930
H       -1.7710482470    0.6927580395   -2.7297590466
H        2.4656078554    0.4433558537   -6.3188626934
H        3.2134995318    2.0280014827   -5.9945461976
H        3.2017662652    0.7698006754   -4.7406335575
H       -1.3308446236   -0.3263337674   -5.0342795268
H       -1.1152005128    1.2771155330   -5.6877642803
H        1.4579853177    2.5295605858   -4.2893602955
H        0.7317767490    2.2036072024   -5.8659982822
H       -2.1210821339   -4.0902434782   -4.5631805042
27   
torsion grid (75,)
C       -2.2175812181   -3.0350447417   -2.7420688486
C       -0.5480817030   -1.6924169051   -3.0627529453
C       -0.6534626095   -2.5238144696   -4.1957813179
C       -1.9119824320    1.2246763116   -3.7175833540
C        2.5026531360    1.1577755078   -5.6879756594
C       -0.9263415065    0.6791266937   -4.7580258613
C        1.3770886121    1.7756438000   -4.8589596585
N       -1.5426424046   -2.0472966271   -2.1748484292
N        0.4639539800   -0.8519140276   -2.6570568546
N        1.0112653813    0.1100146373   -3.2806571209
N       -1.7231730101   -3.3740802438   -3.9589341856
N        0.4718232729    0.7524885140   -4.2998353253
N        0.1005211512   -2.6411661995   -5.3679364447
O       -0.2388803747   -3.5330727869   -6.1807048219
O        1.0478763725   -1.8489073605   -5.5361049086
H       -3.0733848899   -3.5331397516   -2.3034018385
H       -1.6815671598    2.2672701848   -3.4780057526
H       -2.9280298826    1.1804662461   -4.1229775650
H       -1.8924114770    0.6455837597   -2.7920921756
H        2.1045295701    0.5848307419   -6.5298203525
H        3.1577347591    1.9470287350   -6.0726265088
H        3.0946451523    0.4800185414   -5.0685310056
H       -1.1858010311   -0.3386911258   -5.0458407988
H       -0.9738062945    1.2764989256   -5.6696976773
H        1.7911619201    2.3477433646   -4.0236563496
H        0.7713076083    2.4567393029   -5.4605129069
H       -2.0114573947   -4.1079963640   -4.5960705826
27   
torsion grid (90,)
C       -2.2957218673   -3.0102542725   -2.7773550408
C       -0.6006726065   -1.6810327443   -3.0062902806
C       -0.6408623400   -2.5231591932   -4.1353761966
C       -1.9269814957    1.2197603963   -3.7803442950
C        2.3419337204    1.1774860286   -5.7998975847
C       -0.8634538821    0.6782487279   -4.7428872170
C        1.4295139659    1.7643689838   -4.7217639224
N       -1.6511325094   -2.0204321108   -2.1788611170
N        0.3927592492   -0.8457009092   -2.5474102801
N        0.9784478891    0.1144937889   -3.1383357585
N       -1.7285591673   -3.3651295117   -3.9572411658
N        0.4946048888    0.7652805769   -4.1798406231
N        0.1846787077   -2.6556060821   -5.2561443322
O       -0.1028846009   -3.5579533993   -6.0771807037
O        1.1405589345   -1.8644570731   -5.3752687328
H       -3.1805388916   -3.4985672780   -2.3880339378
H       -1.7180943475    2.2627556188   -3.5232660333
H       -2.9093525351    1.1732666394   -4.2613625595
H       -1.9751271557    0.6401627508   -2.8562687395
H        1.7640626098    0.7845073997   -6.6416577389
H        3.0218102576    1.9507845350   -6.1738529160
H        2.9307504705    0.3553442134   -5.3870154085
H       -1.0935406628   -0.3409521413   -5.0493504923
H       -0.8438435872    1.2756290450   -5.6562877193
H        2.0218673732    2.1328516095   -3.8816347368
H        0.8405186065    2.6004725829   -5.1103151779
H       -1.9813723833   -4.1040554704   -4.6035507897
27   
torsion grid (105,)
C       -2.3731812179   -2.9824331530   -2.8266373209
C       -0.6584534806   -1.6672761551   -2.9788294352
C       -0.6432852646   -2.5231011042   -4.0986475660
C       -1.9038007735    1.2285210379   -3.8334494483
C        2.2030544932    1.2254312838   -5.9212143923
C       -0.8193941551    0.6638964225   -4.7589833083
C        1.4698660036    1.7208736545   -4.6729582843
N       -1.7548515979   -1.9898554787   -2.2058297434
N        0.3098264514   -0.8267338181   -2.4789916434
N        0.9399376661    0.1102647069   -3.0625250695
N       -1.7456683258   -3.3549384585   -3.9699975161
N        0.5215669379    0.7253849859   -4.1540473488
N        0.2413901575   -2.6785395687   -5.1703265179
O       -0.0163058204   -3.5816167183   -6.0007857251
O        1.2184365986   -1.9078480840   -5.2389172022
H       -3.2809931263   -3.4605646173   -2.4799609162
H       -1.6765021115    2.2642832674   -3.5629788685
H       -2.8668907192    1.2119965977   -4.3536365835
H       -2.0054705962    0.6473101198   -2.9150942959
H        1.5061912312    1.0051787185   -6.7360457374
H        2.9024965916    1.9932669880   -6.2688726334
H        2.7567934047    0.3109222708   -5.6984269797
H       -1.0593109811   -0.3502609349   -5.0763488101
H       -0.7575545671    1.2635982214   -5.6692256213
H        2.1764524878    1.9227980454   -3.8667354605
H        0.9188565440    2.6453693087   -4.8812600334
H       -1.9686077790   -4.0993920540   -4.6209515285
27   
torsion grid (120,)
C       -2.4421463427   -2.9668970320   -2.8936992968
C       -0.7193897570   -1.6560713659   -2.9737113764
C       -0.6459605518   -2.5280698394   -4.0790048778
C       -1.8732043232    1.2493004492   -3.8838544282
C        2.0896727173    1.3234214820   -6.0047998437
C       -0.7927222076    0.6439467889   -4.7884748579
C        1.4952876547    1.6807093338   -4.6409678475
N       -1.8551865611   -1.9670911888   -2.2548600120
N        0.2161399087   -0.8008532584   -2.4375616626
N        0.8867180752    0.1105115567   -3.0163536174
N       -1.7561721580   -3.3551440402   -3.9977058497
N        0.5425251512    0.6667242139   -4.1670306271
N        0.2915820788   -2.7023563405   -5.1026609639
O        0.0611071957   -3.6042569173   -5.9428418015
O        1.2829300429   -1.9481361578   -5.1235426272
H       -3.3675224088   -3.4396027383   -2.5885360270
H       -1.6159475999    2.2782178286   -3.6140396815
H       -2.8258615548    1.2633365575   -4.4228204023
H       -2.0136169810    0.6773211667   -2.9650540603
H        1.3210505856    1.2620318555   -6.7816487435
H        2.8072595426    2.0939542916   -6.3054767942
H        2.5997276469    0.3585165070   -5.9575456806
H       -1.0601128548   -0.3644115284   -5.1039136255
H       -0.7007472845    1.2361218018   -5.7005601919
H        2.2752651407    1.7414840741   -3.8818291762
H        0.9848516572    2.6519802930   -4.6833241750
H       -1.9456245256   -4.1079874405   -4.6496897255
27   
torsion grid (135,)
C       -2.4709778422   -2.9602748456   -2.8925349292
C       -0.7415877597   -1.6568842468   -2.9429340039
C       -0.6281611461   -2.5602288180   -4.0188500789
C       -1.8181818677    1.2492532995   -3.9258247181
C        1.9946891131    1.4461084683   -6.0617341372
C       -0.7480755568    0.5954854961   -4.8094193228
C        1.5389313328    1.6298078426   -4.6134844858
N       -1.9045711939   -1.9451938951   -2.2595000061
N        0.1717109711   -0.7825033577   -2.3959633217
N        0.8678584652    0.1040608365   -2.9802425600
N       -1.7441427007   -3.3806159637   -3.9581080192
N        0.5868697333    0.5917806791   -4.1835105607
N        0.3405689695   -2.7617304053   -5.0096002507
O        0.1236020639   -3.6737301392   -5.8427670053
O        1.3427175239   -2.0230752054   -5.0087343509
H       -3.4086366123   -3.4224921010   -2.6097170388
H       -1.5323553271    2.2742188220   -3.6700322335
H       -2.7631584443    1.2844323443   -4.4771488213
H       -1.9890432099    0.6982505284   -2.9995408811
H        1.1781193471    1.5793201075   -6.7775029755
H        2.7601287022    2.1927286149   -6.2964615963
H        2.4186013140    0.4488122746   -6.2060291229
H       -1.0415331622   -0.4117665385   -5.1054005369
H       -0.6389111465    1.1645578030   -5.7329175793
H        2.3844219878    1.5601721693   -3.9299024029
H        1.0778937095    2.6190383861   -4.4814249501
H       -1.9122618794   -4.1487572370   -4.5980985617
27   
torsion grid (150,)
C       -2.5391996935   -2.9093223135   -2.8896025789
C       -0.7760527578   -1.6531160440   -2.9376901106
C       -0.6515645699   -2.6029644726   -3.9695402612
C       -1.7588276818    1.2803572850   -4.0337546359
C        1.8834446848    1.7088343748   -6.0508800068
C       -0.6894378371    0.5493045581   -4.8557411704
C        1.5773145989    1.6311474712   -4.5558177636
N       -1.9662394417   -1.8829008416   -2.2803858849
N        0.1469102690   -0.7828501802   -2.3963769539
N        0.8641485661    0.0855908907   -2.9773539225
N       -1.7888244942   -3.3932550633   -3.9110570053
N        0.6341505573    0.5488120494   -4.2051172171
N        0.3407755429   -2.8607018731   -4.9241903748
O        0.1316435510   -3.8048980055   -5.7224163648
O        1.3523318515   -2.1361448406   -4.9269546800
H       -3.4973360777   -3.3354659439   -2.6191541911
H       -1.4618560860    2.3164203456   -3.8438695945
H       -2.6980097924    1.2920069045   -4.5959510418
H       -1.9470277297    0.7940708942   -3.0746378428
H        1.0406477773    2.0803838301   -6.6403506326
H        2.7148364690    2.4035329022   -6.2059984834
H        2.1768861229    0.7285937195   -6.4379363555
H       -1.0007415264   -0.4685782055   -5.0856349038
H       -0.5540367985    1.0461740746   -5.8153252079
H        2.4843353767    1.4236967038   -3.9893723037
H        1.1775259978    2.5925399441   -4.2031377543
H       -1.9560920037   -4.1839757546   -4.5232216376
27   
torsion grid (165,)
C       -2.5836926338   -2.8854659391   -2.8737891878
C       -0.7872337306   -1.6792459931   -2.9360349458
C       -0.6680975177   -2.6724325278   -3.9258299172
C       -1.6913952627    1.2766220182   -4.1744576434
C        1.7452509194    1.9275321981   -6.0106635003
C       -0.6178354889    0.4667442068   -4.9125137487
C        1.6419808605    1.5796819157   -4.5286454999
N       -1.9957185045   -1.8495589832   -2.2949322742
N        0.1539097812   -0.8193187490   -2.4077840803
N        0.8888296984    0.0306425237   -2.9916556110
N       -1.8273197624   -3.4294985733   -3.8599479388
N        0.6859592186    0.4868297638   -4.2259922100
N        0.3345973086   -2.9859255253   -4.8524605116
O        0.1237367511   -3.9611076427   -5.6116487875
O        1.3553003506   -2.2747563531   -4.8716176364
H       -3.5579928909   -3.2751075885   -2.6060935076
H       -1.3802448244    2.3193381788   -4.0561695842
H       -2.6199871508    1.2613209164   -4.7540012922
H       -1.9045577021    0.8653535014   -3.1853482191
H        0.8619761194    2.4508880382   -6.3873049430
H        2.5999492929    2.5963827643   -6.1507191832
H        1.9139276528    1.0335440720   -6.6191850767
H       -0.9420985849   -0.5602514080   -5.0659699662
H       -0.4513369199    0.8777524752   -5.9064977169
H        2.6065185004    1.2389568661   -4.1524984234
H        1.3625046607    2.4730592971   -3.9545696141
H       -2.0052761734   -4.2384929132   -4.4445745937
27   
torsion grid (180,)
C        0.7786793035   -3.6928076297   -5.9522344696
C        0.2875506236   -2.4277804107   -4.2656365105
C       -0.9153149204   -2.7449603751   -4.9270120863
C        0.6969481370    2.2183257293   -2.0574427782
C       -0.7923638716    1.7203611433   -5.2031068869
C       -0.5779273334    1.4119685257   -2.3191315858
C       -0.1749909416    0.4355020329   -4.6538623976
N        1.3235569698   -3.0460786662   -4.9336897278
N        0.5050535572   -1.8771038870   -3.0223220331
N        0.0976624449   -0.7893235039   -2.5148602494
N       -0.5705552655   -3.5575599167   -5.9967602223
N       -0.3558277540    0.2521286043   -3.2000405774
N       -2.2539016256   -2.4247984516   -4.6778615683
O       -3.1110339660   -2.8992771948   -5.4603826682
O       -2.5068230740   -1.6821068638   -3.7098840228
H        1.3283721535   -4.2741467005   -6.6821991319
H        1.1202291285    2.6262193553   -2.9807263889
H        0.4792272668    3.0564916483   -1.3872177982
H        1.4520437391    1.5841164097   -1.5841266657
H       -0.3391955815    2.6262037745   -4.7938951813
H       -0.6373252904    1.7347381305   -6.2862101106
H       -1.8700726879    1.7487769218   -5.0210746359
H       -0.9709360444    1.0097525651   -1.3852570336
H       -1.3583658785    2.0327113872   -2.7605715030
H       -0.6405913296   -0.3978114726   -5.1733890770
H        0.9005273624    0.3902054464   -4.8745415972
H       -1.2442347579   -3.9647985431   -6.6353882280
