
  -OEChem-05262117483D

 21 21  0     0  0  0  0  0  0999 V2000
    3.7973   -2.5821   -2.2610 C   0  0  0  0  0  0  0  0  0  0  0  0
    4.5698   -1.5042   -2.6272 C   0  0  0  0  0  0  0  0  0  0  0  0
    2.7022   -0.8303   -1.6284 C   0  0  0  0  0  0  0  0  0  0  0  0
    2.0683    0.3932    0.4636 C   0  0  0  0  0  0  0  0  0  0  0  0
    0.2779   -0.5144   -1.0885 C   0  0  0  0  0  0  0  0  0  0  0  0
    4.2641    0.9988   -2.4307 C   0  0  0  0  0  0  0  0  0  0  0  0
    1.6876    0.0873   -1.0004 C   0  0  0  0  0  0  0  0  0  0  0  0
    2.6420   -2.1536   -1.6414 N   0  0  0  0  0  0  0  0  0  0  0  0
    3.8654   -0.3834   -2.2143 N   0  0  0  0  0  0  0  0  0  0  0  0
    4.0054   -3.6342   -2.4080 H   0  0  0  0  0  0  0  0  0  0  0  0
    5.5227   -1.4248   -3.1317 H   0  0  0  0  0  0  0  0  0  0  0  0
    2.0637   -0.5296    1.0522 H   0  0  0  0  0  0  0  0  0  0  0  0
    1.3537    1.0930    0.9108 H   0  0  0  0  0  0  0  0  0  0  0  0
    3.0683    0.8337    0.5409 H   0  0  0  0  0  0  0  0  0  0  0  0
    0.2398   -1.4738   -0.5665 H   0  0  0  0  0  0  0  0  0  0  0  0
   -0.0111   -0.6917   -2.1286 H   0  0  0  0  0  0  0  0  0  0  0  0
   -0.4518    0.1642   -0.6339 H   0  0  0  0  0  0  0  0  0  0  0  0
    3.6348    1.4793   -3.1873 H   0  0  0  0  0  0  0  0  0  0  0  0
    4.1996    1.5714   -1.5020 H   0  0  0  0  0  0  0  0  0  0  0  0
    5.2992    1.0204   -2.7752 H   0  0  0  0  0  0  0  0  0  0  0  0
    1.6910    1.0340   -1.5564 H   0  0  0  0  0  0  0  0  0  0  0  0
  1  2  2  0  0  0  0
  1  8  1  0  0  0  0
  1 10  1  0  0  0  0
  2  9  1  0  0  0  0
  2 11  1  0  0  0  0
  3  7  1  0  0  0  0
  3  8  2  0  0  0  0
  3  9  1  0  0  0  0
  4  7  1  0  0  0  0
  4 12  1  0  0  0  0
  4 13  1  0  0  0  0
  4 14  1  0  0  0  0
  5  7  1  0  0  0  0
  5 15  1  0  0  0  0
  5 16  1  0  0  0  0
  5 17  1  0  0  0  0
  6  9  1  0  0  0  0
  6 18  1  0  0  0  0
  6 19  1  0  0  0  0
  6 20  1  0  0  0  0
  7 21  1  0  0  0  0
M  END
$$$$
