21
0 1 C7H12N2
C                     3.797346823610    -2.582059714509    -2.261026115075
C                     4.569827629339    -1.504231762320    -2.627193704483
C                     2.702198901316    -0.830321589389    -1.628442121080
C                     2.068314935876     0.393179133204     0.463615879676
C                     0.277895845819    -0.514434158952    -1.088522269068
C                     4.264066639841     0.998813936354    -2.430734072054
C                     1.687566180643     0.087275085939    -1.000350910396
N                     2.641985900888    -2.153630833153    -1.641399728889
N                     3.865390715403    -0.383371415699    -2.214284643488
H                     4.005434881822    -3.634166473904    -2.408044953550
H                     5.522691388664    -1.424790001963    -3.131725984138
H                     2.063670702047    -0.529560472557     1.052226633909
H                     1.353704526565     1.093038378511     0.910801314970
H                     3.068315515083     0.833737391241     0.540885796217
H                     0.239762357040    -1.473760897138    -0.566502688182
H                    -0.011119526643    -0.691675689081    -2.128624172471
H                    -0.451849285723     0.164153533055    -0.633914282002
H                     3.634791538026     1.479271055388    -3.187260486511
H                     4.199569304297     1.571357346441    -1.501979039059
H                     5.299195166482     1.020448759226    -2.775223350807
H                     1.691019093693     1.034026980776    -1.556377614924
