19
0 1 C6H11NO
C                    -1.657885011904     1.544153896530     0.237456350926
C                    -0.935700145211     0.446435977486     1.006364591345
C                    -1.864819765428    -0.402340296701     1.898162464749
C                    -2.228101174703     0.239660051210     3.244272398740
C                    -2.995197099595     1.565779977394     3.159597673739
C                    -2.239177213563     2.685488908490     2.430049814169
N                    -2.218098386603     2.553327323467     0.975077909532
O                    -1.752569420184     1.526099105658    -0.990909870364
H                    -0.467185349298    -0.180366707857     0.245803290616
H                    -0.133477966252     0.881198094034     1.617247832280
H                    -2.775936808689    -0.646819787023     1.338037949487
H                    -1.363052606036    -1.355653872531     2.099377595808
H                    -2.822951997188    -0.474433643014     3.826276333163
H                    -1.303715806651     0.404917373841     3.815567892545
H                    -3.962512079990     1.415945752114     2.664313707776
H                    -3.208703260390     1.909554136648     4.179460930132
H                    -2.715619025882     3.645795116650     2.644417237333
H                    -1.213953624864     2.754882800141     2.818100066596
H                    -2.717504838833     3.237083203535     0.418895965577
