26
0 1 C11H13NO
C                    -6.386037927626    -1.067670644343     0.349495580922
C                    -5.816009146477    -0.549960814956    -0.816761672079
C                    -5.725181064203    -2.088275002836     1.041913049449
C                    -4.593258860671    -1.041900132234    -1.285143231754
C                    -4.505023270469    -2.577679005639     0.570168753813
C                    -3.920466743934    -2.059657056949    -0.595548177505
C                    -2.353605763334    -2.433361648575    -2.537165574106
C                    -1.168097953594    -0.515169059095    -0.677436059519
C                    -1.415656535601    -1.950547262031    -0.213824492638
C                    -0.742416983657    -0.509415675124    -2.143734928266
C                    -2.559734056081    -2.592566649738    -1.029869113721
N                    -1.633834410397    -1.342321448504    -2.957895329222
O                    -2.854314589472    -3.216450372420    -3.342509835106
H                    -7.337853910783    -0.686978304692     0.710872476124
H                    -6.325829404038     0.235959821899    -1.368515778641
H                    -6.163106707951    -2.507547816672     1.944353502077
H                    -4.170021001372    -0.636650953698    -2.199810540796
H                    -4.001865094693    -3.377482723034     1.110407636181
H                    -2.079736135864     0.077450784020    -0.549261628983
H                    -0.383144869643    -0.040518183544    -0.079893894658
H                    -0.500190703439    -2.542191545791    -0.346270023568
H                    -1.665650661012    -1.978314836016     0.851338888915
H                    -0.758732331995     0.509467550366    -2.545165056039
H                     0.290254964786    -0.878810049577    -2.228291996005
H                    -2.559250552155    -3.673004048837    -0.860871407811
H                    -1.487439683525    -1.335373118890    -3.962520255778
