
  -OEChem-05262117483D

 36 38  0     1  0  0  0  0  0999 V2000
   -0.1677   -0.2386    4.5896 C   0  0  0  0  0  0  0  0  0  0  0  0
   -0.7264   -1.4148    4.0765 C   0  0  0  0  0  0  0  0  0  0  0  0
    1.0667    0.2068    4.1073 C   0  0  0  0  0  0  0  0  0  0  0  0
    3.8086   -3.8733    0.9477 C   0  0  0  0  0  0  0  0  0  0  0  0
    3.3617   -3.9259   -0.3753 C   0  0  0  0  0  0  0  0  0  0  0  0
   -0.0568   -2.1352    3.0843 C   0  0  0  0  0  0  0  0  0  0  0  0
    1.7352   -0.5166    3.1142 C   0  0  0  0  0  0  0  0  0  0  0  0
    3.0828   -3.1420    1.8904 C   0  0  0  0  0  0  0  0  0  0  0  0
    2.1994   -3.2438   -0.7415 C   0  0  0  0  0  0  0  0  0  0  0  0
    1.1796   -1.6923    2.5872 C   0  0  0  0  0  0  0  0  0  0  0  0
    1.9076   -2.4628    1.5355 C   0  0  0  0  0  0  0  0  0  0  0  0
    1.4614   -2.5109    0.1981 C   0  0  0  0  0  0  0  0  0  0  0  0
   -1.1587   -1.7547   -2.3650 C   0  0  0  0  0  0  0  0  0  0  0  0
   -0.9738   -0.2538   -2.5432 C   0  0  0  0  0  0  0  0  0  0  0  0
   -0.4976    0.4724   -1.2810 C   0  0  0  0  0  0  0  0  0  0  0  0
    0.6823   -0.2773   -0.6617 C   0  0  0  0  0  0  0  0  0  0  0  0
    0.2584   -1.6950   -0.2508 C   0  0  1  0  0  0  0  0  0  0  0  0
   -0.4402   -2.3536   -1.3605 N   0  0  0  0  0  0  0  0  0  0  0  0
   -1.8767   -2.4148   -3.1161 O   0  0  0  0  0  0  0  0  0  0  0  0
   -0.6887    0.3229    5.3607 H   0  0  0  0  0  0  0  0  0  0  0  0
   -1.6811   -1.7737    4.4524 H   0  0  0  0  0  0  0  0  0  0  0  0
    1.5094    1.1180    4.5018 H   0  0  0  0  0  0  0  0  0  0  0  0
    4.7114   -4.4003    1.2454 H   0  0  0  0  0  0  0  0  0  0  0  0
    3.9160   -4.4920   -1.1195 H   0  0  0  0  0  0  0  0  0  0  0  0
   -0.4880   -3.0548    2.6956 H   0  0  0  0  0  0  0  0  0  0  0  0
    2.6928   -0.1666    2.7364 H   0  0  0  0  0  0  0  0  0  0  0  0
    3.4180   -3.1021    2.9237 H   0  0  0  0  0  0  0  0  0  0  0  0
    1.8566   -3.2714   -1.7720 H   0  0  0  0  0  0  0  0  0  0  0  0
   -0.2411   -0.1263   -3.3501 H   0  0  0  0  0  0  0  0  0  0  0  0
   -1.9213    0.1404   -2.9178 H   0  0  0  0  0  0  0  0  0  0  0  0
   -0.2157    1.5029   -1.5223 H   0  0  0  0  0  0  0  0  0  0  0  0
   -1.3154    0.5306   -0.5515 H   0  0  0  0  0  0  0  0  0  0  0  0
    1.5085   -0.3435   -1.3800 H   0  0  0  0  0  0  0  0  0  0  0  0
    1.0599    0.2365    0.2270 H   0  0  0  0  0  0  0  0  0  0  0  0
   -0.4339   -1.5946    0.5921 H   0  0  0  0  0  0  0  0  0  0  0  0
   -0.6535   -3.3403   -1.2498 H   0  0  0  0  0  0  0  0  0  0  0  0
  1  2  1  0  0  0  0
  1  3  2  0  0  0  0
  1 20  1  0  0  0  0
  2  6  2  0  0  0  0
  2 21  1  0  0  0  0
  3  7  1  0  0  0  0
  3 22  1  0  0  0  0
  4  5  1  0  0  0  0
  4  8  2  0  0  0  0
  4 23  1  0  0  0  0
  5  9  2  0  0  0  0
  5 24  1  0  0  0  0
  6 10  1  0  0  0  0
  6 25  1  0  0  0  0
  7 10  2  0  0  0  0
  7 26  1  0  0  0  0
  8 11  1  0  0  0  0
  8 27  1  0  0  0  0
  9 12  1  0  0  0  0
  9 28  1  0  0  0  0
 10 11  1  0  0  0  0
 11 12  2  0  0  0  0
 12 17  1  0  0  0  0
 13 14  1  0  0  0  0
 13 18  1  0  0  0  0
 13 19  2  0  0  0  0
 14 15  1  0  0  0  0
 14 29  1  0  0  0  0
 14 30  1  0  0  0  0
 15 16  1  0  0  0  0
 15 31  1  0  0  0  0
 15 32  1  0  0  0  0
 16 17  1  0  0  0  0
 16 33  1  0  0  0  0
 16 34  1  0  0  0  0
 17 18  1  0  0  0  0
 17 35  1  0  0  0  0
 18 36  1  0  0  0  0
M  END
$$$$
