24
0 1 C8H12N2O2
C                     3.133151280620     3.079788087594    -4.342430995397
C                     3.980251565913     3.810106662020    -3.516113181951
C                     2.684249231497     1.978802472815    -3.572102358676
C                     3.268847271984     2.050112716234    -2.304402564655
C                     3.011741872712     1.295207790709    -1.060823699791
C                     4.850720872465     3.694519690417    -1.179565456587
C                     2.339625536441    -0.769290126445     0.024832333833
C                     3.241177257110    -0.894811527036    -2.265006157420
N                     4.052305245103     3.205941410442    -2.298393937348
N                     2.786013718641    -0.055788475684    -1.164303244983
O                     2.967975488322     1.879439836362     0.034680406392
O                     1.800546986234     0.999142634779    -3.955573587781
H                     2.872648791202     3.318165175115    -5.366387913774
H                     4.544051354489     4.709709094932    -3.723346269712
H                     4.207363126799     4.013724458703    -0.359201347145
H                     5.512672973961     2.907527554380    -0.810110655389
H                     5.456426146144     4.530639014119    -1.535379863205
H                     1.639150175399    -1.557748025147    -0.270866091707
H                     1.847010766787    -0.072721992964     0.701757472755
H                     3.183331234595    -1.231572077375     0.556064937582
H                     3.899105981940    -1.681116997433    -1.871540358338
H                     3.802526574193    -0.306270497192    -2.988131387892
H                     2.397956184737    -1.365227556123    -2.781146918169
H                     1.437460234796     1.244238463090    -4.820199222146
