
  -OEChem-05262117483D

 24 24  0     0  0  0  0  0  0999 V2000
    3.1585    3.0780   -4.3481 C   0  0  0  0  0  0  0  0  0  0  0  0
    4.3283    3.3135   -3.6342 C   0  0  0  0  0  0  0  0  0  0  0  0
    2.1769    2.7235   -3.3901 C   0  0  0  0  0  0  0  0  0  0  0  0
    2.7571    2.7594   -2.1189 C   0  0  0  0  0  0  0  0  0  0  0  0
    2.2671    2.3013   -0.8026 C   0  0  0  0  0  0  0  0  0  0  0  0
    5.0969    3.2688   -1.2598 C   0  0  0  0  0  0  0  0  0  0  0  0
    0.4111    1.9166    0.7136 C   0  0  0  0  0  0  0  0  0  0  0  0
    0.1267    3.5821   -1.0801 C   0  0  0  0  0  0  0  0  0  0  0  0
    4.0949    3.1120   -2.3083 N   0  0  0  0  0  0  0  0  0  0  0  0
    0.9497    2.5341   -0.4909 N   0  0  0  0  0  0  0  0  0  0  0  0
    3.0216    1.6941   -0.0245 O   0  0  0  0  0  0  0  0  0  0  0  0
    0.8713    2.3678   -3.6278 O   0  0  0  0  0  0  0  0  0  0  0  0
    3.0363    3.1496   -5.4220 H   0  0  0  0  0  0  0  0  0  0  0  0
    5.3033    3.6243   -3.9849 H   0  0  0  0  0  0  0  0  0  0  0  0
    4.7354    3.9486   -0.4845 H   0  0  0  0  0  0  0  0  0  0  0  0
    5.3203    2.3079   -0.7953 H   0  0  0  0  0  0  0  0  0  0  0  0
    5.9968    3.6912   -1.7118 H   0  0  0  0  0  0  0  0  0  0  0  0
    0.4501    2.6047    1.5696 H   0  0  0  0  0  0  0  0  0  0  0  0
    0.9944    1.0300    0.9583 H   0  0  0  0  0  0  0  0  0  0  0  0
   -0.6333    1.6370    0.5378 H   0  0  0  0  0  0  0  0  0  0  0  0
   -0.7388    3.1613   -1.6021 H   0  0  0  0  0  0  0  0  0  0  0  0
    0.7054    4.1692   -1.7906 H   0  0  0  0  0  0  0  0  0  0  0  0
   -0.2295    4.2511   -0.2854 H   0  0  0  0  0  0  0  0  0  0  0  0
    0.7516    2.2887   -4.5864 H   0  0  0  0  0  0  0  0  0  0  0  0
  1  2  2  0  0  0  0
  1  3  1  0  0  0  0
  1 13  1  0  0  0  0
  2  9  1  0  0  0  0
  2 14  1  0  0  0  0
  3  4  2  0  0  0  0
  3 12  1  0  0  0  0
  4  5  1  0  0  0  0
  4  9  1  0  0  0  0
  5 10  1  0  0  0  0
  5 11  2  0  0  0  0
  6  9  1  0  0  0  0
  6 15  1  0  0  0  0
  6 16  1  0  0  0  0
  6 17  1  0  0  0  0
  7 10  1  0  0  0  0
  7 18  1  0  0  0  0
  7 19  1  0  0  0  0
  7 20  1  0  0  0  0
  8 10  1  0  0  0  0
  8 21  1  0  0  0  0
  8 22  1  0  0  0  0
  8 23  1  0  0  0  0
 12 24  1  0  0  0  0
M  END
$$$$
