23
0 1 C6H13NO2S
C                    -0.837352221935     0.584109546420     1.722305526792
C                    -1.631324427635     1.236351108515     0.582393424726
C                    -0.102843468893    -0.684632652621     1.281805880423
C                    -0.740409385863     1.575881150121    -0.616152993978
C                     3.008879262132    -1.349337078876     0.985707486871
C                     1.870617129317    -1.455064849322    -0.028466860502
N                     0.862624751830    -0.391332437033     0.197210127425
O                    -0.992343660141    -0.879987601165    -1.605171082273
O                     1.096502171445     0.427574773463    -2.218243995005
S                     0.063077399626     0.080934357598    -1.236923794676
H                    -0.100150962327     1.295363585772     2.112679369892
H                    -1.516561152112     0.330934118746     2.543444558050
H                    -2.430961131411     0.567251383975     0.248688306559
H                    -2.105491751635     2.159721456468     0.932218116831
H                     0.476244656766    -1.078440697065     2.120208233365
H                    -0.812469018297    -1.464932967114     0.970295343488
H                    -1.310746238109     1.964096421168    -1.464120330839
H                     0.065192314558     2.270485110090    -0.368252298905
H                     3.496320419658    -0.373684086010     0.907425598291
H                     2.660671460412    -1.478280515026     2.015414286066
H                     3.752705349449    -2.128523914557     0.788991743255
H                     1.395698802312    -2.445151854415     0.011091607253
H                     2.273139076679    -1.321144464463    -1.034072839273
