56
0 1 C24FH28NO2
C                     1.622783750877    -4.253968123583    -0.230186117523
C                     2.231685270784    -3.124379120583     1.821550326064
C                    -0.731516197706     4.435186944335    -5.362812422115
C                     0.051958253991     3.401685997458    -5.877890023513
C                     0.854996360707    -5.169070156996     0.492038506254
C                     1.470203461005    -4.026479179969     2.559277683071
C                     1.942518543056     4.128899883897    -4.525090305310
C                     2.319457762134    -3.221955731032     0.421273151318
C                    -0.186607628084     5.314485429769    -4.423097652828
C                     1.141221217692     5.153686139382    -4.014311030474
C                     1.385983833697     3.244141316253    -5.461848244014
C                     0.793563416305    -5.035471633592     1.875805828287
C                     3.159076095513    -2.210082992311    -0.302377716169
C                    -0.815002533569     6.511663163369    -3.738642740248
C                     1.521070472211     6.231244766829    -3.018758937154
C                     0.146933588026     6.774712392198    -2.551939117014
C                     4.377662846777    -1.459792613774    -2.397112083584
C                     1.871519810387    -1.552315301398    -2.358970688898
C                     4.300649136674    -1.396984094381    -3.922839828551
C                     1.891128334342    -1.488248636727    -3.886758944088
C                     3.167371202295    -2.204864749378    -1.825920483141
C                     3.861996112390     0.652741264135    -6.266706894964
C                     3.027372386363    -0.554531207397    -5.819129725656
C                     3.407060908596     1.945828430090    -5.606183397308
N                     3.061689300929    -0.758763839206    -4.369833881616
O                     3.797829544353    -1.376666054913     0.332677583027
O                     2.061470235035     2.194183921226    -6.027607496425
F                     0.049540517400    -5.918323035985     2.584017437351
H                     1.671899788777    -4.359966128956    -1.308368189809
H                     2.774438845592    -2.324705511988     2.315239563585
H                    -1.762832103087     4.542565737096    -5.692603031243
H                    -0.348334841294     2.697638690244    -6.601984621966
H                     0.312443894407    -5.972355452971     0.003410356619
H                     1.392418628579    -3.962630404015     3.640320275687
H                     2.969490554426     4.023496933006    -4.192050098308
H                    -0.838964254471     7.373444443768    -4.420175700315
H                    -1.845301572023     6.332417363972    -3.413612482305
H                     2.133506155038     5.857524945483    -2.191539781457
H                     2.103176855343     7.016762768619    -3.520342853062
H                     0.183363411942     7.827443040941    -2.256876942402
H                    -0.189389443887     6.198215742592    -1.683244496199
H                     5.305511748466    -1.956386843678    -2.093604690490
H                     4.404951827601    -0.447029555563    -1.986863461016
H                     1.796434919466    -0.535020851106    -1.959284226492
H                     0.985917961815    -2.103553952315    -2.026622471059
H                     5.151627698242    -0.823962472140    -4.302282796683
H                     4.390464426685    -2.419472752377    -4.345400303978
H                     1.856999124225    -2.519404910511    -4.296423640771
H                     0.993526201870    -0.970375339207    -4.239308390817
H                     3.196388163675    -3.241142400207    -2.186941919427
H                     4.923150436811     0.505664433130    -6.036192856907
H                     3.786012996072     0.751294460543    -7.355618754878
H                     1.989377354398    -0.369892832926    -6.108156073253
H                     3.358090119256    -1.457718413737    -6.365323449760
H                     3.441075647099     1.835974606722    -4.516565091109
H                     4.049627597833     2.785288253728    -5.904494264901
