
  -OEChem-05262117483D

 25 25  0     0  0  0  0  0  0999 V2000
    1.9275   -0.9041   -0.1428 C   0  0  0  0  0  0  0  0  0  0  0  0
    0.8060   -0.3900    0.5079 C   0  0  0  0  0  0  0  0  0  0  0  0
    1.7876   -0.9893    2.6461 C   0  0  0  0  0  0  0  0  0  0  0  0
    3.0041   -1.4470    0.5717 C   0  0  0  0  0  0  0  0  0  0  0  0
    0.7483   -0.4420    1.8982 C   0  0  0  0  0  0  0  0  0  0  0  0
    2.9098   -1.4798    1.9781 C   0  0  0  0  0  0  0  0  0  0  0  0
    4.1486   -1.9469   -0.2981 C   0  0  0  0  0  0  0  0  0  0  0  0
   -1.6396   -1.1623    2.9922 N   0  0  0  0  0  0  0  0  0  0  0  0
    5.4699   -1.1638    2.7958 N   0  0  0  0  0  0  0  0  0  0  0  0
    3.9131   -2.5691   -1.3095 O   0  0  0  0  0  0  0  0  0  0  0  0
   -0.2444    0.6663    4.0741 O   0  0  0  0  0  0  0  0  0  0  0  0
   -1.3963    1.0817    1.8079 O   0  0  0  0  0  0  0  0  0  0  0  0
    3.6841   -2.1664    4.4120 O   0  0  0  0  0  0  0  0  0  0  0  0
    4.5998   -3.5103    2.4389 O   0  0  0  0  0  0  0  0  0  0  0  0
    5.3991   -1.5821    0.0276 O   0  0  0  0  0  0  0  0  0  0  0  0
   -0.6919    0.2166    2.7554 S   0  0  0  0  0  0  0  0  0  0  0  0
    4.1547   -2.2545    3.0314 S   0  0  0  0  0  0  0  0  0  0  0  0
    1.9841   -0.8946   -1.2262 H   0  0  0  0  0  0  0  0  0  0  0  0
   -0.0101    0.0539   -0.0534 H   0  0  0  0  0  0  0  0  0  0  0  0
    1.7351   -1.0330    3.7290 H   0  0  0  0  0  0  0  0  0  0  0  0
   -1.7894   -1.3166    3.9885 H   0  0  0  0  0  0  0  0  0  0  0  0
   -2.5205   -1.0751    2.4871 H   0  0  0  0  0  0  0  0  0  0  0  0
    5.3940   -0.3829    3.4518 H   0  0  0  0  0  0  0  0  0  0  0  0
    6.3329   -1.6807    2.9884 H   0  0  0  0  0  0  0  0  0  0  0  0
    5.4435   -1.1391    0.9077 H   0  0  0  0  0  0  0  0  0  0  0  0
  1  2  1  0  0  0  0
  1  4  2  0  0  0  0
  1 18  1  0  0  0  0
  2  5  2  0  0  0  0
  2 19  1  0  0  0  0
  3  5  1  0  0  0  0
  3  6  2  0  0  0  0
  3 20  1  0  0  0  0
  4  6  1  0  0  0  0
  4  7  1  0  0  0  0
  5 16  1  0  0  0  0
  6 17  1  0  0  0  0
  7 10  2  0  0  0  0
  7 15  1  0  0  0  0
  8 16  1  0  0  0  0
  8 21  1  0  0  0  0
  8 22  1  0  0  0  0
  9 17  1  0  0  0  0
  9 23  1  0  0  0  0
  9 24  1  0  0  0  0
 11 16  2  0  0  0  0
 12 16  2  0  0  0  0
 13 17  2  0  0  0  0
 14 17  2  0  0  0  0
 15 25  1  0  0  0  0
M  END
$$$$
