24
-1 1 C7H7N2O6S2
C                     1.614039123929    -0.767344484719    -0.416216016387
C                     0.497694738581    -0.253219349383     0.232562477747
C                     1.566059377669    -0.698671962150     2.373492316996
C                     2.734864253807    -1.250048574858     0.286278811893
C                     0.485755426479    -0.228539143414     1.631273219157
C                     2.677025989030    -1.202471262575     1.692249234912
C                     3.920810756747    -1.742526885584    -0.586838889012
N                    -1.967282893493    -1.014311404271     2.463108805712
N                     5.226812429027    -0.830735818726     2.432237088793
O                     5.076771755841    -1.382200174307    -0.210535725066
O                     3.582030093572    -2.380074064389    -1.603328503100
O                    -0.594103359675     0.697293889442     3.863984686263
O                    -1.676115500193     1.344175886537     1.643949315273
O                     3.565352629269    -1.664573430839     4.167678127481
O                     4.239607915702    -3.271556500550     2.350778941009
S                    -0.960116662175     0.370315603183     2.479086263818
S                     3.967584682772    -1.886815338988     2.766419937563
H                     1.646301846648    -0.831285956646    -1.499010212029
H                    -0.354973893287     0.123746317972    -0.324148595793
H                     1.561244664110    -0.672154786288     3.458216305507
H                    -1.744686584783    -1.600362284914     3.268544672580
H                    -2.931926396825    -0.686285119589     2.529104522404
H                     6.036842548936    -1.133917476788     2.976856161438
H                     5.398727478316    -0.932375917475     1.399242802636
