47
0 1 C17H25N3O2
C                     7.437505869585     1.945829694824     1.268450442478
C                     7.027740364643     2.319248906472    -0.019409833788
C                     6.530257736163     1.300860646886     2.109888409906
C                     5.732439597498     2.050650365571    -0.455938857167
C                     5.223811200477     1.023829788844     1.685357654262
C                    -0.937563013038     2.041747535805     3.814171960105
C                    -0.319489587336     2.854982776244     1.975999844472
C                     4.824378520878     1.401012604066     0.395794252894
C                    -1.057432430594    -2.134264958115    -1.312178456230
C                    -1.190282506919     0.180503288495    -2.269200860501
C                    -3.191743114912    -0.846488852776    -1.199108759451
C                     1.325491480620     0.396141181473    -0.112736510931
C                     0.255096076360    -0.364415854087     0.683019186014
C                    -1.653262410839     1.304524251842     0.462239320414
C                     2.613115230549     0.509296769005     0.691287537597
C                    -1.653890110263    -0.726641396074    -1.109568683923
C                    -1.239124939035    -0.183541088482     0.310182074589
N                    -0.123248229922     2.995610768004     3.282828641900
N                    -1.620040692012     1.331449539753     2.918919908917
N                    -1.215883740531     1.872849373420     1.733267131080
O                    -1.988259779755    -0.968242030076     1.249825976464
O                     3.574422440905     1.182122604914    -0.123637027002
H                     8.447970832880     2.156354354795     1.607148072456
H                     7.722265889966     2.822534635122    -0.687356793401
H                     6.832511704241     1.006528477527     3.111816072594
H                     5.400906397231     2.333115079801    -1.451127839668
H                     4.539176960324     0.524539379885     2.361281245937
H                    -1.038128130617     1.863917682329     4.877016476537
H                     0.151286028250     3.432659707993     1.190824040417
H                    -1.292285203184    -2.785547492351    -0.466077389805
H                    -1.479190260611    -2.586992408128    -2.215797894515
H                     0.029207618637    -2.106261386970    -1.440152847197
H                    -1.716357786615     1.140778349285    -2.281115221898
H                    -1.418957633001    -0.313356905015    -3.219465354286
H                    -0.117749538942     0.379578649169    -2.259906418432
H                    -3.691917493234     0.119431809170    -1.073408597507
H                    -3.467565104659    -1.224906222556    -2.189449441515
H                    -3.581271105283    -1.528777075726    -0.442786305765
H                     1.000156707651     1.409195900996    -0.370432122713
H                     1.551395813660    -0.108556000384    -1.056071820734
H                     0.468322593458    -1.435081064640     0.665046729825
H                     0.338076471185    -0.076462122237     1.737276876142
H                    -1.216269706513     1.926659260806    -0.317866182781
H                    -2.739606581216     1.387775929364     0.406765482916
H                     2.437950292339     1.078774925391     1.614332272229
H                     2.985871182065    -0.486522093130     0.968575221214
H                    -1.961723193673    -0.510249758952     2.113173780160
