24
-1 1 C7H7N2O6S2
C                     1.870881188746    -1.254571701191    -0.111806317939
C                     0.774790452582    -0.629811634589     0.471178647532
C                     1.681182969956    -1.146249755887     2.670077400119
C                     2.877350922310    -1.874019617071     0.653939739390
C                     0.692221863463    -0.584194987373     1.866999800908
C                     2.752580842232    -1.798221543440     2.054318992420
C                     3.986281291515    -2.604210336991    -0.151562877891
N                    -1.864889331064    -1.102239833561     2.581263048802
N                     3.832887015967    -4.091526944481     2.911517312418
O                     4.366903160637    -1.999210472409    -1.172554049049
O                     4.317528810173    -3.751856432785     0.274871783272
O                    -0.397099039851     0.486809081807     4.029923927815
O                    -1.296508148453     1.200722913989     1.749692357774
O                     5.316535478159    -1.916455041401     2.831800406370
O                     3.523778758357    -2.198294993140     4.579206295253
S                    -0.724556167983     0.174807325543     2.631994574767
S                     3.996417342312    -2.446499658187     3.204631321130
H                     1.991387714497    -1.272269350363    -1.190139465027
H                     0.000558064995    -0.167495202472    -0.133751741374
H                     1.635602137453    -1.079792977676     3.752157635161
H                    -1.741566354861    -1.693692930887     3.403932010752
H                    -2.793212185031    -0.677288985297     2.596665518825
H                     4.055890865214    -4.208234141904     1.889391468901
H                     4.516954750748    -4.575990062002     3.496658304599
