30
0 1 C10H16O3S
C                     0.628032292093    -0.069670116863    -0.793193584936
C                     1.331323405073     2.180226565372     0.113905092966
C                    -0.626554072598    -0.300604014702     1.337251068267
C                     1.544169872390     0.675705396035     0.197025317576
C                    -0.562235604243    -0.759101565393    -0.122307575096
C                    -3.037662856362    -1.357870410655    -0.376347609539
C                    -2.327245387971     5.415286401632    -0.247172420229
C                    -1.858234017455    -0.543910387941    -0.917831614134
C                    -1.852383846972     3.959030358533    -0.183503612152
C                    -0.341228282402     3.871223110824    -0.048236079701
O                     0.862791368567    -0.108270234106    -1.983420321869
O                     2.213424423598     3.009920751676     0.161987907071
O                     0.013293132619     2.464299898945    -0.001890168079
S                     1.106218277791     0.043035410743     1.862543737203
H                    -1.225390562582     0.607561733170     1.439198068631
H                    -1.025148768333    -1.067225193551     2.003839714648
H                     2.591625963161     0.468570348936    -0.021289820497
H                    -0.308361720860    -1.828752835368    -0.136825726499
H                    -2.813311811897    -2.430778126056    -0.382425442642
H                    -3.931655412871    -1.201054184214    -0.988459234826
H                    -3.289080468470    -1.075675915476     0.651837021993
H                    -2.046500954768     5.966434711415     0.657182653756
H                    -1.892619518679     5.938867679718    -1.105787982634
H                    -3.415976232236     5.465326663406    -0.343112592489
H                    -2.099939264500     0.525461238337    -0.905392472989
H                    -1.662120107081    -0.809561559948    -1.961291755493
H                    -2.160286204971     3.420914011248    -1.087227510019
H                    -2.317132615680     3.447404770584     0.667314979145
H                     0.173130034873     4.332496026649    -0.896301081507
H                     0.017151929882     4.350660230200     0.867625211882
