
  -OEChem-05262117483D

 24 24  0     0  0  0  0  0  0999 V2000
    1.8709   -1.2546   -0.1118 C   0  0  0  0  0  0  0  0  0  0  0  0
    0.7748   -0.6298    0.4712 C   0  0  0  0  0  0  0  0  0  0  0  0
    1.6812   -1.1462    2.6701 C   0  0  0  0  0  0  0  0  0  0  0  0
    2.8774   -1.8740    0.6539 C   0  0  0  0  0  0  0  0  0  0  0  0
    0.6922   -0.5842    1.8670 C   0  0  0  0  0  0  0  0  0  0  0  0
    2.7526   -1.7982    2.0543 C   0  0  0  0  0  0  0  0  0  0  0  0
    3.9863   -2.6042   -0.1516 C   0  0  0  0  0  0  0  0  0  0  0  0
   -1.8649   -1.1022    2.5813 N   0  0  0  0  0  0  0  0  0  0  0  0
    3.8329   -4.0915    2.9115 N   0  0  0  0  0  0  0  0  0  0  0  0
    4.3669   -1.9992   -1.1726 O   0  5  0  0  0  0  0  0  0  0  0  0
    4.3175   -3.7519    0.2749 O   0  0  0  0  0  0  0  0  0  0  0  0
   -0.3971    0.4868    4.0299 O   0  0  0  0  0  0  0  0  0  0  0  0
   -1.2965    1.2007    1.7497 O   0  0  0  0  0  0  0  0  0  0  0  0
    5.3165   -1.9165    2.8318 O   0  0  0  0  0  0  0  0  0  0  0  0
    3.5238   -2.1983    4.5792 O   0  0  0  0  0  0  0  0  0  0  0  0
   -0.7246    0.1748    2.6320 S   0  0  0  0  0  0  0  0  0  0  0  0
    3.9964   -2.4465    3.2046 S   0  0  0  0  0  0  0  0  0  0  0  0
    1.9914   -1.2723   -1.1901 H   0  0  0  0  0  0  0  0  0  0  0  0
    0.0006   -0.1675   -0.1338 H   0  0  0  0  0  0  0  0  0  0  0  0
    1.6356   -1.0798    3.7522 H   0  0  0  0  0  0  0  0  0  0  0  0
   -1.7416   -1.6937    3.4039 H   0  0  0  0  0  0  0  0  0  0  0  0
   -2.7932   -0.6773    2.5967 H   0  0  0  0  0  0  0  0  0  0  0  0
    4.0559   -4.2082    1.8894 H   0  0  0  0  0  0  0  0  0  0  0  0
    4.5170   -4.5760    3.4967 H   0  0  0  0  0  0  0  0  0  0  0  0
  1  2  1  0  0  0  0
  1  4  2  0  0  0  0
  1 18  1  0  0  0  0
  2  5  2  0  0  0  0
  2 19  1  0  0  0  0
  3  5  1  0  0  0  0
  3  6  2  0  0  0  0
  3 20  1  0  0  0  0
  4  6  1  0  0  0  0
  4  7  1  0  0  0  0
  5 16  1  0  0  0  0
  6 17  1  0  0  0  0
  7 10  1  0  0  0  0
  7 11  2  0  0  0  0
  8 16  1  0  0  0  0
  8 21  1  0  0  0  0
  8 22  1  0  0  0  0
  9 17  1  0  0  0  0
  9 23  1  0  0  0  0
  9 24  1  0  0  0  0
 12 16  2  0  0  0  0
 13 16  2  0  0  0  0
 14 17  2  0  0  0  0
 15 17  2  0  0  0  0
M  CHG  1  10  -1
M  END
$$$$
