32
0 1 C13H16N2O
C                     0.341835137535     3.052049195014    -0.276064718041
C                     2.069001575058     1.842575325118     0.868014014254
C                     1.152025957980     4.187604946237    -0.330424817432
C                     2.894436784418     2.968499992898     0.825201334200
C                    -1.168135879724     0.404754551306     6.127887884915
C                    -0.507183711485     0.966745231168     5.056065549015
C                    -2.548563167498     0.355619838741     4.486413594957
C                     0.778219642618     1.860438178124     0.320132161931
C                     2.435657520946     4.147517957451     0.223455687208
C                     0.469966090872    -0.547702561793    -0.402907897469
C                    -0.436305086167     0.224112808885     1.831891470073
C                    -1.138239965582     1.329759236615     2.627447312661
C                    -0.122257985899     0.636771050466     0.380847504993
N                    -2.443601947283     0.026729682846     5.761944682520
N                    -1.406428986823     0.938950727355     4.005970843085
O                     3.197478930200     5.289496200185     0.148630341834
H                    -0.655507702049     3.097575929730    -0.708705400194
H                     2.446999296726     0.938167756754     1.338867741688
H                     0.805876279893     5.106483960824    -0.794501557540
H                     3.893349227110     2.928231533371     1.257607029920
H                    -0.801897756286     0.260482174305     7.136458102749
H                     0.484349773054     1.383606700874     4.944877273015
H                    -3.422249675695     0.208340359323     3.862809923439
H                     1.412443376869    -0.884503356059     0.042026645518
H                     0.673533949102    -0.264862946676    -1.440192847702
H                    -0.220649052994    -1.398201270758    -0.405982649901
H                    -1.071082900708    -0.669705547778     1.829039707626
H                     0.489208164901    -0.053820920730     2.349217677733
H                    -2.093993757451     1.585948984684     2.158980566039
H                    -0.531841125791     2.239056910416     2.636250678279
H                    -1.072179461724     0.907486855845    -0.098634509778
H                     4.059497059735     5.123960207543     0.561964099291
