
  -OEChem-05262117483D

 55 56  0     1  0  0  0  0  0999 V2000
   -1.7319    2.7818    0.4629 C   0  0  0  0  0  0  0  0  0  0  0  0
   -0.7095    3.2337   -0.3909 C   0  0  0  0  0  0  0  0  0  0  0  0
   -1.7560    1.4486    0.8520 C   0  0  0  0  0  0  0  0  0  0  0  0
    0.2684    2.3598   -0.8598 C   0  0  0  0  0  0  0  0  0  0  0  0
   -0.7707    0.5519    0.3987 C   0  0  0  0  0  0  0  0  0  0  0  0
    0.2340    1.0144   -0.4698 C   0  0  0  0  0  0  0  0  0  0  0  0
   -0.7499   -0.8447    0.8742 C   0  0  0  0  0  0  0  0  0  0  0  0
    0.4515   -1.7113    0.4468 C   0  0  0  0  0  0  0  0  0  0  0  0
    0.9538   -1.2389   -0.9622 C   0  0  1  0  0  0  0  0  0  0  0  0
    2.3085   -1.8322   -1.3513 C   0  0  0  0  0  0  0  0  0  0  0  0
   -0.9984   -1.1126   -4.3923 C   0  0  0  0  0  0  0  0  0  0  0  0
   -1.0277   -6.3506    2.9180 C   0  0  0  0  0  0  0  0  0  0  0  0
    3.9626    1.3267    3.3572 C   0  0  0  0  0  0  0  0  0  0  0  0
    0.0113   -3.2002    0.3455 C   0  0  0  0  0  0  0  0  0  0  0  0
    1.5310   -1.5873    1.5618 C   0  0  0  0  0  0  0  0  0  0  0  0
   -0.1099   -1.5127   -2.0532 C   0  0  0  0  0  0  0  0  0  0  0  0
    0.0992   -0.7691   -3.3786 C   0  0  0  0  0  0  0  0  0  0  0  0
   -0.2250   -3.9294    1.6702 C   0  0  0  0  0  0  0  0  0  0  0  0
    2.1613   -0.2109    1.7872 C   0  0  0  0  0  0  0  0  0  0  0  0
   -1.6139   -1.2826    1.6284 O   0  0  0  0  0  0  0  0  0  0  0  0
   -2.0045   -5.5995    0.5573 O   0  0  0  0  0  0  0  0  0  0  0  0
    0.4389   -6.3261    0.6932 O   0  0  0  0  0  0  0  0  0  0  0  0
    2.6752   -0.7812    4.3540 O   0  0  0  0  0  0  0  0  0  0  0  0
    4.5072   -1.1736    2.6166 O   0  0  0  0  0  0  0  0  0  0  0  0
    1.2206    0.2030   -0.9289 O   0  0  0  0  0  0  0  0  0  0  0  0
   -0.7237   -5.6373    1.2855 S   0  0  0  0  0  0  0  0  0  0  0  0
    3.3818   -0.3696    3.1277 S   0  0  0  0  0  0  0  0  0  0  0  0
   -2.4923    3.4717    0.8163 H   0  0  0  0  0  0  0  0  0  0  0  0
   -0.6832    4.2759   -0.6986 H   0  0  0  0  0  0  0  0  0  0  0  0
   -2.5211    1.0659    1.5207 H   0  0  0  0  0  0  0  0  0  0  0  0
    1.0552    2.6921   -1.5305 H   0  0  0  0  0  0  0  0  0  0  0  0
    2.6294   -1.4112   -2.3059 H   0  0  0  0  0  0  0  0  0  0  0  0
    2.2507   -2.9164   -1.4626 H   0  0  0  0  0  0  0  0  0  0  0  0
    3.0796   -1.6015   -0.6141 H   0  0  0  0  0  0  0  0  0  0  0  0
   -1.0135   -2.1853   -4.6157 H   0  0  0  0  0  0  0  0  0  0  0  0
   -0.8455   -0.5771   -5.3350 H   0  0  0  0  0  0  0  0  0  0  0  0
   -1.9885   -0.8397   -4.0102 H   0  0  0  0  0  0  0  0  0  0  0  0
   -1.3193   -7.3878    2.7425 H   0  0  0  0  0  0  0  0  0  0  0  0
   -0.1085   -6.3094    3.5045 H   0  0  0  0  0  0  0  0  0  0  0  0
   -1.8393   -5.8037    3.4001 H   0  0  0  0  0  0  0  0  0  0  0  0
    4.7220    1.2809    4.1399 H   0  0  0  0  0  0  0  0  0  0  0  0
    4.4016    1.6837    2.4242 H   0  0  0  0  0  0  0  0  0  0  0  0
    3.1263    1.9511    3.6753 H   0  0  0  0  0  0  0  0  0  0  0  0
    0.7752   -3.7536   -0.2054 H   0  0  0  0  0  0  0  0  0  0  0  0
   -0.9134   -3.2576   -0.2305 H   0  0  0  0  0  0  0  0  0  0  0  0
    2.3241   -2.3119    1.3570 H   0  0  0  0  0  0  0  0  0  0  0  0
    1.0659   -1.8830    2.5044 H   0  0  0  0  0  0  0  0  0  0  0  0
   -0.1245   -2.5893   -2.2480 H   0  0  0  0  0  0  0  0  0  0  0  0
   -1.1072   -1.2637   -1.6726 H   0  0  0  0  0  0  0  0  0  0  0  0
    0.1069    0.3103   -3.1996 H   0  0  0  0  0  0  0  0  0  0  0  0
    1.0768   -1.0198   -3.8043 H   0  0  0  0  0  0  0  0  0  0  0  0
    0.6784   -4.0213    2.2761 H   0  0  0  0  0  0  0  0  0  0  0  0
   -1.0301   -3.4705    2.2439 H   0  0  0  0  0  0  0  0  0  0  0  0
    2.7029    0.1631    0.9193 H   0  0  0  0  0  0  0  0  0  0  0  0
    1.4303    0.5321    2.1140 H   0  0  0  0  0  0  0  0  0  0  0  0
  1  2  1  0  0  0  0
  1  3  2  0  0  0  0
  1 28  1  0  0  0  0
  2  4  2  0  0  0  0
  2 29  1  0  0  0  0
  3  5  1  0  0  0  0
  3 30  1  0  0  0  0
  4  6  1  0  0  0  0
  4 31  1  0  0  0  0
  5  6  2  0  0  0  0
  5  7  1  0  0  0  0
  6 25  1  0  0  0  0
  7  8  1  0  0  0  0
  7 20  2  0  0  0  0
  8  9  1  0  0  0  0
  8 14  1  0  0  0  0
  8 15  1  0  0  0  0
  9 10  1  0  0  0  0
  9 16  1  0  0  0  0
  9 25  1  0  0  0  0
 10 32  1  0  0  0  0
 10 33  1  0  0  0  0
 10 34  1  0  0  0  0
 11 17  1  0  0  0  0
 11 35  1  0  0  0  0
 11 36  1  0  0  0  0
 11 37  1  0  0  0  0
 12 26  1  0  0  0  0
 12 38  1  0  0  0  0
 12 39  1  0  0  0  0
 12 40  1  0  0  0  0
 13 27  1  0  0  0  0
 13 41  1  0  0  0  0
 13 42  1  0  0  0  0
 13 43  1  0  0  0  0
 14 18  1  0  0  0  0
 14 44  1  0  0  0  0
 14 45  1  0  0  0  0
 15 19  1  0  0  0  0
 15 46  1  0  0  0  0
 15 47  1  0  0  0  0
 16 17  1  0  0  0  0
 16 48  1  0  0  0  0
 16 49  1  0  0  0  0
 17 50  1  0  0  0  0
 17 51  1  0  0  0  0
 18 26  1  0  0  0  0
 18 52  1  0  0  0  0
 18 53  1  0  0  0  0
 19 27  1  0  0  0  0
 19 54  1  0  0  0  0
 19 55  1  0  0  0  0
 21 26  2  0  0  0  0
 22 26  2  0  0  0  0
 23 27  2  0  0  0  0
 24 27  2  0  0  0  0
M  END
$$$$
