
  -OEChem-05262117483D

 43 45  0     1  0  0  0  0  0999 V2000
    3.9059   -7.2238   -2.8930 C   0  0  0  0  0  0  0  0  0  0  0  0
    3.1090   -6.8318   -0.6465 C   0  0  0  0  0  0  0  0  0  0  0  0
    3.8002   -5.8582   -3.1613 C   0  0  0  0  0  0  0  0  0  0  0  0
    3.0063   -5.4716   -0.9199 C   0  0  0  0  0  0  0  0  0  0  0  0
    6.2429   -1.9808   -0.9815 C   0  0  0  0  0  0  0  0  0  0  0  0
    5.0994   -2.7385   -0.8432 C   0  0  0  0  0  0  0  0  0  0  0  0
    5.3963   -2.1352   -2.9457 C   0  0  0  0  0  0  0  0  0  0  0  0
    3.5614   -7.7276   -1.6298 C   0  0  0  0  0  0  0  0  0  0  0  0
    3.3523   -4.9639   -2.1825 C   0  0  0  0  0  0  0  0  0  0  0  0
    3.6538   -9.1845   -1.2877 C   0  0  0  0  0  0  0  0  0  0  0  0
   -0.3987   -1.0995   -2.2217 C   0  0  0  0  0  0  0  0  0  0  0  0
   -0.4602   -2.5971   -1.8951 C   0  0  0  0  0  0  0  0  0  0  0  0
    0.9110   -0.4794   -1.7186 C   0  0  0  0  0  0  0  0  0  0  0  0
    0.7676   -3.3443   -2.4339 C   0  0  0  0  0  0  0  0  0  0  0  0
    2.1374   -1.2272   -2.2591 C   0  0  0  0  0  0  0  0  0  0  0  0
    2.0810   -2.7269   -1.9233 C   0  0  0  0  0  0  0  0  0  0  0  0
    4.1613  -10.1510   -2.3428 C   0  0  0  0  0  0  0  0  0  0  0  0
    3.2993   -3.4763   -2.5021 C   0  0  1  0  0  0  0  0  0  0  0  0
    6.4194   -1.6080   -2.2983 N   0  0  0  0  0  0  0  0  0  0  0  0
    4.5627   -2.8361   -2.1143 N   0  0  0  0  0  0  0  0  0  0  0  0
    3.3267   -9.5867   -0.1768 O   0  0  0  0  0  0  0  0  0  0  0  0
    4.2574   -7.8893   -3.6753 H   0  0  0  0  0  0  0  0  0  0  0  0
    2.8407   -7.2286    0.3277 H   0  0  0  0  0  0  0  0  0  0  0  0
    4.0759   -5.4814   -4.1437 H   0  0  0  0  0  0  0  0  0  0  0  0
    2.6430   -4.8036   -0.1443 H   0  0  0  0  0  0  0  0  0  0  0  0
    6.9459   -1.6903   -0.2111 H   0  0  0  0  0  0  0  0  0  0  0  0
    4.6491   -3.2199    0.0117 H   0  0  0  0  0  0  0  0  0  0  0  0
    5.1991   -2.0426   -4.0067 H   0  0  0  0  0  0  0  0  0  0  0  0
   -1.2591   -0.5795   -1.7847 H   0  0  0  0  0  0  0  0  0  0  0  0
   -0.4686   -0.9638   -3.3100 H   0  0  0  0  0  0  0  0  0  0  0  0
   -0.5115   -2.7288   -0.8054 H   0  0  0  0  0  0  0  0  0  0  0  0
   -1.3737   -3.0416   -2.3062 H   0  0  0  0  0  0  0  0  0  0  0  0
    0.9682    0.5774   -2.0030 H   0  0  0  0  0  0  0  0  0  0  0  0
    0.9279   -0.5083   -0.6203 H   0  0  0  0  0  0  0  0  0  0  0  0
    0.7101   -4.4030   -2.1627 H   0  0  0  0  0  0  0  0  0  0  0  0
    0.7630   -3.3026   -3.5330 H   0  0  0  0  0  0  0  0  0  0  0  0
    2.1818   -1.1083   -3.3517 H   0  0  0  0  0  0  0  0  0  0  0  0
    3.0535   -0.7840   -1.8574 H   0  0  0  0  0  0  0  0  0  0  0  0
    2.1031   -2.8196   -0.8290 H   0  0  0  0  0  0  0  0  0  0  0  0
    5.1742   -9.8837   -2.6627 H   0  0  0  0  0  0  0  0  0  0  0  0
    3.5209  -10.1315   -3.2313 H   0  0  0  0  0  0  0  0  0  0  0  0
    4.1680  -11.1582   -1.9251 H   0  0  0  0  0  0  0  0  0  0  0  0
    3.2544   -3.3754   -3.5917 H   0  0  0  0  0  0  0  0  0  0  0  0
  1  3  1  0  0  0  0
  1  8  2  0  0  0  0
  1 22  1  0  0  0  0
  2  4  2  0  0  0  0
  2  8  1  0  0  0  0
  2 23  1  0  0  0  0
  3  9  2  0  0  0  0
  3 24  1  0  0  0  0
  4  9  1  0  0  0  0
  4 25  1  0  0  0  0
  5  6  2  0  0  0  0
  5 19  1  0  0  0  0
  5 26  1  0  0  0  0
  6 20  1  0  0  0  0
  6 27  1  0  0  0  0
  7 19  2  0  0  0  0
  7 20  1  0  0  0  0
  7 28  1  0  0  0  0
  8 10  1  0  0  0  0
  9 18  1  0  0  0  0
 10 17  1  0  0  0  0
 10 21  2  0  0  0  0
 11 12  1  0  0  0  0
 11 13  1  0  0  0  0
 11 29  1  0  0  0  0
 11 30  1  0  0  0  0
 12 14  1  0  0  0  0
 12 31  1  0  0  0  0
 12 32  1  0  0  0  0
 13 15  1  0  0  0  0
 13 33  1  0  0  0  0
 13 34  1  0  0  0  0
 14 16  1  0  0  0  0
 14 35  1  0  0  0  0
 14 36  1  0  0  0  0
 15 16  1  0  0  0  0
 15 37  1  0  0  0  0
 15 38  1  0  0  0  0
 16 18  1  0  0  0  0
 16 39  1  0  0  0  0
 17 40  1  0  0  0  0
 17 41  1  0  0  0  0
 17 42  1  0  0  0  0
 18 20  1  0  0  0  0
 18 43  1  0  0  0  0
M  END
$$$$
