
  -OEChem-05262117483D

 24 24  0     0  0  0  0  0  0999 V2000
    1.5531   -0.7817   -0.4984 C   0  0  0  0  0  0  0  0  0  0  0  0
    0.4447   -0.3264    0.2164 C   0  0  0  0  0  0  0  0  0  0  0  0
    2.5056   -1.6057    1.5611 C   0  0  0  0  0  0  0  0  0  0  0  0
    2.5890   -1.4277    0.1774 C   0  0  0  0  0  0  0  0  0  0  0  0
    0.3592   -0.5005    1.6008 C   0  0  0  0  0  0  0  0  0  0  0  0
    1.4011   -1.1546    2.2905 C   0  0  0  0  0  0  0  0  0  0  0  0
    0.3154   -2.3704    4.2614 C   0  0  0  0  0  0  0  0  0  0  0  0
    1.3905   -1.3920    3.7849 C   0  0  0  0  0  0  0  0  0  0  0  0
    3.8165   -1.8764   -0.5753 C   0  0  0  0  0  0  0  0  0  0  0  0
   -0.8880   -0.0268    2.3142 C   0  0  0  0  0  0  0  0  0  0  0  0
   -0.5650   -2.8277    3.5723 O   0  0  0  0  0  0  0  0  0  0  0  0
    0.3953   -2.7056    5.5798 O   0  0  0  0  0  0  0  0  0  0  0  0
    3.4804   -2.3237   -1.8319 F   0  0  0  0  0  0  0  0  0  0  0  0
    4.4457   -2.9098    0.0799 F   0  0  0  0  0  0  0  0  0  0  0  0
   -1.6387    0.7886    1.5049 F   0  0  0  0  0  0  0  0  0  0  0  0
   -0.5569    0.7257    3.4320 F   0  0  0  0  0  0  0  0  0  0  0  0
    1.6015   -0.6462   -1.5745 H   0  0  0  0  0  0  0  0  0  0  0  0
   -0.3652    0.1696   -0.3064 H   0  0  0  0  0  0  0  0  0  0  0  0
    3.3121   -2.1190    2.0764 H   0  0  0  0  0  0  0  0  0  0  0  0
    1.2388   -0.4526    4.3266 H   0  0  0  0  0  0  0  0  0  0  0  0
    2.3669   -1.7803    4.0943 H   0  0  0  0  0  0  0  0  0  0  0  0
    4.5593   -1.0827   -0.7069 H   0  0  0  0  0  0  0  0  0  0  0  0
   -1.5265   -0.8446    2.6513 H   0  0  0  0  0  0  0  0  0  0  0  0
    1.1414   -2.2467    6.0025 H   0  0  0  0  0  0  0  0  0  0  0  0
  1  2  1  0  0  0  0
  1  4  2  0  0  0  0
  1 17  1  0  0  0  0
  2  5  2  0  0  0  0
  2 18  1  0  0  0  0
  3  4  1  0  0  0  0
  3  6  2  0  0  0  0
  3 19  1  0  0  0  0
  4  9  1  0  0  0  0
  5  6  1  0  0  0  0
  5 10  1  0  0  0  0
  6  8  1  0  0  0  0
  7  8  1  0  0  0  0
  7 11  2  0  0  0  0
  7 12  1  0  0  0  0
  8 20  1  0  0  0  0
  8 21  1  0  0  0  0
  9 13  1  0  0  0  0
  9 14  1  0  0  0  0
  9 22  1  0  0  0  0
 10 15  1  0  0  0  0
 10 16  1  0  0  0  0
 10 23  1  0  0  0  0
 12 24  1  0  0  0  0
M  END
$$$$
