
  -OEChem-05262117483D

 49 51  0     1  0  0  0  0  0999 V2000
    0.4347   -1.5139    0.0110 C   0  0  0  0  0  0  0  0  0  0  0  0
    0.5633   -2.0843    1.2834 C   0  0  0  0  0  0  0  0  0  0  0  0
   -0.5630   -4.0903    0.5426 C   0  0  0  0  0  0  0  0  0  0  0  0
   -3.9350   -7.0116   -0.4340 C   0  0  0  0  0  0  0  0  0  0  0  0
   -5.2874   -6.7541   -0.1491 C   0  0  0  0  0  0  0  0  0  0  0  0
   -0.1957   -2.2407   -0.9987 C   0  0  0  0  0  0  0  0  0  0  0  0
   -0.6860   -3.5237   -0.7249 C   0  0  0  0  0  0  0  0  0  0  0  0
    0.0690   -3.3692    1.5681 C   0  0  0  0  0  0  0  0  0  0  0  0
   -5.7288   -5.4286   -0.4479 C   0  0  0  0  0  0  0  0  0  0  0  0
   -3.6217   -4.9205   -1.2387 C   0  0  0  0  0  0  0  0  0  0  0  0
   -6.1554   -7.8087    0.4349 C   0  0  0  0  0  0  0  0  0  0  0  0
   -0.4738   -1.8621   -2.4383 C   0  0  0  0  0  0  0  0  0  0  0  0
   -1.3774   -4.0996   -1.9491 C   0  0  2  0  0  0  0  0  0  0  0  0
   -0.8077   -3.2237   -3.1016 C   0  0  1  0  0  0  0  0  0  0  0  0
    0.1925   -3.9514    2.9584 C   0  0  0  0  0  0  0  0  0  0  0  0
   -1.6675   -3.1427   -4.3605 C   0  0  0  0  0  0  0  0  0  0  0  0
   -8.0472   -5.2716   -1.4118 C   0  0  0  0  0  0  0  0  0  0  0  0
   -6.4960  -10.0890    1.5218 C   0  0  0  0  0  0  0  0  0  0  0  0
   -7.1316   -4.9245   -0.2224 C   0  0  0  0  0  0  0  0  0  0  0  0
   -5.5057   -9.1262    0.8675 C   0  0  0  0  0  0  0  0  0  0  0  0
   -3.0906   -6.1336   -0.9671 N   0  0  0  0  0  0  0  0  0  0  0  0
   -4.8935   -4.5370   -0.9810 N   0  0  0  0  0  0  0  0  0  0  0  0
   -2.8355   -3.9874   -1.8365 N   0  0  0  0  0  0  0  0  0  0  0  0
   -7.3678   -7.6567    0.5760 O   0  0  0  0  0  0  0  0  0  0  0  0
    0.8310   -0.5191   -0.1817 H   0  0  0  0  0  0  0  0  0  0  0  0
    1.0622   -1.5234    2.0713 H   0  0  0  0  0  0  0  0  0  0  0  0
   -0.9527   -5.0882    0.7319 H   0  0  0  0  0  0  0  0  0  0  0  0
   -3.5039   -7.9867   -0.2202 H   0  0  0  0  0  0  0  0  0  0  0  0
   -1.3274   -1.1716   -2.5017 H   0  0  0  0  0  0  0  0  0  0  0  0
    0.3703   -1.3629   -2.9252 H   0  0  0  0  0  0  0  0  0  0  0  0
   -1.1634   -5.1573   -2.0996 H   0  0  0  0  0  0  0  0  0  0  0  0
    0.1502   -3.6881   -3.3646 H   0  0  0  0  0  0  0  0  0  0  0  0
   -0.6787   -3.6899    3.5716 H   0  0  0  0  0  0  0  0  0  0  0  0
    0.2558   -5.0433    2.9298 H   0  0  0  0  0  0  0  0  0  0  0  0
    1.0807   -3.5739    3.4741 H   0  0  0  0  0  0  0  0  0  0  0  0
   -2.6277   -2.6530   -4.1690 H   0  0  0  0  0  0  0  0  0  0  0  0
   -1.8811   -4.1400   -4.7589 H   0  0  0  0  0  0  0  0  0  0  0  0
   -1.1526   -2.5700   -5.1394 H   0  0  0  0  0  0  0  0  0  0  0  0
   -7.6505   -4.8501   -2.3412 H   0  0  0  0  0  0  0  0  0  0  0  0
   -9.0475   -4.8585   -1.2475 H   0  0  0  0  0  0  0  0  0  0  0  0
   -8.1428   -6.3541   -1.5237 H   0  0  0  0  0  0  0  0  0  0  0  0
   -6.9415   -9.6465    2.4167 H   0  0  0  0  0  0  0  0  0  0  0  0
   -7.3136  -10.3351    0.8399 H   0  0  0  0  0  0  0  0  0  0  0  0
   -5.9889  -11.0161    1.8079 H   0  0  0  0  0  0  0  0  0  0  0  0
   -7.5506   -5.3535    0.6880 H   0  0  0  0  0  0  0  0  0  0  0  0
   -7.0656   -3.8382   -0.1161 H   0  0  0  0  0  0  0  0  0  0  0  0
   -5.0499   -9.5956   -0.0140 H   0  0  0  0  0  0  0  0  0  0  0  0
   -4.6756   -8.9061    1.5503 H   0  0  0  0  0  0  0  0  0  0  0  0
   -3.2436   -3.0596   -1.8341 H   0  0  0  0  0  0  0  0  0  0  0  0
  1  2  1  0  0  0  0
  1  6  2  0  0  0  0
  1 25  1  0  0  0  0
  2  8  2  0  0  0  0
  2 26  1  0  0  0  0
  3  7  2  0  0  0  0
  3  8  1  0  0  0  0
  3 27  1  0  0  0  0
  4  5  1  0  0  0  0
  4 21  2  0  0  0  0
  4 28  1  0  0  0  0
  5  9  2  0  0  0  0
  5 11  1  0  0  0  0
  6  7  1  0  0  0  0
  6 12  1  0  0  0  0
  7 13  1  0  0  0  0
  8 15  1  0  0  0  0
  9 19  1  0  0  0  0
  9 22  1  0  0  0  0
 10 21  1  0  0  0  0
 10 22  2  0  0  0  0
 10 23  1  0  0  0  0
 11 20  1  0  0  0  0
 11 24  2  0  0  0  0
 12 14  1  0  0  0  0
 12 29  1  0  0  0  0
 12 30  1  0  0  0  0
 13 14  1  0  0  0  0
 13 23  1  0  0  0  0
 13 31  1  0  0  0  0
 14 16  1  0  0  0  0
 14 32  1  0  0  0  0
 15 33  1  0  0  0  0
 15 34  1  0  0  0  0
 15 35  1  0  0  0  0
 16 36  1  0  0  0  0
 16 37  1  0  0  0  0
 16 38  1  0  0  0  0
 17 19  1  0  0  0  0
 17 39  1  0  0  0  0
 17 40  1  0  0  0  0
 17 41  1  0  0  0  0
 18 20  1  0  0  0  0
 18 42  1  0  0  0  0
 18 43  1  0  0  0  0
 18 44  1  0  0  0  0
 19 45  1  0  0  0  0
 19 46  1  0  0  0  0
 20 47  1  0  0  0  0
 20 48  1  0  0  0  0
 23 49  1  0  0  0  0
M  END
$$$$
