49
0 1 C20H25N3O
C                    -5.263849139827    -1.440745848471    -2.972240138046
C                    -5.458553560242    -0.408894098245    -2.043768812830
C                    -3.881735771750    -1.431317482233    -0.525137424218
C                    -0.876488639114    -6.349920185970     2.051849073664
C                     0.221237376341    -6.725189877407     1.252736652210
C                    -4.378737515731    -2.472425393848    -2.667175222959
C                    -3.695911902741    -2.459038311107    -1.445919423556
C                    -4.778748967029    -0.388450125185    -0.815184824535
C                     0.240946242879    -6.162286964826    -0.058501366156
C                    -1.716275319639    -5.040939161325     0.410488805520
C                     1.262538421763    -7.646557792336     1.771053363190
C                    -3.974833828463    -3.683452562902    -3.481218823921
C                    -2.777218079011    -3.658904820573    -1.354826869094
C                    -3.354944875128    -4.641159685441    -2.427388269762
C                    -5.026396424349     0.715787722770     0.187776882173
C                    -4.409975518532    -5.586244444518    -1.844453015198
C                     1.121388248515    -5.785191141045    -2.430358943621
C                     2.239113648797    -9.142035709442     3.589329479348
C                     1.322488638080    -6.457347414321    -1.071699011151
C                     1.103966787512    -8.199737317092     3.190199594949
N                    -1.844409453330    -5.525707582346     1.669073289250
N                    -0.727635751803    -5.336437303875    -0.457506063102
N                    -2.676089932754    -4.175107188132    -0.000232959683
O                     2.240020335738    -7.972085286353     1.098328266747
H                    -5.805132300503    -1.432691972412    -3.915976632967
H                    -6.153935495379     0.394825011915    -2.277098756285
H                    -3.333469641520    -1.430112984941     0.415571150454
H                    -0.979708935098    -6.739431110376     3.061689184510
H                    -4.812983065362    -4.139282092057    -4.018912787248
H                    -3.226560736955    -3.399503003878    -4.233053087554
H                    -1.764638671750    -3.375765294272    -1.661330505890
H                    -2.542126806251    -5.234616284729    -2.853967078797
H                    -5.809068135384     0.431079064329     0.901689042155
H                    -4.124508908989     0.940530972217     0.765425487066
H                    -5.351240036198     1.637394132576    -0.304049799735
H                    -5.247188138227    -5.029614388009    -1.407005911693
H                    -3.988172062856    -6.230370523743    -1.067399837906
H                    -4.814173396579    -6.232461996125    -2.630483398114
H                     0.182851295405    -6.097199512024    -2.897475970849
H                     1.945598380881    -6.056206788816    -3.098364366731
H                     1.093558453873    -4.695856786046    -2.340798621773
H                     2.293446082802   -10.000007617729     2.914339298064
H                     3.205538907672    -8.633451112418     3.546183459985
H                     2.084042871051    -9.510053297086     4.608640449361
H                     2.284956402851    -6.172758254678    -0.633243232381
H                     1.401653061953    -7.543869912126    -1.180309336867
H                     1.044866763178    -7.357422603570     3.891232296012
H                     0.137749262442    -8.715025472810     3.261987018625
H                    -3.465685303162    -4.072419329090     0.625252735877
