61
0 1 BrC21H29N6O3S
C                    -3.868745571917    -9.577151559788     3.874297275869
C                    -3.455290500584    -7.439244830567     2.794854650549
C                    -2.789427054528    -9.369530246459     4.723000184928
C                    -2.371753181384    -7.235502666656     3.645408145231
C                    -7.248383347974    -8.454319763468    -0.799034346649
C                    -4.217064204512    -8.620771947074     2.895021694572
C                    -2.042219466625    -8.193669268476     4.604204499682
C                    -6.762672388256    -7.265090313907    -1.316605827946
C                    -5.734891402517    -6.600697583613    -0.597788967820
C                    -5.791898081183    -8.312170995781     0.933862974230
C                    -1.655722222310    -4.711358439754     0.301424519843
C                    -2.940244575734    -2.563243056624     0.118770586370
C                    -2.760020978562    -5.416407050794    -0.494967047023
C                    -4.053150806784    -3.275231255270    -0.660947225724
C                     1.567652031737    -2.441230640701     2.008592170509
C                     0.678163921605    -0.344410801773     1.008913823181
C                     0.662148987170    -3.240875610224     1.065992787453
C                    -0.195694548018    -1.213976019644     0.103948697832
C                    -1.555236184973    -3.220256855223    -0.059502474187
C                    -4.121693628019    -4.749889991506    -0.267294187869
C                     1.944225578778    -1.089672287566     1.405649752213
N                    -6.777769062645    -9.004702565499     0.329764229644
N                    -5.266498703662    -7.150987022908     0.538708009740
N                    -0.555677103604    -2.486594939180     0.745348773574
N                    -1.337273701176    -7.176550737856     7.049590874854
N                    -5.308404998407    -8.921553643608     2.078218789005
N                    -5.200988295391    -5.422290157267    -0.992191463483
O                    -0.156810177945    -9.226630348763     6.133803472285
O                     0.222938210106    -6.926923115289     5.042729224951
O                     2.672173396966    -0.260517094709     2.320640891250
S                    -0.648634764312    -7.920803151501     5.680907521665
Br                   -7.454265441024    -6.540852985776    -2.949736538489
H                    -4.443610826392   -10.497025480448     3.955471191990
H                    -3.714314505918    -6.704818401624     2.049001650470
H                    -2.511532558111   -10.119994750756     5.456037264396
H                    -1.770017086042    -6.336677605650     3.552846547207
H                    -8.043549647342    -8.992086250532    -1.311283702235
H                    -1.855700073549    -4.809730721058     1.376967976971
H                    -0.710982550275    -5.223737697762     0.105015222749
H                    -2.914212507204    -1.514180717223    -0.186223027379
H                    -3.174767342832    -2.570250733462     1.190084070757
H                    -2.527793263610    -5.383266692963    -1.567750008897
H                    -2.811332382206    -6.470047529791    -0.209108999805
H                    -5.015739223960    -2.788559103359    -0.466897032387
H                    -3.861758802870    -3.195389341689    -1.740868407163
H                     1.043311347311    -2.270032436029     2.955255994382
H                     2.467079269950    -3.032431193495     2.225621201581
H                     0.937747431295     0.587360536031     0.495122466370
H                     0.124343261616    -0.084171636227     1.917455297456
H                     1.226494071694    -3.511765477864     0.150374314125
H                     0.394455672681    -4.171361285536     1.566474654777
H                    -1.105029793401    -0.662114220227    -0.140651926445
H                     0.330725268376    -1.398324352086    -0.854695618715
H                    -1.281895840548    -3.169778529970    -1.133177993971
H                    -4.366905250887    -4.813645849234     0.798307960967
H                     2.550839137514    -1.261309831033     0.500529662610
H                    -1.091877697092    -7.720400519131     7.876188104450
H                    -0.986033952168    -6.222763765385     7.126092611297
H                    -5.772318699016    -9.804958734701     2.254233019596
H                    -5.522847839907    -5.032788853303    -1.869039345130
H                     3.454915874870    -0.753844681940     2.613259500132
