
  -OEChem-05262117483D

 66 70  0     1  0  0  0  0  0999 V2000
   -1.7686   -3.7400   -2.1259 C   0  0  0  0  0  0  0  0  0  0  0  0
   -5.9533   -8.6319    0.2079 C   0  0  0  0  0  0  0  0  0  0  0  0
   -2.6546   -4.6969   -1.6275 C   0  0  0  0  0  0  0  0  0  0  0  0
   -2.2074   -2.6705   -2.9088 C   0  0  0  0  0  0  0  0  0  0  0  0
   -6.0469   -7.4862   -0.5829 C   0  0  0  0  0  0  0  0  0  0  0  0
   -4.4833   -3.5286   -2.7049 C   0  0  0  0  0  0  0  0  0  0  0  0
   -4.7380   -8.9808    0.7943 C   0  0  0  0  0  0  0  0  0  0  0  0
   -4.0308   -4.6093   -1.9209 C   0  0  0  0  0  0  0  0  0  0  0  0
   -3.5766   -2.5859   -3.1784 C   0  0  0  0  0  0  0  0  0  0  0  0
   -3.6217   -8.1491    0.5214 C   0  0  0  0  0  0  0  0  0  0  0  0
   -4.8946   -6.6999   -0.7514 C   0  0  0  0  0  0  0  0  0  0  0  0
   -3.3569  -10.5318    2.0600 C   0  0  0  0  0  0  0  0  0  0  0  0
   -0.4057   -7.5988    2.2850 C   0  0  0  0  0  0  0  0  0  0  0  0
   -0.4089   -7.6239   -0.2184 C   0  0  0  0  0  0  0  0  0  0  0  0
   -3.2757    0.5902   -2.2888 C   0  0  0  0  0  0  0  0  0  0  0  0
   -5.5533   -0.2465   -1.9566 C   0  0  0  0  0  0  0  0  0  0  0  0
    0.6609   -6.5011    2.1975 C   0  0  0  0  0  0  0  0  0  0  0  0
    0.6567   -6.5259   -0.1651 C   0  0  0  0  0  0  0  0  0  0  0  0
   -3.6873    1.8588   -1.5451 C   0  0  0  0  0  0  0  0  0  0  0  0
   -5.8699    1.0558   -1.2238 C   0  0  0  0  0  0  0  0  0  0  0  0
   -2.1857   -9.9235    1.2909 C   0  0  1  0  0  0  0  0  0  0  0  0
   -1.2940   -7.5366    1.0360 C   0  0  0  0  0  0  0  0  0  0  0  0
   -1.9715  -10.7304   -0.0066 C   0  0  0  0  0  0  0  0  0  0  0  0
   -5.7880  -10.6571    2.3002 C   0  0  0  0  0  0  0  0  0  0  0  0
   -3.7132   -7.0391   -0.2216 N   0  0  0  0  0  0  0  0  0  0  0  0
   -4.5988  -10.0523    1.7058 N   0  0  0  0  0  0  0  0  0  0  0  0
   -2.4077   -8.4911    1.0789 N   0  0  1  0  0  0  0  0  0  0  0  0
   -4.4778    0.0245   -2.9251 N   0  0  0  0  0  0  0  0  0  0  0  0
   -4.9947   -5.5263   -1.4974 N   0  0  0  0  0  0  0  0  0  0  0  0
   -3.1870  -11.4242    2.8874 O   0  0  0  0  0  0  0  0  0  0  0  0
   -3.1380   -0.6704   -4.9486 O   0  0  0  0  0  0  0  0  0  0  0  0
   -5.5294   -1.5323   -4.6118 O   0  0  0  0  0  0  0  0  0  0  0  0
    1.4511   -6.6165    1.0157 O   0  0  0  0  0  0  0  0  0  0  0  0
   -4.7127    1.5949   -0.5902 O   0  0  0  0  0  0  0  0  0  0  0  0
   -4.2093   -1.1737   -4.0889 S   0  0  0  0  0  0  0  0  0  0  0  0
   -0.7096   -3.8387   -1.9016 H   0  0  0  0  0  0  0  0  0  0  0  0
   -6.8393   -9.2343    0.3767 H   0  0  0  0  0  0  0  0  0  0  0  0
   -2.3016   -5.5180   -1.0245 H   0  0  0  0  0  0  0  0  0  0  0  0
   -1.5187   -1.9412   -3.3205 H   0  0  0  0  0  0  0  0  0  0  0  0
   -6.9905   -7.2085   -1.0432 H   0  0  0  0  0  0  0  0  0  0  0  0
   -5.5333   -3.4339   -2.9698 H   0  0  0  0  0  0  0  0  0  0  0  0
    0.1038   -8.5652    2.3613 H   0  0  0  0  0  0  0  0  0  0  0  0
   -1.0098   -7.4637    3.1893 H   0  0  0  0  0  0  0  0  0  0  0  0
   -1.0175   -7.5205   -1.1223 H   0  0  0  0  0  0  0  0  0  0  0  0
    0.0966   -8.5944   -0.2578 H   0  0  0  0  0  0  0  0  0  0  0  0
   -2.5481    0.8300   -3.0661 H   0  0  0  0  0  0  0  0  0  0  0  0
   -2.8296   -0.1253   -1.5815 H   0  0  0  0  0  0  0  0  0  0  0  0
   -5.2469   -1.0157   -1.2311 H   0  0  0  0  0  0  0  0  0  0  0  0
   -6.4342   -0.5933   -2.4997 H   0  0  0  0  0  0  0  0  0  0  0  0
    0.1815   -5.5086    2.2277 H   0  0  0  0  0  0  0  0  0  0  0  0
    1.3588   -6.5667    3.0358 H   0  0  0  0  0  0  0  0  0  0  0  0
    1.3509   -6.6069   -1.0053 H   0  0  0  0  0  0  0  0  0  0  0  0
    0.1772   -5.5335   -0.2118 H   0  0  0  0  0  0  0  0  0  0  0  0
   -2.8379    2.2592   -0.9863 H   0  0  0  0  0  0  0  0  0  0  0  0
   -4.0298    2.6132   -2.2684 H   0  0  0  0  0  0  0  0  0  0  0  0
   -6.2849    1.7841   -1.9359 H   0  0  0  0  0  0  0  0  0  0  0  0
   -6.6012    0.8735   -0.4325 H   0  0  0  0  0  0  0  0  0  0  0  0
   -1.3219  -10.0470    1.9411 H   0  0  0  0  0  0  0  0  0  0  0  0
   -1.7741   -6.5541    1.0284 H   0  0  0  0  0  0  0  0  0  0  0  0
   -2.8211  -10.6066   -0.6852 H   0  0  0  0  0  0  0  0  0  0  0  0
   -1.8688  -11.7928    0.2333 H   0  0  0  0  0  0  0  0  0  0  0  0
   -1.0687  -10.4037   -0.5261 H   0  0  0  0  0  0  0  0  0  0  0  0
   -6.3570  -11.2215    1.5530 H   0  0  0  0  0  0  0  0  0  0  0  0
   -6.4292   -9.8813    2.7296 H   0  0  0  0  0  0  0  0  0  0  0  0
   -5.4592  -11.3391    3.0824 H   0  0  0  0  0  0  0  0  0  0  0  0
   -5.9250   -5.3439   -1.8493 H   0  0  0  0  0  0  0  0  0  0  0  0
  1  3  1  0  0  0  0
  1  4  2  0  0  0  0
  1 36  1  0  0  0  0
  2  5  2  0  0  0  0
  2  7  1  0  0  0  0
  2 37  1  0  0  0  0
  3  8  2  0  0  0  0
  3 38  1  0  0  0  0
  4  9  1  0  0  0  0
  4 39  1  0  0  0  0
  5 11  1  0  0  0  0
  5 40  1  0  0  0  0
  6  8  1  0  0  0  0
  6  9  2  0  0  0  0
  6 41  1  0  0  0  0
  7 10  2  0  0  0  0
  7 26  1  0  0  0  0
  8 29  1  0  0  0  0
  9 35  1  0  0  0  0
 10 25  1  0  0  0  0
 10 27  1  0  0  0  0
 11 25  2  0  0  0  0
 11 29  1  0  0  0  0
 12 21  1  0  0  0  0
 12 26  1  0  0  0  0
 12 30  2  0  0  0  0
 13 17  1  0  0  0  0
 13 22  1  0  0  0  0
 13 42  1  0  0  0  0
 13 43  1  0  0  0  0
 14 18  1  0  0  0  0
 14 22  1  0  0  0  0
 14 44  1  0  0  0  0
 14 45  1  0  0  0  0
 15 19  1  0  0  0  0
 15 28  1  0  0  0  0
 15 46  1  0  0  0  0
 15 47  1  0  0  0  0
 16 20  1  0  0  0  0
 16 28  1  0  0  0  0
 16 48  1  0  0  0  0
 16 49  1  0  0  0  0
 17 33  1  0  0  0  0
 17 50  1  0  0  0  0
 17 51  1  0  0  0  0
 18 33  1  0  0  0  0
 18 52  1  0  0  0  0
 18 53  1  0  0  0  0
 19 34  1  0  0  0  0
 19 54  1  0  0  0  0
 19 55  1  0  0  0  0
 20 34  1  0  0  0  0
 20 56  1  0  0  0  0
 20 57  1  0  0  0  0
 21 23  1  0  0  0  0
 21 27  1  0  0  0  0
 21 58  1  0  0  0  0
 22 27  1  0  0  0  0
 22 59  1  0  0  0  0
 23 60  1  0  0  0  0
 23 61  1  0  0  0  0
 23 62  1  0  0  0  0
 24 26  1  0  0  0  0
 24 63  1  0  0  0  0
 24 64  1  0  0  0  0
 24 65  1  0  0  0  0
 28 35  1  0  0  0  0
 29 66  1  0  0  0  0
 31 35  2  0  0  0  0
 32 35  2  0  0  0  0
M  END
$$$$
