
  -OEChem-05262117483D

 62 65  0     0  0  0  0  0  0999 V2000
   -8.5178   -3.2248   -4.1879 C   0  0  0  0  0  0  0  0  0  0  0  0
  -10.0822   -4.7750   -3.1573 C   0  0  0  0  0  0  0  0  0  0  0  0
   -9.2960   -3.1819   -5.3381 C   0  0  0  0  0  0  0  0  0  0  0  0
  -10.8591   -4.7308   -4.3144 C   0  0  0  0  0  0  0  0  0  0  0  0
   -9.1789   -5.8400    0.8293 C   0  0  0  0  0  0  0  0  0  0  0  0
   -8.8998   -4.0172   -3.0862 C   0  0  0  0  0  0  0  0  0  0  0  0
  -10.4706   -3.9354   -5.3920 C   0  0  0  0  0  0  0  0  0  0  0  0
   -8.1386   -5.6429    1.7183 C   0  0  0  0  0  0  0  0  0  0  0  0
   -7.0364   -4.8687    1.2714 C   0  0  0  0  0  0  0  0  0  0  0  0
   -8.1137   -4.5937   -0.7414 C   0  0  0  0  0  0  0  0  0  0  0  0
   -3.8872   -4.8871    0.7455 C   0  0  0  0  0  0  0  0  0  0  0  0
   -3.9675   -3.4224    2.8081 C   0  0  0  0  0  0  0  0  0  0  0  0
   -2.6112   -4.1711    0.2723 C   0  0  0  0  0  0  0  0  0  0  0  0
   -2.6800   -2.7187    2.3506 C   0  0  0  0  0  0  0  0  0  0  0  0
    1.9267   -3.3314    0.6136 C   0  0  0  0  0  0  0  0  0  0  0  0
    0.7713   -1.1886   -0.0029 C   0  0  0  0  0  0  0  0  0  0  0  0
    0.5677   -4.0159    0.7301 C   0  0  0  0  0  0  0  0  0  0  0  0
   -0.5731   -1.8979    0.1075 C   0  0  0  0  0  0  0  0  0  0  0  0
   -4.7600   -3.9604    1.6112 C   0  0  0  0  0  0  0  0  0  0  0  0
   -1.8390   -3.6684    1.4925 C   0  0  0  0  0  0  0  0  0  0  0  0
    1.8982   -2.1533   -0.3729 C   0  0  0  0  0  0  0  0  0  0  0  0
   -9.1863   -5.3223   -0.4094 N   0  0  0  0  0  0  0  0  0  0  0  0
   -7.0317   -4.3548    0.0372 N   0  0  0  0  0  0  0  0  0  0  0  0
  -12.5525   -2.6136   -6.5775 N   0  0  0  0  0  0  0  0  0  0  0  0
   -8.0339   -4.0038   -1.9806 N   0  0  0  0  0  0  0  0  0  0  0  0
   -5.9653   -4.6170    2.0832 N   0  0  0  0  0  0  0  0  0  0  0  0
   -0.4968   -3.0138    1.1318 N   0  3  0  0  0  0  0  0  0  0  0  0
  -10.6121   -3.4633   -7.9787 O   0  0  0  0  0  0  0  0  0  0  0  0
  -12.2621   -5.1268   -6.9088 O   0  0  0  0  0  0  0  0  0  0  0  0
    3.0979   -1.3999   -0.3254 O   0  0  0  0  0  0  0  0  0  0  0  0
  -11.4734   -3.8925   -6.8725 S   0  0  0  0  0  0  0  0  0  0  0  0
   -8.1762   -6.3906    3.4787 Br  0  0  0  0  0  0  0  0  0  0  0  0
   -7.5994   -2.6425   -4.1424 H   0  0  0  0  0  0  0  0  0  0  0  0
  -10.3775   -5.3887   -2.3189 H   0  0  0  0  0  0  0  0  0  0  0  0
   -8.9910   -2.5872   -6.1930 H   0  0  0  0  0  0  0  0  0  0  0  0
  -11.7599   -5.3323   -4.3855 H   0  0  0  0  0  0  0  0  0  0  0  0
  -10.0444   -6.4345    1.1143 H   0  0  0  0  0  0  0  0  0  0  0  0
   -4.4638   -5.2160   -0.1216 H   0  0  0  0  0  0  0  0  0  0  0  0
   -3.6240   -5.7826    1.3224 H   0  0  0  0  0  0  0  0  0  0  0  0
   -3.7106   -4.2493    3.4839 H   0  0  0  0  0  0  0  0  0  0  0  0
   -4.5829   -2.7217    3.3788 H   0  0  0  0  0  0  0  0  0  0  0  0
   -2.0053   -4.8554   -0.3297 H   0  0  0  0  0  0  0  0  0  0  0  0
   -2.8941   -3.3284   -0.3681 H   0  0  0  0  0  0  0  0  0  0  0  0
   -2.9496   -1.8250    1.7772 H   0  0  0  0  0  0  0  0  0  0  0  0
   -2.1105   -2.3866    3.2279 H   0  0  0  0  0  0  0  0  0  0  0  0
    2.2536   -2.9618    1.5933 H   0  0  0  0  0  0  0  0  0  0  0  0
    2.6577   -4.0837    0.2998 H   0  0  0  0  0  0  0  0  0  0  0  0
    0.6909   -0.4033   -0.7593 H   0  0  0  0  0  0  0  0  0  0  0  0
    1.0252   -0.6913    0.9414 H   0  0  0  0  0  0  0  0  0  0  0  0
    0.2456   -4.4500   -0.2182 H   0  0  0  0  0  0  0  0  0  0  0  0
    0.5738   -4.8027    1.4869 H   0  0  0  0  0  0  0  0  0  0  0  0
   -1.3631   -1.2148    0.4183 H   0  0  0  0  0  0  0  0  0  0  0  0
   -0.8641   -2.3621   -0.8358 H   0  0  0  0  0  0  0  0  0  0  0  0
   -5.0793   -3.1182    0.9884 H   0  0  0  0  0  0  0  0  0  0  0  0
   -1.5502   -4.5270    2.1079 H   0  0  0  0  0  0  0  0  0  0  0  0
    1.7155   -2.5397   -1.3879 H   0  0  0  0  0  0  0  0  0  0  0  0
  -12.4613   -1.9223   -7.3213 H   0  0  0  0  0  0  0  0  0  0  0  0
  -13.5042   -2.9765   -6.5332 H   0  0  0  0  0  0  0  0  0  0  0  0
   -7.1927   -3.4522   -2.0899 H   0  0  0  0  0  0  0  0  0  0  0  0
   -5.9309   -5.1343    2.9535 H   0  0  0  0  0  0  0  0  0  0  0  0
   -0.1653   -2.5788    2.0006 H   0  0  0  0  0  0  0  0  0  0  0  0
    3.8156   -1.8931   -0.7546 H   0  0  0  0  0  0  0  0  0  0  0  0
  1  3  1  0  0  0  0
  1  6  2  0  0  0  0
  1 33  1  0  0  0  0
  2  4  2  0  0  0  0
  2  6  1  0  0  0  0
  2 34  1  0  0  0  0
  3  7  2  0  0  0  0
  3 35  1  0  0  0  0
  4  7  1  0  0  0  0
  4 36  1  0  0  0  0
  5  8  1  0  0  0  0
  5 22  2  0  0  0  0
  5 37  1  0  0  0  0
  6 25  1  0  0  0  0
  7 31  1  0  0  0  0
  8  9  2  0  0  0  0
  8 32  1  0  0  0  0
  9 23  1  0  0  0  0
  9 26  1  0  0  0  0
 10 22  1  0  0  0  0
 10 23  2  0  0  0  0
 10 25  1  0  0  0  0
 11 13  1  0  0  0  0
 11 19  1  0  0  0  0
 11 38  1  0  0  0  0
 11 39  1  0  0  0  0
 12 14  1  0  0  0  0
 12 19  1  0  0  0  0
 12 40  1  0  0  0  0
 12 41  1  0  0  0  0
 13 20  1  0  0  0  0
 13 42  1  0  0  0  0
 13 43  1  0  0  0  0
 14 20  1  0  0  0  0
 14 44  1  0  0  0  0
 14 45  1  0  0  0  0
 15 17  1  0  0  0  0
 15 21  1  0  0  0  0
 15 46  1  0  0  0  0
 15 47  1  0  0  0  0
 16 18  1  0  0  0  0
 16 21  1  0  0  0  0
 16 48  1  0  0  0  0
 16 49  1  0  0  0  0
 17 27  1  0  0  0  0
 17 50  1  0  0  0  0
 17 51  1  0  0  0  0
 18 27  1  0  0  0  0
 18 52  1  0  0  0  0
 18 53  1  0  0  0  0
 19 26  1  0  0  0  0
 19 54  1  0  0  0  0
 20 27  1  0  0  0  0
 20 55  1  0  0  0  0
 21 30  1  0  0  0  0
 21 56  1  0  0  0  0
 24 31  1  0  0  0  0
 24 57  1  0  0  0  0
 24 58  1  0  0  0  0
 25 59  1  0  0  0  0
 26 60  1  0  0  0  0
 27 61  1  0  0  0  0
 28 31  2  0  0  0  0
 29 31  2  0  0  0  0
 30 62  1  0  0  0  0
M  CHG  1  27   1
M  END
$$$$
