
  -OEChem-05262117483D

 62 65  0     0  0  0  0  0  0999 V2000
   -5.9763    1.4993    4.2351 C   0  0  0  0  0  0  0  0  0  0  0  0
   -5.5658    1.1749    1.8632 C   0  0  0  0  0  0  0  0  0  0  0  0
   -4.6591    1.9207    4.4110 C   0  0  0  0  0  0  0  0  0  0  0  0
   -4.2559    1.6074    2.0263 C   0  0  0  0  0  0  0  0  0  0  0  0
   -9.3118   -2.5310    2.1391 C   0  0  0  0  0  0  0  0  0  0  0  0
   -6.4256    1.0791    2.9719 C   0  0  0  0  0  0  0  0  0  0  0  0
   -3.8019    1.9460    3.3071 C   0  0  0  0  0  0  0  0  0  0  0  0
   -8.2616   -3.3204    1.6937 C   0  0  0  0  0  0  0  0  0  0  0  0
   -6.9818   -2.7194    1.6126 C   0  0  0  0  0  0  0  0  0  0  0  0
   -7.9143   -0.7689    2.3793 C   0  0  0  0  0  0  0  0  0  0  0  0
   -3.5070   -3.5883    0.5219 C   0  0  0  0  0  0  0  0  0  0  0  0
   -4.0530   -2.4245    2.6767 C   0  0  0  0  0  0  0  0  0  0  0  0
   -2.1674   -2.8328    0.4499 C   0  0  0  0  0  0  0  0  0  0  0  0
   -2.7478   -1.6234    2.6123 C   0  0  0  0  0  0  0  0  0  0  0  0
    1.0137    0.2297    0.8627 C   0  0  0  0  0  0  0  0  0  0  0  0
    1.6930   -0.9010    2.9894 C   0  0  0  0  0  0  0  0  0  0  0  0
   -0.3893   -0.3513    1.0036 C   0  0  0  0  0  0  0  0  0  0  0  0
    0.2817   -1.4556    3.1302 C   0  0  0  0  0  0  0  0  0  0  0  0
   -4.5494   -2.7414    1.2573 C   0  0  0  0  0  0  0  0  0  0  0  0
   -1.6886   -2.4151    1.8473 C   0  0  0  0  0  0  0  0  0  0  0  0
    1.6942    0.4205    2.2239 C   0  0  0  0  0  0  0  0  0  0  0  0
   -9.1590   -1.2456    2.5027 N   0  0  0  0  0  0  0  0  0  0  0  0
   -6.8401   -1.4242    1.9327 N   0  0  0  0  0  0  0  0  0  0  0  0
   -2.0177    3.5491    4.5455 N   0  0  0  0  0  0  0  0  0  0  0  0
   -7.7177    0.5439    2.8088 N   0  0  0  0  0  0  0  0  0  0  0  0
   -5.8561   -3.3885    1.2386 N   0  0  0  0  0  0  0  0  0  0  0  0
   -0.3515   -1.6644    1.7638 N   0  3  0  0  0  0  0  0  0  0  0  0
   -1.4714    1.1142    4.3197 O   0  0  0  0  0  0  0  0  0  0  0  0
   -1.4699    2.4833    2.2072 O   0  0  0  0  0  0  0  0  0  0  0  0
    3.0555    0.8062    2.0826 O   0  0  0  0  0  0  0  0  0  0  0  0
   -2.0599    2.2147    3.5318 S   0  0  0  0  0  0  0  0  0  0  0  0
   -8.5166   -5.1568    1.2327 Br  0  0  0  0  0  0  0  0  0  0  0  0
   -6.6436    1.4462    5.0912 H   0  0  0  0  0  0  0  0  0  0  0  0
   -5.9346    0.8996    0.8824 H   0  0  0  0  0  0  0  0  0  0  0  0
   -4.2977    2.2028    5.3945 H   0  0  0  0  0  0  0  0  0  0  0  0
   -3.5899    1.6957    1.1741 H   0  0  0  0  0  0  0  0  0  0  0  0
  -10.3140   -2.9456    2.2217 H   0  0  0  0  0  0  0  0  0  0  0  0
   -3.8422   -3.8138   -0.4951 H   0  0  0  0  0  0  0  0  0  0  0  0
   -3.3717   -4.5465    1.0403 H   0  0  0  0  0  0  0  0  0  0  0  0
   -3.9085   -3.3597    3.2326 H   0  0  0  0  0  0  0  0  0  0  0  0
   -4.8025   -1.8352    3.2046 H   0  0  0  0  0  0  0  0  0  0  0  0
   -1.4132   -3.4595   -0.0420 H   0  0  0  0  0  0  0  0  0  0  0  0
   -2.3150   -1.9489   -0.1778 H   0  0  0  0  0  0  0  0  0  0  0  0
   -2.9497   -0.6787    2.1014 H   0  0  0  0  0  0  0  0  0  0  0  0
   -2.4126   -1.3732    3.6203 H   0  0  0  0  0  0  0  0  0  0  0  0
    1.6442   -0.4143    0.2365 H   0  0  0  0  0  0  0  0  0  0  0  0
    0.9143    1.1888    0.3446 H   0  0  0  0  0  0  0  0  0  0  0  0
    2.1053   -0.7514    3.9909 H   0  0  0  0  0  0  0  0  0  0  0  0
    2.3511   -1.6142    2.4767 H   0  0  0  0  0  0  0  0  0  0  0  0
   -1.0307    0.3273    1.5603 H   0  0  0  0  0  0  0  0  0  0  0  0
   -0.8331   -0.5448    0.0283 H   0  0  0  0  0  0  0  0  0  0  0  0
    0.2714   -2.4232    3.6368 H   0  0  0  0  0  0  0  0  0  0  0  0
   -0.3596   -0.7577    3.6682 H   0  0  0  0  0  0  0  0  0  0  0  0
   -4.6607   -1.7874    0.7285 H   0  0  0  0  0  0  0  0  0  0  0  0
   -1.4415   -3.3190    2.4154 H   0  0  0  0  0  0  0  0  0  0  0  0
    1.1294    1.1662    2.8002 H   0  0  0  0  0  0  0  0  0  0  0  0
   -1.1798    3.5173    5.1273 H   0  0  0  0  0  0  0  0  0  0  0  0
   -2.0797    4.4238    4.0236 H   0  0  0  0  0  0  0  0  0  0  0  0
   -8.4517    0.8703    3.4278 H   0  0  0  0  0  0  0  0  0  0  0  0
   -5.9324   -4.3843    1.0731 H   0  0  0  0  0  0  0  0  0  0  0  0
    0.2815   -2.2804    1.2413 H   0  0  0  0  0  0  0  0  0  0  0  0
    3.0971    1.7191    1.7557 H   0  0  0  0  0  0  0  0  0  0  0  0
  1  3  1  0  0  0  0
  1  6  2  0  0  0  0
  1 33  1  0  0  0  0
  2  4  2  0  0  0  0
  2  6  1  0  0  0  0
  2 34  1  0  0  0  0
  3  7  2  0  0  0  0
  3 35  1  0  0  0  0
  4  7  1  0  0  0  0
  4 36  1  0  0  0  0
  5  8  1  0  0  0  0
  5 22  2  0  0  0  0
  5 37  1  0  0  0  0
  6 25  1  0  0  0  0
  7 31  1  0  0  0  0
  8  9  2  0  0  0  0
  8 32  1  0  0  0  0
  9 23  1  0  0  0  0
  9 26  1  0  0  0  0
 10 22  1  0  0  0  0
 10 23  2  0  0  0  0
 10 25  1  0  0  0  0
 11 13  1  0  0  0  0
 11 19  1  0  0  0  0
 11 38  1  0  0  0  0
 11 39  1  0  0  0  0
 12 14  1  0  0  0  0
 12 19  1  0  0  0  0
 12 40  1  0  0  0  0
 12 41  1  0  0  0  0
 13 20  1  0  0  0  0
 13 42  1  0  0  0  0
 13 43  1  0  0  0  0
 14 20  1  0  0  0  0
 14 44  1  0  0  0  0
 14 45  1  0  0  0  0
 15 17  1  0  0  0  0
 15 21  1  0  0  0  0
 15 46  1  0  0  0  0
 15 47  1  0  0  0  0
 16 18  1  0  0  0  0
 16 21  1  0  0  0  0
 16 48  1  0  0  0  0
 16 49  1  0  0  0  0
 17 27  1  0  0  0  0
 17 50  1  0  0  0  0
 17 51  1  0  0  0  0
 18 27  1  0  0  0  0
 18 52  1  0  0  0  0
 18 53  1  0  0  0  0
 19 26  1  0  0  0  0
 19 54  1  0  0  0  0
 20 27  1  0  0  0  0
 20 55  1  0  0  0  0
 21 30  1  0  0  0  0
 21 56  1  0  0  0  0
 24 31  1  0  0  0  0
 24 57  1  0  0  0  0
 24 58  1  0  0  0  0
 25 59  1  0  0  0  0
 26 60  1  0  0  0  0
 27 61  1  0  0  0  0
 28 31  2  0  0  0  0
 29 31  2  0  0  0  0
 30 62  1  0  0  0  0
M  CHG  1  27   1
M  END
$$$$
