24
0 1 C10F4H8O2
C                     1.776546995235    -0.690033414066     0.096307542955
C                     0.864579035020    -0.390405667817     1.113603945911
C                     3.255468666662    -1.678254646150     1.734153920958
C                     2.973255597363    -1.332312384362     0.405766211130
C                     1.147209868560    -0.729664008675     2.436108432847
C                     2.356112057731    -1.384579011081     2.762013928730
C                     3.171978187341    -0.535414675370     5.043562509721
C                     2.710420129668    -1.728021016383     4.192981799455
C                     3.975859395064    -1.627579504017    -0.675046872039
C                     0.149211256701    -0.411938518240     3.527024884828
O                     2.990805076916    -0.469290691414     6.235921158758
O                     3.832741852074     0.455034435105     4.386678819922
F                     4.438881643745    -2.918374528300    -0.573641675054
F                     5.076196355001    -0.805003343874    -0.541998687642
F                    -0.444627191571    -1.576472854911     3.974402353241
F                    -0.853525401523     0.394948643587     3.056879122418
H                     1.547664971447    -0.419682296453    -0.931578579713
H                    -0.066243773801     0.114163812996     0.879414465203
H                     4.185464175706    -2.192405065573     1.963132577797
H                     3.534465550336    -2.449318876236     4.204692163038
H                     1.879780732321    -2.190750354894     4.726517615263
H                     3.579686235412    -1.489669668041    -1.684756583036
H                     0.585095916866     0.083250164074     4.399003410077
H                     3.865580208471     0.260253141116     3.431934460042
