
  -OEChem-05262117483D

 62 65  0     0  0  0  0  0  0999 V2000
   -5.1354   -3.7896   -5.1354 C   0  0  0  0  0  0  0  0  0  0  0  0
   -5.4599   -2.1322   -3.3896 C   0  0  0  0  0  0  0  0  0  0  0  0
   -3.8084   -3.3867   -5.2787 C   0  0  0  0  0  0  0  0  0  0  0  0
   -4.1428   -1.7155   -3.5341 C   0  0  0  0  0  0  0  0  0  0  0  0
   -9.0753   -5.4602   -1.4778 C   0  0  0  0  0  0  0  0  0  0  0  0
   -5.9557   -3.1991   -4.1594 C   0  0  0  0  0  0  0  0  0  0  0  0
   -3.3160   -2.3696   -4.4557 C   0  0  0  0  0  0  0  0  0  0  0  0
   -8.2252   -5.4121   -0.3827 C   0  0  0  0  0  0  0  0  0  0  0  0
   -7.0063   -4.7065   -0.5326 C   0  0  0  0  0  0  0  0  0  0  0  0
   -7.6147   -4.2335   -2.6932 C   0  0  0  0  0  0  0  0  0  0  0  0
   -3.8894   -4.6932   -0.7996 C   0  0  0  0  0  0  0  0  0  0  0  0
   -4.0261   -3.7478    1.5219 C   0  0  0  0  0  0  0  0  0  0  0  0
   -2.6264   -3.8746   -1.0902 C   0  0  0  0  0  0  0  0  0  0  0  0
   -2.7338   -2.9486    1.2732 C   0  0  0  0  0  0  0  0  0  0  0  0
    1.7689   -2.8780   -0.9183 C   0  0  0  0  0  0  0  0  0  0  0  0
    0.5959   -0.6916   -0.5826 C   0  0  0  0  0  0  0  0  0  0  0  0
    0.4212   -3.5902   -0.8998 C   0  0  0  0  0  0  0  0  0  0  0  0
   -0.7415   -1.4206   -0.5411 C   0  0  0  0  0  0  0  0  0  0  0  0
   -4.7840   -3.9518    0.2066 C   0  0  0  0  0  0  0  0  0  0  0  0
   -1.8613   -3.6262    0.2078 C   0  0  0  0  0  0  0  0  0  0  0  0
    1.6293   -1.4355   -1.4245 C   0  0  0  0  0  0  0  0  0  0  0  0
   -8.7833   -4.8848   -2.6578 N   0  0  0  0  0  0  0  0  0  0  0  0
   -6.7386   -4.0937   -1.6952 N   0  0  0  0  0  0  0  0  0  0  0  0
   -1.2052   -1.8374   -6.0506 N   0  0  0  0  0  0  0  0  0  0  0  0
   -7.2584   -3.6803   -3.9237 N   0  0  0  0  0  0  0  0  0  0  0  0
   -6.0582   -4.6221    0.4413 N   0  0  0  0  0  0  0  0  0  0  0  0
   -0.5645   -2.8372   -0.0226 N   0  3  0  0  0  0  0  0  0  0  0  0
   -1.3930   -0.7581   -3.6617 O   0  0  0  0  0  0  0  0  0  0  0  0
   -0.8128   -3.1878   -3.9769 O   0  0  0  0  0  0  0  0  0  0  0  0
    2.8472   -0.7125   -1.2974 O   0  0  0  0  0  0  0  0  0  0  0  0
   -1.5770   -2.0066   -4.4241 S   0  0  0  0  0  0  0  0  0  0  0  0
   -8.6601   -6.2863    1.2597 Br  0  0  0  0  0  0  0  0  0  0  0  0
   -5.5209   -4.6015   -5.7463 H   0  0  0  0  0  0  0  0  0  0  0  0
   -6.1139   -1.6466   -2.6752 H   0  0  0  0  0  0  0  0  0  0  0  0
   -3.1603   -3.8722   -6.0012 H   0  0  0  0  0  0  0  0  0  0  0  0
   -3.7541   -0.8876   -2.9501 H   0  0  0  0  0  0  0  0  0  0  0  0
  -10.0225   -5.9913   -1.4152 H   0  0  0  0  0  0  0  0  0  0  0  0
   -4.4337   -4.8457   -1.7312 H   0  0  0  0  0  0  0  0  0  0  0  0
   -3.6274   -5.6807   -0.3986 H   0  0  0  0  0  0  0  0  0  0  0  0
   -3.7860   -4.7218    1.9680 H   0  0  0  0  0  0  0  0  0  0  0  0
   -4.6458   -3.2049    2.2422 H   0  0  0  0  0  0  0  0  0  0  0  0
   -2.0111   -4.3899   -1.8296 H   0  0  0  0  0  0  0  0  0  0  0  0
   -2.9257   -2.9217   -1.5339 H   0  0  0  0  0  0  0  0  0  0  0  0
   -3.0179   -1.9446    0.9442 H   0  0  0  0  0  0  0  0  0  0  0  0
   -2.1781   -2.8390    2.2127 H   0  0  0  0  0  0  0  0  0  0  0  0
    2.2231   -2.8639    0.0807 H   0  0  0  0  0  0  0  0  0  0  0  0
    2.4393   -3.4531   -1.5657 H   0  0  0  0  0  0  0  0  0  0  0  0
    0.4239    0.3026   -1.0028 H   0  0  0  0  0  0  0  0  0  0  0  0
    0.9973   -0.5488    0.4289 H   0  0  0  0  0  0  0  0  0  0  0  0
   -0.0133   -3.6292   -1.8990 H   0  0  0  0  0  0  0  0  0  0  0  0
    0.4970   -4.6033   -0.4982 H   0  0  0  0  0  0  0  0  0  0  0  0
   -1.4406   -0.9110    0.1200 H   0  0  0  0  0  0  0  0  0  0  0  0
   -1.1752   -1.4901   -1.5363 H   0  0  0  0  0  0  0  0  0  0  0  0
   -5.0144   -2.9688   -0.2211 H   0  0  0  0  0  0  0  0  0  0  0  0
   -1.5110   -4.5864    0.6033 H   0  0  0  0  0  0  0  0  0  0  0  0
    1.2855   -1.4525   -2.4682 H   0  0  0  0  0  0  0  0  0  0  0  0
   -1.4059   -0.8952   -6.3875 H   0  0  0  0  0  0  0  0  0  0  0  0
   -0.2304   -2.0923   -6.2125 H   0  0  0  0  0  0  0  0  0  0  0  0
   -7.7659   -4.0877   -4.7015 H   0  0  0  0  0  0  0  0  0  0  0  0
   -6.2140   -5.1396    1.2972 H   0  0  0  0  0  0  0  0  0  0  0  0
   -0.1249   -2.7504    0.9006 H   0  0  0  0  0  0  0  0  0  0  0  0
    3.4798   -1.0277   -1.9624 H   0  0  0  0  0  0  0  0  0  0  0  0
  1  3  1  0  0  0  0
  1  6  2  0  0  0  0
  1 33  1  0  0  0  0
  2  4  2  0  0  0  0
  2  6  1  0  0  0  0
  2 34  1  0  0  0  0
  3  7  2  0  0  0  0
  3 35  1  0  0  0  0
  4  7  1  0  0  0  0
  4 36  1  0  0  0  0
  5  8  1  0  0  0  0
  5 22  2  0  0  0  0
  5 37  1  0  0  0  0
  6 25  1  0  0  0  0
  7 31  1  0  0  0  0
  8  9  2  0  0  0  0
  8 32  1  0  0  0  0
  9 23  1  0  0  0  0
  9 26  1  0  0  0  0
 10 22  1  0  0  0  0
 10 23  2  0  0  0  0
 10 25  1  0  0  0  0
 11 13  1  0  0  0  0
 11 19  1  0  0  0  0
 11 38  1  0  0  0  0
 11 39  1  0  0  0  0
 12 14  1  0  0  0  0
 12 19  1  0  0  0  0
 12 40  1  0  0  0  0
 12 41  1  0  0  0  0
 13 20  1  0  0  0  0
 13 42  1  0  0  0  0
 13 43  1  0  0  0  0
 14 20  1  0  0  0  0
 14 44  1  0  0  0  0
 14 45  1  0  0  0  0
 15 17  1  0  0  0  0
 15 21  1  0  0  0  0
 15 46  1  0  0  0  0
 15 47  1  0  0  0  0
 16 18  1  0  0  0  0
 16 21  1  0  0  0  0
 16 48  1  0  0  0  0
 16 49  1  0  0  0  0
 17 27  1  0  0  0  0
 17 50  1  0  0  0  0
 17 51  1  0  0  0  0
 18 27  1  0  0  0  0
 18 52  1  0  0  0  0
 18 53  1  0  0  0  0
 19 26  1  0  0  0  0
 19 54  1  0  0  0  0
 20 27  1  0  0  0  0
 20 55  1  0  0  0  0
 21 30  1  0  0  0  0
 21 56  1  0  0  0  0
 24 31  1  0  0  0  0
 24 57  1  0  0  0  0
 24 58  1  0  0  0  0
 25 59  1  0  0  0  0
 26 60  1  0  0  0  0
 27 61  1  0  0  0  0
 28 31  2  0  0  0  0
 29 31  2  0  0  0  0
 30 62  1  0  0  0  0
M  CHG  1  27   1
M  END
$$$$
