
  -OEChem-05262117483D

 49 51  0     1  0  0  0  0  0999 V2000
   -4.8974   -1.2196   -2.6958 C   0  0  0  0  0  0  0  0  0  0  0  0
   -4.8731   -0.1923   -1.7426 C   0  0  0  0  0  0  0  0  0  0  0  0
   -3.3934   -1.4852   -0.3363 C   0  0  0  0  0  0  0  0  0  0  0  0
   -0.0424   -6.7774   -0.0742 C   0  0  0  0  0  0  0  0  0  0  0  0
   -0.1080   -7.3956    1.1867 C   0  0  0  0  0  0  0  0  0  0  0  0
   -4.1705   -2.3843   -2.4593 C   0  0  0  0  0  0  0  0  0  0  0  0
   -3.4247   -2.5068   -1.2819 C   0  0  0  0  0  0  0  0  0  0  0  0
   -4.1298   -0.3083   -0.5567 C   0  0  0  0  0  0  0  0  0  0  0  0
   -1.1204   -6.8912    2.0598 C   0  0  0  0  0  0  0  0  0  0  0  0
   -1.7673   -5.4022    0.4222 C   0  0  0  0  0  0  0  0  0  0  0  0
    0.8300   -8.4910    1.5444 C   0  0  0  0  0  0  0  0  0  0  0  0
   -4.0136   -3.6260   -3.3115 C   0  0  0  0  0  0  0  0  0  0  0  0
   -2.7055   -3.8392   -1.2625 C   0  0  2  0  0  0  0  0  0  0  0  0
   -3.4978   -4.6931   -2.3079 C   0  0  1  0  0  0  0  0  0  0  0  0
   -4.1452    0.7962    0.4759 C   0  0  0  0  0  0  0  0  0  0  0  0
   -4.6576   -5.4650   -1.6709 C   0  0  0  0  0  0  0  0  0  0  0  0
   -2.3152   -8.6550    3.3976 C   0  0  0  0  0  0  0  0  0  0  0  0
    2.8975   -9.9123    1.0961 C   0  0  0  0  0  0  0  0  0  0  0  0
   -1.3957   -7.4198    3.4446 C   0  0  0  0  0  0  0  0  0  0  0  0
    1.9632   -8.8234    0.5695 C   0  0  0  0  0  0  0  0  0  0  0  0
   -0.8499   -5.8039   -0.4855 N   0  0  0  0  0  0  0  0  0  0  0  0
   -1.9267   -5.9042    1.6682 N   0  0  0  0  0  0  0  0  0  0  0  0
   -2.6080   -4.3952    0.0762 N   0  0  0  0  0  0  0  0  0  0  0  0
    0.7230   -9.1319    2.5886 O   0  0  0  0  0  0  0  0  0  0  0  0
   -5.4844   -1.1047   -3.6047 H   0  0  0  0  0  0  0  0  0  0  0  0
   -5.4453    0.7157   -1.9217 H   0  0  0  0  0  0  0  0  0  0  0  0
   -2.8005   -1.5939    0.5703 H   0  0  0  0  0  0  0  0  0  0  0  0
    0.6995   -7.0929   -0.8037 H   0  0  0  0  0  0  0  0  0  0  0  0
   -4.9432   -3.9297   -3.8045 H   0  0  0  0  0  0  0  0  0  0  0  0
   -3.2727   -3.4492   -4.1025 H   0  0  0  0  0  0  0  0  0  0  0  0
   -1.6806   -3.7138   -1.6272 H   0  0  0  0  0  0  0  0  0  0  0  0
   -2.8202   -5.4027   -2.7902 H   0  0  0  0  0  0  0  0  0  0  0  0
   -4.9403    0.6339    1.2140 H   0  0  0  0  0  0  0  0  0  0  0  0
   -3.1983    0.8459    1.0221 H   0  0  0  0  0  0  0  0  0  0  0  0
   -4.3212    1.7725    0.0147 H   0  0  0  0  0  0  0  0  0  0  0  0
   -5.3656   -4.7880   -1.1784 H   0  0  0  0  0  0  0  0  0  0  0  0
   -4.3027   -6.1844   -0.9270 H   0  0  0  0  0  0  0  0  0  0  0  0
   -5.2074   -6.0214   -2.4369 H   0  0  0  0  0  0  0  0  0  0  0  0
   -3.2613   -8.4147    2.9014 H   0  0  0  0  0  0  0  0  0  0  0  0
   -2.5385   -8.9948    4.4140 H   0  0  0  0  0  0  0  0  0  0  0  0
   -1.8327   -9.4778    2.8649 H   0  0  0  0  0  0  0  0  0  0  0  0
    3.3667   -9.6072    2.0351 H   0  0  0  0  0  0  0  0  0  0  0  0
    2.3509  -10.8381    1.2920 H   0  0  0  0  0  0  0  0  0  0  0  0
    3.6854  -10.1200    0.3651 H   0  0  0  0  0  0  0  0  0  0  0  0
   -0.4641   -7.6868    3.9440 H   0  0  0  0  0  0  0  0  0  0  0  0
   -1.8891   -6.6169    3.9992 H   0  0  0  0  0  0  0  0  0  0  0  0
    1.5205   -9.1357   -0.3852 H   0  0  0  0  0  0  0  0  0  0  0  0
    2.5255   -7.9071    0.3515 H   0  0  0  0  0  0  0  0  0  0  0  0
   -3.3551   -4.2150    0.7357 H   0  0  0  0  0  0  0  0  0  0  0  0
  1  2  1  0  0  0  0
  1  6  2  0  0  0  0
  1 25  1  0  0  0  0
  2  8  2  0  0  0  0
  2 26  1  0  0  0  0
  3  7  2  0  0  0  0
  3  8  1  0  0  0  0
  3 27  1  0  0  0  0
  4  5  1  0  0  0  0
  4 21  2  0  0  0  0
  4 28  1  0  0  0  0
  5  9  2  0  0  0  0
  5 11  1  0  0  0  0
  6  7  1  0  0  0  0
  6 12  1  0  0  0  0
  7 13  1  0  0  0  0
  8 15  1  0  0  0  0
  9 19  1  0  0  0  0
  9 22  1  0  0  0  0
 10 21  1  0  0  0  0
 10 22  2  0  0  0  0
 10 23  1  0  0  0  0
 11 20  1  0  0  0  0
 11 24  2  0  0  0  0
 12 14  1  0  0  0  0
 12 29  1  0  0  0  0
 12 30  1  0  0  0  0
 13 14  1  0  0  0  0
 13 23  1  0  0  0  0
 13 31  1  0  0  0  0
 14 16  1  0  0  0  0
 14 32  1  0  0  0  0
 15 33  1  0  0  0  0
 15 34  1  0  0  0  0
 15 35  1  0  0  0  0
 16 36  1  0  0  0  0
 16 37  1  0  0  0  0
 16 38  1  0  0  0  0
 17 19  1  0  0  0  0
 17 39  1  0  0  0  0
 17 40  1  0  0  0  0
 17 41  1  0  0  0  0
 18 20  1  0  0  0  0
 18 42  1  0  0  0  0
 18 43  1  0  0  0  0
 18 44  1  0  0  0  0
 19 45  1  0  0  0  0
 19 46  1  0  0  0  0
 20 47  1  0  0  0  0
 20 48  1  0  0  0  0
 23 49  1  0  0  0  0
M  END
$$$$
