
  -OEChem-05262117483D

 43 45  0     1  0  0  0  0  0999 V2000
    4.3616   -7.0633   -1.9325 C   0  0  0  0  0  0  0  0  0  0  0  0
    2.0234   -6.9113   -1.3637 C   0  0  0  0  0  0  0  0  0  0  0  0
    4.3657   -5.7096   -2.2680 C   0  0  0  0  0  0  0  0  0  0  0  0
    2.0298   -5.5602   -1.7002 C   0  0  0  0  0  0  0  0  0  0  0  0
    6.4345   -1.8126   -2.8452 C   0  0  0  0  0  0  0  0  0  0  0  0
    5.2598   -2.2249   -3.4345 C   0  0  0  0  0  0  0  0  0  0  0  0
    5.3270   -2.8351   -1.3129 C   0  0  0  0  0  0  0  0  0  0  0  0
    3.1903   -7.6833   -1.4711 C   0  0  0  0  0  0  0  0  0  0  0  0
    3.2032   -4.9330   -2.1508 C   0  0  0  0  0  0  0  0  0  0  0  0
    3.1340   -9.1320   -1.0917 C   0  0  0  0  0  0  0  0  0  0  0  0
    0.9529   -0.2114   -0.5970 C   0  0  0  0  0  0  0  0  0  0  0  0
    0.9318   -0.3282   -2.1273 C   0  0  0  0  0  0  0  0  0  0  0  0
    0.9932   -1.5946    0.0667 C   0  0  0  0  0  0  0  0  0  0  0  0
    2.1001   -1.1803   -2.6440 C   0  0  0  0  0  0  0  0  0  0  0  0
    2.1721   -2.4289   -0.4554 C   0  0  0  0  0  0  0  0  0  0  0  0
    2.1124   -2.5704   -1.9851 C   0  0  0  0  0  0  0  0  0  0  0  0
    4.3983   -9.9650   -1.2064 C   0  0  0  0  0  0  0  0  0  0  0  0
    3.2141   -3.4693   -2.5954 C   0  0  1  0  0  0  0  0  0  0  0  0
    6.4672   -2.2014   -1.5209 N   0  0  0  0  0  0  0  0  0  0  0  0
    4.5498   -2.8819   -2.4438 N   0  0  0  0  0  0  0  0  0  0  0  0
    2.0874   -9.6343   -0.6969 O   0  0  0  0  0  0  0  0  0  0  0  0
    5.2823   -7.6295   -2.0339 H   0  0  0  0  0  0  0  0  0  0  0  0
    1.1170   -7.3921   -1.0090 H   0  0  0  0  0  0  0  0  0  0  0  0
    5.2850   -5.2528   -2.6205 H   0  0  0  0  0  0  0  0  0  0  0  0
    1.1078   -4.9971   -1.6043 H   0  0  0  0  0  0  0  0  0  0  0  0
    7.2527   -1.2657   -3.2961 H   0  0  0  0  0  0  0  0  0  0  0  0
    4.8653   -2.1130   -4.4345 H   0  0  0  0  0  0  0  0  0  0  0  0
    5.0262   -3.3036   -0.3862 H   0  0  0  0  0  0  0  0  0  0  0  0
    0.0803    0.3529   -0.2482 H   0  0  0  0  0  0  0  0  0  0  0  0
    1.8404    0.3590   -0.2911 H   0  0  0  0  0  0  0  0  0  0  0  0
   -0.0165   -0.7849   -2.4429 H   0  0  0  0  0  0  0  0  0  0  0  0
    0.9672    0.6670   -2.5849 H   0  0  0  0  0  0  0  0  0  0  0  0
    1.0651   -1.4919    1.1554 H   0  0  0  0  0  0  0  0  0  0  0  0
    0.0526   -2.1254   -0.1367 H   0  0  0  0  0  0  0  0  0  0  0  0
    2.0345   -1.2829   -3.7351 H   0  0  0  0  0  0  0  0  0  0  0  0
    3.0474   -0.6701   -2.4324 H   0  0  0  0  0  0  0  0  0  0  0  0
    3.1066   -1.9274   -0.1783 H   0  0  0  0  0  0  0  0  0  0  0  0
    2.1836   -3.4124    0.0262 H   0  0  0  0  0  0  0  0  0  0  0  0
    1.1579   -3.0474   -2.2432 H   0  0  0  0  0  0  0  0  0  0  0  0
    5.1964   -9.5528   -0.5796 H   0  0  0  0  0  0  0  0  0  0  0  0
    4.7658   -9.9768   -2.2382 H   0  0  0  0  0  0  0  0  0  0  0  0
    4.1797  -10.9852   -0.8892 H   0  0  0  0  0  0  0  0  0  0  0  0
    3.0338   -3.4784   -3.6772 H   0  0  0  0  0  0  0  0  0  0  0  0
  1  3  1  0  0  0  0
  1  8  2  0  0  0  0
  1 22  1  0  0  0  0
  2  4  2  0  0  0  0
  2  8  1  0  0  0  0
  2 23  1  0  0  0  0
  3  9  2  0  0  0  0
  3 24  1  0  0  0  0
  4  9  1  0  0  0  0
  4 25  1  0  0  0  0
  5  6  2  0  0  0  0
  5 19  1  0  0  0  0
  5 26  1  0  0  0  0
  6 20  1  0  0  0  0
  6 27  1  0  0  0  0
  7 19  2  0  0  0  0
  7 20  1  0  0  0  0
  7 28  1  0  0  0  0
  8 10  1  0  0  0  0
  9 18  1  0  0  0  0
 10 17  1  0  0  0  0
 10 21  2  0  0  0  0
 11 12  1  0  0  0  0
 11 13  1  0  0  0  0
 11 29  1  0  0  0  0
 11 30  1  0  0  0  0
 12 14  1  0  0  0  0
 12 31  1  0  0  0  0
 12 32  1  0  0  0  0
 13 15  1  0  0  0  0
 13 33  1  0  0  0  0
 13 34  1  0  0  0  0
 14 16  1  0  0  0  0
 14 35  1  0  0  0  0
 14 36  1  0  0  0  0
 15 16  1  0  0  0  0
 15 37  1  0  0  0  0
 15 38  1  0  0  0  0
 16 18  1  0  0  0  0
 16 39  1  0  0  0  0
 17 40  1  0  0  0  0
 17 41  1  0  0  0  0
 17 42  1  0  0  0  0
 18 20  1  0  0  0  0
 18 43  1  0  0  0  0
M  END
$$$$
