62
1 1 BrC21H30N6O3S
C                    -5.135383418403    -3.789601960583    -5.135437166933
C                    -5.459918916822    -2.132178232454    -3.389612401346
C                    -3.808366251092    -3.386747176631    -5.278702419158
C                    -4.142800612498    -1.715536487709    -3.534071122810
C                    -9.075287306961    -5.460228834747    -1.477820876993
C                    -5.955661504798    -3.199136244431    -4.159351381193
C                    -3.316041227129    -2.369589015930    -4.455730349793
C                    -8.225243192970    -5.412137871313    -0.382671785217
C                    -7.006322901311    -4.706499449938    -0.532551747284
C                    -7.614662715484    -4.233455389236    -2.693176054158
C                    -3.889448995271    -4.693191426272    -0.799579674348
C                    -4.026131748672    -3.747781466631     1.521864560825
C                    -2.626406368170    -3.874593445770    -1.090213318346
C                    -2.733815392825    -2.948633135212     1.273213947559
C                     1.768908967796    -2.877960486831    -0.918276694502
C                     0.595858518772    -0.691580929318    -0.582586500323
C                     0.421192816926    -3.590218401810    -0.899796196440
C                    -0.741472815094    -1.420613714249    -0.541126889354
C                    -4.783992806264    -3.951849418492     0.206642996961
C                    -1.861305912330    -3.626167023721     0.207834365366
C                     1.629281195048    -1.435477090281    -1.424491344929
N                    -8.783304949006    -4.884816014153    -2.657812495863
N                    -6.738650018354    -4.093662751329    -1.695150110296
N                    -1.205227788999    -1.837390378015    -6.050630266452
N                    -7.258362032052    -3.680273737188    -3.923708123686
N                    -6.058157859900    -4.622143538331     0.441306292359
N                    -0.564472282851    -2.837242041463    -0.022631676317
O                    -1.392963040802    -0.758145167545    -3.661652107563
O                    -0.812838516284    -3.187835781516    -3.976940900989
O                     2.847204564469    -0.712472099455    -1.297440966164
S                    -1.577005720487    -2.006636791922    -4.424130569701
Br                   -8.660126036007    -6.286269084163     1.259662184870
H                    -5.520852693653    -4.601497239656    -5.746337002866
H                    -6.113921125582    -1.646649606035    -2.675203063500
H                    -3.160262182729    -3.872169570724    -6.001170644372
H                    -3.754054290952    -0.887621257601    -2.950135522230
H                   -10.022472248676    -5.991292556881    -1.415232024351
H                    -4.433678402986    -4.845694662649    -1.731249489503
H                    -3.627394910646    -5.680681007360    -0.398591875221
H                    -3.785981637030    -4.721770202462     1.967974454023
H                    -4.645789837865    -3.204906927205     2.242235587960
H                    -2.011110276141    -4.389907748135    -1.829601863160
H                    -2.925747104576    -2.921687320517    -1.533912983977
H                    -3.017887112408    -1.944617455670     0.944224819651
H                    -2.178114507997    -2.839002037240     2.212673267131
H                     2.223069911246    -2.863928109524     0.080697063953
H                     2.439307552507    -3.453052282070    -1.565654477727
H                     0.423867432010     0.302605786255    -1.002818855320
H                     0.997250757457    -0.548817633428     0.428939436821
H                    -0.013267128851    -3.629249226968    -1.898955865433
H                     0.496975909550    -4.603252197666    -0.498159260920
H                    -1.440578353300    -0.910960406807     0.119974337522
H                    -1.175163342499    -1.490110504409    -1.536337488744
H                    -5.014397950234    -2.968755077480    -0.221078348006
H                    -1.510983365014    -4.586389431379     0.603296665396
H                     1.285451890237    -1.452493397336    -2.468202501497
H                    -1.405912340528    -0.895163191751    -6.387469060934
H                    -0.230384738897    -2.092349048221    -6.212480164106
H                    -7.765930566497    -4.087700310609    -4.701461984523
H                    -6.214033330970    -5.139560521050     1.297208625618
H                    -0.124939993589    -2.750369717591     0.900644118252
H                     3.479793717943    -1.027656708471    -1.962379765005
