23
0 1 C8Cl2H7NO3S2
C                    -0.395786251735     1.690877073113    -4.778973549838
C                    -1.519698252203     1.771643565117    -3.887934664723
C                    -0.644492851950     0.897759880199    -5.862303690867
C                    -2.585905599848     1.029214219880    -4.331781293449
C                    -1.544432497748     2.614829018572    -2.648759141639
C                     0.819265368216     1.018297881411    -0.264930924781
C                     0.357286164860     1.175901253660    -1.723929296480
C                     1.060270931860     2.428659020041     0.262656611089
N                    -0.505682478073     2.369657867176    -1.758550773697
O                    -2.389650563203     3.468540986812    -2.444271340579
O                    -0.066437034610     4.723811048459    -0.663238261415
O                    -1.522414381239     3.044570804463     0.583145761258
S                    -2.249639179312     0.209655661031    -5.835345355840
S                    -0.401873054391     3.351304643929    -0.302598986327
Cl                    0.425724642932     0.567404855950    -7.178973062413
Cl                   -4.113716075189     0.819179546256    -3.565498089501
H                     0.533183103322     2.230731285984    -4.634143060216
H                     0.041247918918     0.530864010655     0.328198299026
H                     1.726391981383     0.412079665677    -0.211668825769
H                     1.221078673208     1.316944866493    -2.382633340008
H                    -0.199164595827     0.301125349506    -2.065166998236
H                     1.084405159242     2.509245650002     1.349990919653
H                     1.936133205077     2.909936421960    -0.178894695610
