41
0 1 C15H20N2O3S
C                     4.666902272869    -5.289631865347     1.280107237452
C                     3.356350332757    -5.624440598462     0.919951101157
C                     4.897331319774    -4.157125608927     2.066138509385
C                     2.285154849597    -4.833350948031     1.341341454644
C                     3.822836194451    -3.364968491643     2.484831016909
C                     2.507875604912    -3.693076248448     2.128294473902
C                     0.296402956203    -2.601988279550     1.507296518595
C                     1.566289844928     0.455608428333     1.229883192432
C                    -1.072645973770    -0.116964747972    -0.415521190834
C                     1.802829909638    -0.881302881705     0.506228451368
C                    -0.381045718900    -1.481613606481    -0.547583211165
C                    -0.087890921209     2.395648855679     1.363243972391
C                     0.796508070520     1.532971916392     0.433226576577
C                    -0.119698249896     1.043543460311    -0.705114419518
C                     1.340168935531    -2.844008281199     2.599948036814
N                    -0.999564336098     3.201087696522     0.527105407805
N                     0.617912756917    -1.736872246080     0.487119835832
O                    -0.777792575442    -3.207173488450     1.538423881024
O                    -2.432588404252     2.386042013843    -1.452410432932
O                    -0.160246263160     3.425598372585    -1.919102816617
S                    -1.028922039975     2.602514197029    -1.075885279147
H                     5.499410999296    -5.906217451111     0.951540906259
H                     3.168593675737    -6.504969299200     0.310764995037
H                     5.910840221513    -3.888922569782     2.353471849749
H                     1.268781416365    -5.099567662306     1.061558488807
H                     4.010106849829    -2.485852445344     3.098970189969
H                     1.036443468508     0.234608811313     2.163058135744
H                     2.536105394023     0.874655860303     1.520173892555
H                    -1.898149700995    -0.079276577691    -1.133289306397
H                    -1.518591991368    -0.028818959142     0.580474675786
H                     2.115728531314    -0.711196655375    -0.529728131772
H                     2.624514236844    -1.417980501990     0.979237088947
H                    -1.125556429234    -2.273265661160    -0.476014459387
H                     0.105667587123    -1.555885331949    -1.528554710170
H                    -0.661240993161     1.743864444485     2.033368554435
H                     0.535833286294     3.052783317266     1.976333961671
H                     1.528066332522     2.197521134971    -0.037224764505
H                     0.451815016207     0.852072434364    -1.617070346244
H                     0.798863750499    -3.362055275846     3.395539466570
H                     1.709215211923    -1.903009156488     3.018091634108
H                    -1.956151603241     3.235834138938     0.871623860098
