
  -OEChem-05262117483D

 35 37  0     0  0  0  0  0  0999 V2000
    7.5898   -2.9228    4.7865 C   0  0  0  0  0  0  0  0  0  0  0  0
    8.6216    0.1805   -0.9868 C   0  0  0  0  0  0  0  0  0  0  0  0
   -0.0284   -1.8254    2.2932 C   0  0  0  0  0  0  0  0  0  0  0  0
    9.7182   -0.1522   -0.1828 C   0  0  0  0  0  0  0  0  0  0  0  0
    7.3256   -0.1250   -0.5545 C   0  0  0  0  0  0  0  0  0  0  0  0
   -0.0996   -1.4589    0.9460 C   0  0  0  0  0  0  0  0  0  0  0  0
    1.2119   -2.1027    2.8604 C   0  0  0  0  0  0  0  0  0  0  0  0
    9.5121   -0.7863    1.0389 C   0  0  0  0  0  0  0  0  0  0  0  0
    7.1132   -0.7597    0.6672 C   0  0  0  0  0  0  0  0  0  0  0  0
    1.0695   -1.3788    0.1881 C   0  0  0  0  0  0  0  0  0  0  0  0
    2.3947   -2.0194    2.1001 C   0  0  0  0  0  0  0  0  0  0  0  0
    8.2078   -1.1079    1.4884 C   0  0  0  0  0  0  0  0  0  0  0  0
    2.3323   -1.6524    0.7357 C   0  0  0  0  0  0  0  0  0  0  0  0
    3.6565   -2.3451    2.7896 C   0  0  0  0  0  0  0  0  0  0  0  0
    5.6985   -2.4082    3.3398 C   0  0  0  0  0  0  0  0  0  0  0  0
    8.1336   -1.7802    2.7753 C   0  0  0  0  0  0  0  0  0  0  0  0
    7.1415   -2.3217    3.5533 C   0  0  0  0  0  0  0  0  0  0  0  0
    3.5456   -1.5407   -0.1588 C   0  0  0  0  0  0  0  0  0  0  0  0
    7.9897   -3.3957    5.7734 N   0  0  0  0  0  0  0  0  0  0  0  0
    4.9153   -1.9062    2.4183 N   0  0  0  0  0  0  0  0  0  0  0  0
    3.6650   -3.0873    3.8833 N   0  0  0  0  0  0  0  0  0  0  0  0
    5.0106   -3.1268    4.2569 O   0  0  0  0  0  0  0  0  0  0  0  0
    8.7765    0.6764   -1.9415 H   0  0  0  0  0  0  0  0  0  0  0  0
   -0.9293   -1.8910    2.8968 H   0  0  0  0  0  0  0  0  0  0  0  0
   10.7276    0.0830   -0.5083 H   0  0  0  0  0  0  0  0  0  0  0  0
    6.4725    0.1357   -1.1754 H   0  0  0  0  0  0  0  0  0  0  0  0
   -1.0595   -1.2375    0.4866 H   0  0  0  0  0  0  0  0  0  0  0  0
    1.2827   -2.3836    3.9062 H   0  0  0  0  0  0  0  0  0  0  0  0
   10.3677   -1.0431    1.6590 H   0  0  0  0  0  0  0  0  0  0  0  0
    6.1101   -0.9858    0.9978 H   0  0  0  0  0  0  0  0  0  0  0  0
    1.0057   -1.1005   -0.8611 H   0  0  0  0  0  0  0  0  0  0  0  0
    9.1140   -1.8969    3.2320 H   0  0  0  0  0  0  0  0  0  0  0  0
    4.1156   -0.6354    0.0711 H   0  0  0  0  0  0  0  0  0  0  0  0
    4.2278   -2.3855   -0.0423 H   0  0  0  0  0  0  0  0  0  0  0  0
    3.2371   -1.4880   -1.2062 H   0  0  0  0  0  0  0  0  0  0  0  0
  1 17  1  0  0  0  0
  1 19  3  0  0  0  0
  2  4  1  0  0  0  0
  2  5  2  0  0  0  0
  2 23  1  0  0  0  0
  3  6  1  0  0  0  0
  3  7  2  0  0  0  0
  3 24  1  0  0  0  0
  4  8  2  0  0  0  0
  4 25  1  0  0  0  0
  5  9  1  0  0  0  0
  5 26  1  0  0  0  0
  6 10  2  0  0  0  0
  6 27  1  0  0  0  0
  7 11  1  0  0  0  0
  7 28  1  0  0  0  0
  8 12  1  0  0  0  0
  8 29  1  0  0  0  0
  9 12  2  0  0  0  0
  9 30  1  0  0  0  0
 10 13  1  0  0  0  0
 10 31  1  0  0  0  0
 11 13  2  0  0  0  0
 11 14  1  0  0  0  0
 12 16  1  0  0  0  0
 13 18  1  0  0  0  0
 14 20  1  0  0  0  0
 14 21  2  0  0  0  0
 15 17  1  0  0  0  0
 15 20  2  0  0  0  0
 15 22  1  0  0  0  0
 16 17  2  0  0  0  0
 16 32  1  0  0  0  0
 18 33  1  0  0  0  0
 18 34  1  0  0  0  0
 18 35  1  0  0  0  0
 21 22  1  0  0  0  0
M  END
$$$$
