
  -OEChem-05262117483D

 18 18  0     0  0  0  0  0  0999 V2000
    4.0502   -2.2331   -0.0866 C   0  0  0  0  0  0  0  0  0  0  0  0
    1.8964   -1.0419   -0.1466 C   0  0  0  0  0  0  0  0  0  0  0  0
    0.8124   -0.4644    0.5099 C   0  0  0  0  0  0  0  0  0  0  0  0
    1.7772   -1.0659    2.6595 C   0  0  0  0  0  0  0  0  0  0  0  0
    2.9339   -1.6383    0.5899 C   0  0  0  0  0  0  0  0  0  0  0  0
    0.7511   -0.4753    1.9105 C   0  0  0  0  0  0  0  0  0  0  0  0
    2.8464   -1.6348    1.9902 C   0  0  0  0  0  0  0  0  0  0  0  0
   -0.3890    0.1302    2.6609 C   0  0  0  0  0  0  0  0  0  0  0  0
    4.9489   -2.7113   -0.6513 N   0  0  0  0  0  0  0  0  0  0  0  0
    3.9267   -2.2567    2.7845 N   0  3  0  0  0  0  0  0  0  0  0  0
    3.7966   -3.4498    3.0554 O   0  5  0  0  0  0  0  0  0  0  0  0
   -0.4805    0.1419    3.8727 O   0  0  0  0  0  0  0  0  0  0  0  0
    4.8599   -1.5262    3.1153 O   0  0  0  0  0  0  0  0  0  0  0  0
   -1.3251    0.6734    1.8433 O   0  0  0  0  0  0  0  0  0  0  0  0
    1.9538   -1.0390   -1.2301 H   0  0  0  0  0  0  0  0  0  0  0  0
    0.0124   -0.0044   -0.0589 H   0  0  0  0  0  0  0  0  0  0  0  0
    1.7220   -1.0701    3.7435 H   0  0  0  0  0  0  0  0  0  0  0  0
   -2.0208    1.0389    2.4234 H   0  0  0  0  0  0  0  0  0  0  0  0
  1  5  1  0  0  0  0
  1  9  3  0  0  0  0
  2  3  1  0  0  0  0
  2  5  2  0  0  0  0
  2 15  1  0  0  0  0
  3  6  2  0  0  0  0
  3 16  1  0  0  0  0
  4  6  1  0  0  0  0
  4  7  2  0  0  0  0
  4 17  1  0  0  0  0
  5  7  1  0  0  0  0
  6  8  1  0  0  0  0
  7 10  1  0  0  0  0
  8 12  2  0  0  0  0
  8 14  1  0  0  0  0
 10 11  1  0  0  0  0
 10 13  2  0  0  0  0
 14 18  1  0  0  0  0
M  CHG  2  10   1  11  -1
M  END
$$$$
