35
0 1 C18H13N3O
C                     7.908983565742    -3.014415609362     2.301676619381
C                     7.258751114888    -1.152866873485     8.619232205436
C                     2.143489591127    -0.893145343795    -0.349870682896
C                     6.540349574204    -0.603561582091     7.549496955038
C                     8.226116028445    -2.133666035348     8.377093387628
C                     0.803564092988    -0.831313457986     0.042137566353
C                     3.110042016579    -1.272279759279     0.577910716949
C                     6.765634097852    -1.046389915111     6.248835305243
C                     8.467946891576    -2.563383304460     7.072913317935
C                     0.449097643604    -1.150081480444     1.354968180577
C                     2.756877480718    -1.594104356932     1.902595191739
C                     7.723445314841    -2.048116575127     5.992134509574
C                     1.400796879685    -1.535723743723     2.309726907619
C                     3.855523497213    -1.982731687690     2.800850789274
C                     5.831542265062    -2.383098534402     3.424791832431
C                     8.044612309266    -2.535630436309     4.652977853005
C                     7.275492588467    -2.618385216430     3.530834251648
C                     0.940654000626    -1.867086242005     3.708095371917
N                     8.444069378643    -3.339424922472     1.318959602888
N                     5.174703618828    -2.006471820927     2.365675088985
N                     3.718501916937    -2.337200814711     4.067977018700
O                     5.034203174651    -2.617018690368     4.487119406229
H                     7.074709514725    -0.807225179062     9.632933928767
H                     2.433461377312    -0.649622833416    -1.368193377426
H                     5.805370372039     0.175585988641     7.731347676881
H                     8.796886737210    -2.554070087183     9.200368506197
H                     0.036065093815    -0.537330434459    -0.669355237756
H                     4.154454253575    -1.327851044760     0.291644854022
H                     6.216967200553    -0.593035628233     5.431277348464
H                     9.228742951191    -3.317376865116     6.884932041064
H                    -0.595715397504    -1.100236654397     1.651539208754
H                     9.071121190033    -2.874690843724     4.527552995505
H                     1.199067679424    -2.893838057446     3.983252545750
H                     1.420570178840    -1.224802874247     4.452472973014
H                    -0.142650782232    -1.745870952173     3.789006085877
