18
0 1 C8H4N2O4
C                     4.652361996567    -2.131578007911    -0.073205703269
C                     2.315553206918    -1.487095490792    -0.131917105152
C                     1.114394018070    -1.140159254282     0.474121772425
C                     2.141213642278    -1.353481959922     2.652016571336
C                     3.455806167901    -1.783130838170     0.640382616135
C                     1.021520374828    -1.055568885421     1.871336820907
C                     3.339306566697    -1.714989101511     2.040106626068
C                    -0.315201674981    -0.689534415832     2.461130778341
N                     5.529575677252    -2.386036849074    -0.795644707317
N                     4.483859605818    -2.027896544570     2.921393071529
O                     4.311273866749    -1.901144627045     4.137716494820
O                    -1.349121132239    -0.839838873274     1.852205678297
O                     5.530838563957    -2.390889356470     2.387052382475
O                    -0.322890773314    -0.179626526525     3.719893224367
H                     2.392114729802    -1.539668759829    -1.212850316839
H                     0.231506848588    -0.931195624749    -0.121321659743
H                     2.118273471522    -1.353637675608     3.736456582188
H                     0.576674236186     0.023549761736     4.026933981323
