
  -OEChem-05262117483D

 21 21  0     1  0  0  0  0  0999 V2000
    1.5676    0.4334    1.5538 C   0  0  0  0  0  0  0  0  0  0  0  0
    0.3239   -0.0038    1.0109 C   0  0  0  0  0  0  0  0  0  0  0  0
    1.4914    0.2782    2.9255 C   0  0  0  0  0  0  0  0  0  0  0  0
   -0.4760   -0.4081    2.0669 C   0  0  0  0  0  0  0  0  0  0  0  0
   -0.2187   -0.4960    4.5875 C   0  0  0  0  0  0  0  0  0  0  0  0
   -1.8609   -2.5177    1.9458 C   0  0  0  0  0  0  0  0  0  0  0  0
   -1.8637   -0.9864    2.0448 C   0  0  2  0  0  0  0  0  0  0  0  0
    0.2477   -0.2353    3.2372 N   0  0  0  0  0  0  0  0  0  0  0  0
   -2.6082   -0.4232    0.9116 N   0  0  0  0  0  0  0  0  0  0  0  0
   -1.1954   -2.9674    0.8087 F   0  0  0  0  0  0  0  0  0  0  0  0
    2.4221    0.8111    1.0072 H   0  0  0  0  0  0  0  0  0  0  0  0
    0.0340   -0.0492   -0.0298 H   0  0  0  0  0  0  0  0  0  0  0  0
    2.2098    0.4925    3.7056 H   0  0  0  0  0  0  0  0  0  0  0  0
   -1.0842    0.1269    4.8391 H   0  0  0  0  0  0  0  0  0  0  0  0
   -0.4921   -1.5478    4.7217 H   0  0  0  0  0  0  0  0  0  0  0  0
    0.5849   -0.2622    5.2877 H   0  0  0  0  0  0  0  0  0  0  0  0
   -1.3587   -2.9508    2.8177 H   0  0  0  0  0  0  0  0  0  0  0  0
   -2.8888   -2.8998    1.8964 H   0  0  0  0  0  0  0  0  0  0  0  0
   -2.3464   -0.7788    3.0192 H   0  0  0  0  0  0  0  0  0  0  0  0
   -2.5878    0.5930    0.9605 H   0  0  0  0  0  0  0  0  0  0  0  0
   -3.5828   -0.7173    0.9466 H   0  0  0  0  0  0  0  0  0  0  0  0
  1  2  1  0  0  0  0
  1  3  2  0  0  0  0
  1 11  1  0  0  0  0
  2  4  2  0  0  0  0
  2 12  1  0  0  0  0
  3  8  1  0  0  0  0
  3 13  1  0  0  0  0
  4  7  1  0  0  0  0
  4  8  1  0  0  0  0
  5  8  1  0  0  0  0
  5 14  1  0  0  0  0
  5 15  1  0  0  0  0
  5 16  1  0  0  0  0
  6  7  1  0  0  0  0
  6 10  1  0  0  0  0
  6 17  1  0  0  0  0
  6 18  1  0  0  0  0
  7  9  1  0  0  0  0
  7 19  1  0  0  0  0
  9 20  1  0  0  0  0
  9 21  1  0  0  0  0
M  END
$$$$
