21
0 1 C7FH11N2
C                     1.459278084189     0.463453554566     1.482625065217
C                     0.192941313076     0.081516875871     0.953641390529
C                     1.379741336522     0.316035811727     2.855261197541
C                    -0.621353112592    -0.282971798292     2.015132874917
C                    -0.339688429637    -0.335617776278     4.548301594718
C                    -3.054365112617     0.201571002733     2.592645830524
C                    -2.042850785621    -0.758413635020     1.954110201607
N                     0.120921125512    -0.142800497048     3.179144760220
N                    -2.201429786018    -2.066177589122     2.632037443413
F                    -3.087679506249     1.405781697259     1.881689474520
H                     2.327673476459     0.796808420921     0.929275944457
H                    -0.104898846097     0.073481679768    -0.087577643009
H                     2.115463566993     0.491072382129     3.629388781582
H                    -0.760291092262     0.589993160903     4.958902977398
H                    -1.094408582354    -1.122160191063     4.572976011488
H                     0.507387587589    -0.636558956240     5.169847862284
H                    -4.062625407235    -0.227698603625     2.554506727175
H                    -2.802489539968     0.429202104513     3.630621293516
H                    -2.291402961342    -0.802709572337     0.883406376993
H                    -1.484274245994    -2.700751464059     2.284763750596
H                    -3.102146803723    -2.477578738488     2.388266484333
