21   
torsion grid (-75,)
C       -4.5323810487    3.4817711612   -2.5801498970
C       -4.1503329474    2.9083655507   -4.6137675840
C       -2.9218135418    2.1310512534   -2.8442635961
C       -0.7626284174   -0.6474816429   -1.9228298167
C       -0.2535202895    0.4716577238   -0.9983662076
C       -1.4926624512    0.1167391967   -3.0349530764
C       -1.3939156022    1.5017377804   -1.0090078406
N       -4.8644533590    3.8089067459   -3.8277241085
N       -3.2207084801    3.3297616640   -2.2809409975
N       -3.3857923242    1.9146058178   -4.1519866315
N       -2.0183331825    1.2942437047   -2.3256203503
H       -5.2134195600    3.7848662583   -1.7737506297
H       -4.2765003811    2.9816570087   -5.6921902775
H        0.0377902908   -1.2806362146   -2.3136356230
H       -1.4699167827   -1.2889657027   -1.3856733202
H       -0.0207635401    0.1256048520    0.0117260891
H        0.6540924120    0.9187455365   -1.4181177160
H       -0.8093036339    0.4345299006   -3.8321830246
H       -2.3045258512   -0.4465110169   -3.4968266866
H       -2.1293589761    1.3132132602   -0.2172017529
H       -1.0472508343    2.5309986043   -0.9022282441
21   
torsion grid (-60,)
C       -4.5266287169    3.5414537801   -2.5401556941
C       -4.1698928443    2.8635919526   -4.5957321524
C       -2.9194740337    2.1195996550   -2.8516876095
C       -0.7447542691   -0.6532108561   -1.9402091481
C       -0.2551068617    0.4568292803   -0.9948564800
C       -1.4706857450    0.1203599625   -3.0487574971
C       -1.4049651859    1.4763209325   -1.0035854876
N       -4.8673280605    3.7456685489   -3.8216377325
N       -3.2562991763    3.2684297810   -2.1995783312
N       -3.3631981094    1.9022915560   -4.1410327682
N       -2.0090615988    1.2856572408   -2.3314685711
H       -5.1646378239    4.0021208754   -1.7789824587
H       -4.3159596233    2.9219174461   -5.6731447880
H        0.0643524537   -1.2750349616   -2.3314069564
H       -1.4524641275   -1.3073087950   -1.4190094874
H       -0.0300239368    0.0982726597    0.0126564623
H        0.6528878277    0.9180171148   -1.3983609287
H       -0.7831621276    0.4498985477   -3.8379994413
H       -2.2747766808   -0.4438771614   -3.5235575998
H       -2.1481004228    1.2686151052   -0.2237996696
H       -1.0691349664    2.5066920077   -0.8743721924
21   
torsion grid (-45,)
C       -4.5152357712    3.6243721770   -2.5470697979
C       -4.1978913114    2.8255674138   -4.5869047805
C       -2.9291492481    2.1138889528   -2.8472266701
C       -0.7261993465   -0.6449055739   -1.9539967859
C       -0.2609506811    0.4567645675   -0.9868216681
C       -1.4531712855    0.1352361279   -3.0574500855
C       -1.4248228519    1.4600080340   -0.9919774213
N       -4.8766488951    3.7260953363   -3.8361410426
N       -3.3093304119    3.2147101044   -2.1425978646
N       -3.3554463679    1.8987031650   -4.1321847187
N       -2.0090672995    1.2852551209   -2.3303854212
H       -5.1106086589    4.1951022034   -1.8306637079
H       -4.3827768030    2.8371241950   -5.6604007194
H        0.0949098241   -1.2496238514   -2.3470416589
H       -1.4294432423   -1.3165504550   -1.4493526712
H       -0.0413977476    0.0854158919    0.0172924216
H        0.6447460426    0.9365163549   -1.3735518321
H       -0.7638349081    0.4811692144   -3.8381913564
H       -2.2475726045   -0.4320607259   -3.5452149963
H       -2.1738417010    1.2285582568   -0.2246587111
H       -1.1058356805    2.4929391680   -0.8405590289
21   
torsion grid (-30,)
C       -4.4453229767    3.7093817922   -2.5416045165
C       -4.1912288228    2.8093004312   -4.5657823641
C       -2.9120403209    2.1050901671   -2.8367409603
C       -0.6960616063   -0.6596223644   -1.9774732869
C       -0.2479521930    0.4292483081   -0.9880535949
C       -1.4322488802    0.1308177522   -3.0681501264
C       -1.4267710884    1.4137942010   -0.9770717057
N       -4.8308579497    3.7381598597   -3.8281189349
N       -3.3228914285    3.1596701224   -2.0813259823
N       -3.3247600071    1.9023995133   -4.1211555972
N       -1.9908916976    1.2703333520   -2.3270873942
H       -4.9842869799    4.3668712156   -1.8579425131
H       -4.4228779479    2.7817022453   -5.6302159428
H        0.1341580080   -1.2451251973   -2.3803861531
H       -1.3901721868   -1.3509136355   -1.4869705374
H       -0.0244657224    0.0417351214    0.0090862485
H        0.6507842799    0.9302659252   -1.3640776168
H       -0.7490397001    0.4878754558   -3.8490676471
H       -2.2261617436   -0.4354865126   -3.5586148235
H       -2.1800361258    1.1463646780   -0.2255495902
H       -1.1282038224    2.4472178693   -0.7910567528
21   
torsion grid (-15,)
C       -4.4042104357    3.7670470610   -2.5576153187
C       -4.2190170313    2.7712000635   -4.5537341437
C       -2.9229977047    2.0892351057   -2.8315255336
C       -0.6740243519   -0.6575745131   -1.9910866006
C       -0.2521097610    0.4242345669   -0.9825800797
C       -1.4161631252    0.1357258072   -3.0758763681
C       -1.4486400350    1.3867531735   -0.9666210604
N       -4.8245610365    3.7308323666   -3.8329035200
N       -3.3760530402    3.0998570028   -2.0420072072
N       -3.3206398524    1.8932267665   -4.1182456944
N       -1.9948984673    1.2585768186   -2.3251045927
H       -4.8874003480    4.4944846459   -1.9050282193
H       -4.5010674294    2.6962673881   -5.6038272932
H        0.1690642098   -1.2228719122   -2.3961588467
H       -1.3594398187   -1.3677545071   -1.5155885338
H       -0.0290535002    0.0259580795    0.0104209892
H        0.6401706587    0.9467303619   -1.3445544181
H       -0.7341099669    0.5107273743   -3.8492512229
H       -2.1997828774   -0.4356178068   -3.5773597459
H       -2.2041165354    1.0914031947   -0.2279161974
H       -1.1727017029    2.4224933944   -0.7588213763
21   
torsion grid (0,)
C       -4.3467124892    3.8093093681   -2.5713501816
C       -4.2431990404    2.7327411465   -4.5348730394
C       -2.9293483038    2.0670146142   -2.8210990629
C       -0.6432059484   -0.6581900712   -2.0036926246
C       -0.2477309316    0.4166550811   -0.9770024859
C       -1.3960614414    0.1359333027   -3.0808558604
C       -1.4648195016    1.3522481255   -0.9527069066
N       -4.8095129779    3.7256727069   -3.8295357728
N       -3.4275546983    3.0341254282   -2.0050875611
N       -3.3153961684    1.8804622050   -4.1116156526
N       -1.9933350401    1.2417882842   -2.3193434009
H       -4.7683662063    4.5965351422   -1.9464628231
H       -4.5779562178    2.6121877539   -5.5651086679
H        0.2127939757   -1.2007961246   -2.4127002288
H       -1.3164238699   -1.3886623013   -1.5417182261
H       -0.0204942497    0.0079476744    0.0108116422
H        0.6345524588    0.9635888948   -1.3272622394
H       -0.7186767069    0.5291292863   -3.8490436383
H       -2.1704796947   -0.4413987092   -3.5901867607
H       -2.2200441621    1.0233731237   -0.2280047378
H       -1.2162127677    2.3897946765   -0.7202403855
21   
torsion grid (15,)
C       -4.2760081548    3.8519913585   -2.6010617081
C       -4.2636187017    2.7072589832   -4.5248868070
C       -2.9329003387    2.0539220449   -2.8184969784
C       -0.6185969095   -0.6519571588   -2.0140820458
C       -0.2509538767    0.4145142655   -0.9682879756
C       -1.3736370807    0.1448572448   -3.0879191692
C       -1.4845775054    1.3277995553   -0.9429675165
N       -4.7906161582    3.7344634842   -3.8360730673
N       -3.4805588645    2.9807271495   -1.9872555728
N       -3.3079547302    1.8790552438   -4.1148932204
N       -1.9926514453    1.2333434111   -2.3183400989
H       -4.6282159336    4.6930599061   -2.0035126120
H       -4.6497262782    2.5430806766   -5.5307751515
H        0.2501432553   -1.1749449970   -2.4217932805
H       -1.2842952701   -1.3995428205   -1.5689133609
H       -0.0262294535   -0.0047745106    0.0156629106
H        0.6249476180    0.9816383902   -1.3020991920
H       -0.6950855400    0.5562851119   -3.8452086993
H       -2.1363425458   -0.4359299294   -3.6110827942
H       -2.2422295819    0.9714471994   -0.2340568067
H       -1.2598169699    2.3659305523   -0.6891004337
21   
torsion grid (30,)
C       -4.2073366133    3.8815052104   -2.6345519938
C       -4.2964050068    2.6814816545   -4.5123501430
C       -2.9424153559    2.0432671455   -2.8160560603
C       -0.5990985342   -0.6401112349   -2.0213568041
C       -0.2602689245    0.4184411733   -0.9576949917
C       -1.3561568632    0.1578754912   -3.0931373549
C       -1.5105332106    1.3084336277   -0.9331722037
N       -4.7860816234    3.7410025170   -3.8382674601
N       -3.5451006664    2.9298848366   -1.9780425300
N       -3.3109845260    1.8788465336   -4.1189803575
N       -1.9970009433    1.2297414856   -2.3172160905
H       -4.4805678251    4.7704405309   -2.0641881184
H       -4.7333205727    2.4759975266   -5.4892355193
H        0.2825145941   -1.1432525478   -2.4264204728
H       -1.2566547764   -1.4043809276   -1.5927555772
H       -0.0379521620   -0.0103774352    0.0226889328
H        0.6085368083    1.0055628099   -1.2751078451
H       -0.6766722170    0.5867702086   -3.8395011090
H       -2.1069526992   -0.4266037342   -3.6294224247
H       -2.2702875027    0.9242968350   -0.2413387139
H       -1.3109150576    2.3464970287   -0.6583125024
21   
torsion grid (45,)
C       -4.1373848722    3.8995843159   -2.6617693184
C       -4.3394017441    2.6623363740   -4.4865876672
C       -2.9522893902    2.0385011139   -2.8050595502
C       -0.5842644932   -0.6260288911   -2.0262197680
C       -0.2713802847    0.4214888119   -0.9435201442
C       -1.3421836105    0.1762370401   -3.0945193168
C       -1.5358170184    1.2907713428   -0.9182716135
N       -4.7964940600    3.7508511052   -3.8215206347
N       -3.6144956786    2.8834798248   -1.9682415957
N       -3.3225257891    1.8855632990   -4.1158203291
N       -2.0011189125    1.2320173737   -2.3105181236
H       -4.3158240479    4.8306383363   -2.1189389223
H       -4.8252786733    2.4199031226   -5.4309597060
H        0.3086420912   -1.1104081558   -2.4294264712
H       -1.2346779066   -1.4059272855   -1.6152827016
H       -0.0517454818   -0.0188209792    0.0323550207
H        0.5910204924    1.0267703630   -1.2438758243
H       -0.6616949858    0.6217842755   -3.8297503009
H       -2.0830351596   -0.4089920082   -3.6437142474
H       -2.2978330873    0.8792610420   -0.2450331211
H       -1.3592455703    2.3268460406   -0.6206096025
21   
torsion grid (60,)
C       -4.0569655480    3.9012826983   -2.6986260953
C       -4.3848615983    2.6444723915   -4.4676234764
C       -2.9651956586    2.0301271099   -2.8052556103
C       -0.5710658568   -0.6112409982   -2.0359268699
C       -0.2859899085    0.4254311363   -0.9349589574
C       -1.3257928017    0.1953485452   -3.1030155771
C       -1.5627595095    1.2766727885   -0.9135895314
N       -4.8068834226    3.7586909295   -3.8019931085
N       -3.6907275591    2.8318668714   -1.9729170769
N       -3.3393286740    1.8881356574   -4.1253806812
N       -2.0100879304    1.2309861443   -2.3123502559
H       -4.1125218655    4.8659837868   -2.1838964013
H       -4.9179213086    2.3752030797   -5.3780863835
H        0.3333127641   -1.0783333370   -2.4339566604
H       -1.2162369949   -1.4050194491   -1.6437655142
H       -0.0733534721   -0.0261253814    0.0373008782
H        0.5721324749    1.0462395815   -1.2151560897
H       -0.6411914822    0.6616441528   -3.8211188203
H       -2.0516601618   -0.3903889808   -3.6711366509
H       -2.3265771238    0.8450493001   -0.2555429905
H       -1.4061740684    2.3116131522   -0.6005722527
21   
torsion grid (75,)
C       -4.0015487101    3.8827405325   -2.7537286669
C       -4.4307103816    2.6284700821   -4.4437040044
C       -2.9592718294    2.0386714672   -2.7915700848
C       -0.5585061677   -0.5988237721   -2.0392099146
C       -0.2950047327    0.4229876174   -0.9187711314
C       -1.3052625074    0.2176381926   -3.1048508689
C       -1.5794792741    1.2618504376   -0.9008241523
N       -4.8546908029    3.7712591494   -3.7700649708
N       -3.7607180584    2.7890043004   -1.9921240579
N       -3.3531833317    1.9026470943   -4.1320805734
N       -1.9997259450    1.2444910555   -2.3086965727
H       -3.8876497968    4.8707928822   -2.2882067503
H       -4.9862535750    2.3422884004   -5.3346027798
H        0.3543879038   -1.0534724804   -2.4321396550
H       -1.2025399287   -1.4030059133   -1.6670024513
H       -0.0909296680   -0.0421646737    0.0488559365
H        0.5610229492    1.0554692069   -1.1784979066
H       -0.6151336079    0.6947271867   -3.8098201457
H       -2.0252598173   -0.3618547272   -3.6862643779
H       -2.3510430697    0.8058623713   -0.2687438109
H       -1.4417195237    2.2912617919   -0.5615109749
