36   
torsion grid (-75,)
C       -6.2939463947   -3.8132038037   -3.0497524692
C       -5.0964403163   -4.5064077107   -2.6894982721
C       -6.1021775826   -2.5093780496   -2.6745279374
C       -4.2655176399   -3.5740077481   -2.1215735308
C       -0.2353928570   -1.9959571992   -0.6943167376
C       -2.9117227030   -3.7339767613   -1.5767760647
C        1.5822658618   -3.3925453024   -1.5748868994
C        1.4673940187   -0.9689342559   -2.2908650977
C        1.6548878593   -2.7328799231    0.8250811553
C        1.4389165427   -0.3171904070    0.1221066809
C        3.3143874031   -1.7439457969   -0.7772219129
C        0.6381707208   -2.2162493317   -1.9369292547
C        0.6604276049   -1.5989457483    0.4958123719
C        2.5135812758   -3.0107408129   -0.4154220504
C        2.3480967882   -0.5843188986   -1.0900920214
N       -1.2031201672   -2.7539326253   -0.2881489584
O       -2.3308133516   -4.8048116996   -1.5336048224
O       -4.8766590232   -2.3436054680   -2.1092724643
O       -2.3924429656   -2.5588264049   -1.1426049337
H       -7.1779221174   -4.2220895390   -3.5207990007
H       -4.8615285562   -5.5535850181   -2.8214126728
H       -6.7148284885   -1.6208553625   -2.7378433936
H        0.9885178348   -4.2780458083   -1.3297436286
H        2.1650598677   -3.6189394469   -2.4769104424
H        2.0928421010   -1.1859005065   -3.1653739135
H        0.8040472775   -0.1406646671   -2.5650259255
H        2.2835531854   -2.4362532165    1.6744369324
H        1.0956789690   -3.6268352450    1.1206834255
H        0.7434913358    0.5016606080   -0.1012799912
H        2.0339624234   -0.0030353254    0.9884161662
H        3.9575886986   -1.9372791705   -1.6451559798
H        3.9739847187   -1.4711011860    0.0560844687
H        0.0134826602   -2.5097573998   -2.7871695534
H        0.0123083317   -1.4096467380    1.3539603060
H        3.2019067931   -3.8404107734   -0.2150422211
H        2.9193858068    0.3206769518   -1.3274962431
36   
torsion grid (-60,)
C       -6.0708340639   -3.8650990429   -3.2322912235
C       -4.8787310601   -4.5025589733   -2.7668274402
C       -5.9785345233   -2.5567264651   -2.8356387722
C       -4.1506720052   -3.5357442262   -2.1205771717
C       -0.2681025784   -1.9342222247   -0.5004878399
C       -2.8467208154   -3.6357991159   -1.4534194351
C        1.3722360160   -3.4039794751   -1.5631961658
C        1.2791856999   -0.9729738734   -2.2608833432
C        1.7043520788   -2.7499690955    0.8236616477
C        1.5229451466   -0.3231014302    0.1478340511
C        3.2354640113   -1.8246629638   -0.9369168067
C        0.4422458459   -2.1909153372   -1.8263988845
C        0.7309862408   -1.5710110861    0.6007545072
C        2.4242913834   -3.0596055858   -0.4968429895
C        2.2898056732   -0.6266586816   -1.1528701456
N       -1.2887391940   -2.5729407402   -0.0424189171
O       -2.2198535820   -4.6782106411   -1.3655429904
O       -4.8195558653   -2.3364077150   -2.1597622766
O       -2.4248303445   -2.4402883389   -0.9748581413
H       -6.8869039793   -4.3124145504   -3.7840200675
H       -4.5815277940   -5.5359304513   -2.8809578233
H       -6.6258236520   -1.6985397366   -2.9510899168
H        0.7701304604   -4.2663423919   -1.2618932847
H        1.8580948686   -3.6518135196   -2.5154174834
H        1.8058404018   -1.2068778323   -3.1940583188
H        0.6234072516   -0.1185471765   -2.4648777146
H        2.4271040313   -2.4847702410    1.6057635430
H        1.1411233878   -3.6219698916    1.1726377410
H        0.8445711849    0.5258864684   -0.0031976600
H        2.2191902282   -0.0382314751    0.9460067811
H        3.7805466892   -2.0407352390   -1.8645663487
H        3.9853685004   -1.5807131451   -0.1739011292
H       -0.2853601484   -2.4524763592   -2.5999776606
H        0.1751167022   -1.3611121801    1.5172518084
H        3.0960246077   -3.9154521780   -0.3613619213
H        2.8703469989    0.2550149967   -1.4485066439
36   
torsion grid (-45,)
C       -5.9266649893   -3.8957138501   -3.3056210428
C       -4.7769618783   -4.5057598456   -2.7138110435
C       -5.8470430595   -2.5628807064   -2.9976107117
C       -4.0841075721   -3.4998844467   -2.0888692494
C       -0.2707392739   -1.9037010087   -0.3905764673
C       -2.8303099550   -3.5608333165   -1.3270753763
C        1.2596303964   -3.3903520458   -1.5825223965
C        1.1696457240   -0.9430657664   -2.2220312987
C        1.7425270582   -2.7839207675    0.7944536342
C        1.5808645285   -0.3395132868    0.1767486681
C        3.1871753510   -1.8581247887   -1.0383357442
C        0.3377010906   -2.1560490066   -1.7595980661
C        0.7873029567   -1.5766288447    0.6553749917
C        2.3778888096   -3.0844601124   -0.5718719745
C        2.2560405180   -0.6373131051   -1.1754716350
N       -1.3542648780   -2.3972517423    0.0889076189
O       -2.2231576393   -4.5984158813   -1.1237455704
O       -4.7351257393   -2.3023514424   -2.2597326846
O       -2.4299316614   -2.3347267054   -0.9114836489
H       -6.7077574850   -4.3762477541   -3.8795981942
H       -4.4845963068   -5.5466036546   -2.7329599172
H       -6.4750070126   -1.7110148000   -3.2185003423
H        0.6617389548   -4.2488717240   -1.2613834247
H        1.6852775410   -3.6295237793   -2.5651429632
H        1.6292157487   -1.1663141020   -3.1925040895
H        0.5182660118   -0.0729001285   -2.3652144682
H        2.5158614893   -2.5518019695    1.5375289129
H        1.1808782523   -3.6506298371    1.1590930516
H        0.9155918290    0.5279113586    0.0850026455
H        2.3335952961   -0.0880290799    0.9337422866
H        3.6704562151   -2.0680009542   -2.0009711987
H        3.9869291324   -1.6432649588   -0.3183704251
H       -0.4456163819   -2.3819840707   -2.4868292809
H        0.2907667136   -1.3736484760    1.6073481681
H        3.0390504650   -3.9549788957   -0.4884174080
H        2.8358710429    0.2368602585   -1.4939133975
36   
torsion grid (-30,)
C       -5.7898570000   -3.9863437133   -3.3525543761
C       -4.6704598123   -4.5414706333   -2.6575369943
C       -5.7345196474   -2.6341362880   -3.1377605618
C       -4.0182499260   -3.4868345757   -2.0703615852
C       -0.2729295496   -1.8675427487   -0.3299641649
C       -2.8074536457   -3.4823293612   -1.2393182375
C        1.1654233244   -3.3727795251   -1.6134288097
C        1.1167853497   -0.9058019650   -2.1785822273
C        1.7307654292   -2.8346256463    0.7668669096
C        1.6339389264   -0.3696898941    0.2172867394
C        3.1480128629   -1.9060858576   -1.0880376945
C        0.2686058435   -2.1123920626   -1.7222431122
C        0.8142217797   -1.5910364525    0.6918533252
C        2.3182001914   -3.1199489156   -0.6254895718
C        2.2490471800   -0.6563463026   -1.1657627457
N       -1.4129493951   -2.1981521386    0.1529027501
O       -2.2064462743   -4.4977598165   -0.9329613006
O       -4.6656683183   -2.3109729459   -2.3620001678
O       -2.4401679682   -2.2249256398   -0.8924247955
H       -6.5360941941   -4.5142553904   -3.9312576722
H       -4.3717945885   -5.5782081482   -2.5856628049
H       -6.3543371020   -1.8062650030   -3.4528266432
H        0.5575494146   -4.2259901739   -1.2964850411
H        1.5586192674   -3.5968357992   -2.6128907879
H        1.5332568173   -1.1128050102   -3.1718543434
H        0.4835784171   -0.0156372667   -2.2725890775
H        2.5325310481   -2.6490438377    1.4924944745
H        1.1520449216   -3.6930729503    1.1244367290
H        0.9955833812    0.5211092436    0.1718428321
H        2.4221037211   -0.1639157233    0.9516962411
H        3.5943728532   -2.1063348369   -2.0703340705
H        3.9760125771   -1.7310474587   -0.3894989375
H       -0.5474487594   -2.2917013496   -2.4241556444
H        0.3508413840   -1.3975241088    1.6625597725
H        2.9572067442   -4.0095153442   -0.5792886606
H        2.8427074325    0.2075453809   -1.4868294345
36   
torsion grid (-15,)
C       -5.6960352257   -4.0559415572   -3.3509994245
C       -4.5895850339   -4.5506503916   -2.5925286179
C       -5.6685988660   -2.6929857435   -3.2118184031
C       -3.9732106930   -3.4529970979   -2.0467683804
C       -0.2761953531   -1.8391037251   -0.3071915892
C       -2.7889305056   -3.3815074281   -1.1810255026
C        1.1062946517   -3.3538037848   -1.6547461461
C        1.0904670221   -0.8714167583   -2.1485775239
C        1.7078799660   -2.8788061975    0.7338955765
C        1.6710865446   -0.3986019776    0.2460082163
C        3.1223489170   -1.9388754231   -1.1205972417
C        0.2283530219   -2.0777099521   -1.7107843141
C        0.8253769008   -1.6078885886    0.7047067497
C        2.2735487205   -3.1448303362   -0.6725583556
C        2.2494706504   -0.6689202152   -1.1556163619
N       -1.4575946024   -1.9827964645    0.1661235841
O       -2.1793229897   -4.3679148080   -0.8052472863
O       -4.6294921518   -2.3071921563   -2.4245258820
O       -2.4578736587   -2.0988684109   -0.8944446715
H       -6.4157797850   -4.6288069923   -3.9204288154
H       -4.2766617757   -5.5761789754   -2.4527502329
H       -6.2916539707   -1.8952761440   -3.5916452840
H        0.4903715836   -4.2065065694   -1.3522916102
H        1.4860144432   -3.5580941602   -2.6635423855
H        1.4798406663   -1.0589607830   -3.1566356553
H        0.4713473958    0.0318232841   -2.2039069439
H        2.5222942889   -2.7338248209    1.4544859976
H        1.1116918750   -3.7318139919    1.0756374378
H        1.0562283825    0.5094288443    0.2362668814
H        2.4795029301   -0.2339007155    0.9687543724
H        3.5488890618   -2.1269354324   -2.1140466781
H        3.9647373624   -1.7963423574   -0.4319284217
H       -0.6044319152   -2.2185296933   -2.4005245826
H        0.3788570683   -1.4255337951    1.6855412710
H        2.8951454029   -4.0475501462   -0.6515031492
H        2.8551365789    0.1882416157   -1.4723501988
36   
torsion grid (0,)
C       -5.9348130255   -3.8686694000   -3.3794731732
C       -5.6196738337   -3.7891551490   -1.9868967359
C       -4.7771459820   -3.5664587045   -4.0465373705
C       -4.2943680923   -3.4449977204   -1.9085709779
C       -0.1401339631   -2.3632228611   -0.3789449258
C       -3.4556701990   -3.2281793123   -0.7191968824
C        1.5407553846   -3.2207019468   -1.9757718313
C        0.8982613751   -0.7772604969   -1.9651221592
C        2.0667456982   -3.0926650989    0.4767718479
C        1.4244325500   -0.6502246815    0.4875598590
C        3.1609400572   -1.4921382068   -1.1275281362
C        0.3710016766   -2.2229078930   -1.7941593735
C        0.9037957169   -2.0937439964    0.6807723326
C        2.6451125915   -2.9325582768   -0.9415741526
C        2.0036549509   -0.4933995684   -0.9308153194
N       -1.3138239527   -2.6730029266    0.0326348081
O       -3.8727027997   -3.3389580754    0.4131899330
O       -3.7686323510   -3.3058209690   -3.1712689727
O       -2.1849273499   -2.8966578086   -1.0930659236
H       -6.8879205409   -4.1156606160   -3.8278616126
H       -6.2704116824   -3.9598131275   -1.1403915416
H       -4.5205876354   -3.4979831341   -5.0945461738
H        1.1745324376   -4.2483768125   -1.8681382262
H        1.9361555452   -3.1223030168   -2.9943192235
H        1.2888638130   -0.6600577186   -2.9835271601
H        0.0741191025   -0.0635880087   -1.8499253976
H        2.8414705741   -2.9021105658    1.2296303608
H        1.7085375743   -4.1172646019    0.6308517617
H        0.6088090494    0.0642229367    0.6493202774
H        2.1943257208   -0.4411183548    1.2404570730
H        3.5926057764   -1.3742122222   -2.1295438786
H        3.9620734999   -1.2846290209   -0.4070007142
H       -0.4235694644   -2.4287491785   -2.5111312292
H        0.4531089056   -2.2166238004    1.6689871625
H        3.4694218807   -3.6414505272   -1.0826751470
H        2.3722974521    0.5304314815   -1.0641958973
36   
torsion grid (15,)
C       -5.8191380511   -3.5899779242   -3.3442771924
C       -5.0976595871   -2.6212676870   -2.5792256902
C       -5.1235986379   -4.7639390836   -3.2186329201
C       -4.0185217057   -3.2778181045   -2.0434948036
C        0.0003330840   -2.8837392885   -0.3114862375
C       -2.9495292108   -2.7649385137   -1.1766783932
C        1.6617169096   -3.0444314258   -2.1578209911
C        0.4607073095   -0.8760825041   -1.6455156377
C        2.4048796999   -3.1893744445    0.2340208884
C        1.2233069504   -1.0125912054    0.7402563080
C        2.9126106587   -1.1258773486   -1.1189104726
C        0.3202373132   -2.4182580918   -1.7123478652
C        1.0762479905   -2.5525759608    0.7003179773
C        2.7735892706   -2.6603156964   -1.1646205556
C        1.5829769916   -0.4934431865   -0.6632916637
N       -1.0989266362   -3.3406370079    0.1609686999
O       -2.9037215315   -1.6101252913   -0.7890817403
O       -4.0267592882   -4.5947539000   -2.4333084717
O       -2.0298042630   -3.7214451503   -0.9008238552
H       -6.7296135956   -3.4407442390   -3.9092607096
H       -5.3301658913   -1.5760327526   -2.4289201120
H       -5.2740919658   -5.7614790682   -3.6073302463
H        1.5642913613   -4.1347373240   -2.2206968716
H        1.9070407294   -2.6829398012   -3.1638421496
H        0.6893312746   -0.5046823011   -2.6522128938
H       -0.4932365840   -0.4366138801   -1.3377073367
H        3.1920606504   -2.9422115962    0.9567162476
H        2.3134970566   -4.2820738374    0.2166311296
H        0.2865133780   -0.5633535190    1.0873305025
H        2.0059627565   -0.7452150117    1.4610301921
H        3.1901099771   -0.7458262666   -2.1102722891
H        3.7183560554   -0.8424560275   -0.4299686585
H       -0.4763098416   -2.6984093234   -2.4023794148
H        0.7786410224   -2.9374544589    1.6790593216
H        3.7207623856   -3.1086873261   -1.4866720229
H        1.6827706231    0.5978426948   -0.6347372031
36   
torsion grid (30,)
C       -5.8636497177   -3.6966046026   -3.3464510199
C       -5.1577749005   -2.6679372489   -2.6480315336
C       -5.1546632304   -4.8506605518   -3.1387862695
C       -4.0721232560   -3.2723430545   -2.0661901648
C       -0.0103502584   -2.8580026605   -0.3326559655
C       -3.0118843280   -2.6883435276   -1.2347081953
C        1.6654125462   -3.0005440322   -2.1879161927
C        0.5012814883   -0.8305487591   -1.6020800747
C        2.3871552903   -3.2331867980    0.2041721708
C        1.2654186659   -1.0413581229    0.7741659678
C        2.9498604562   -1.1420510808   -1.0870123119
C        0.3364675407   -2.3676716957   -1.7221796142
C        1.0756546098   -2.5739553104    0.6880808338
C        2.7780696365   -2.6713598558   -1.1760415491
C        1.6333297194   -0.4939135679   -0.6151436362
N       -1.1643681494   -3.1339008357    0.1514694250
O       -2.9849949221   -1.5104299449   -0.9217448394
O       -4.0628511018   -4.6132624683   -2.3640197692
O       -2.0749155097   -3.6067409152   -0.8950969187
H       -6.7737915035   -3.5980751078   -3.9229736366
H       -5.4039821530   -1.6178851043   -2.5707349582
H       -5.2915143775   -5.8743606729   -3.4583542287
H        1.5490903121   -4.0859952504   -2.2902110062
H        1.9240494175   -2.6083459679   -3.1789694978
H        0.7313628761   -0.4352796884   -2.5993595241
H       -0.4455749676   -0.3867935531   -1.2789410011
H        3.1774817572   -3.0314680845    0.9374005527
H        2.2675973216   -4.3222053724    0.1510844648
H        0.3412636330   -0.5796725836    1.1381531015
H        2.0573905981   -0.8158337675    1.4992300983
H        3.2377441740   -0.7412663661   -2.0671817484
H        3.7597072567   -0.8944927056   -0.3891373132
H       -0.4653484602   -2.6057695351   -2.4230408698
H        0.7694167549   -2.9767814311    1.6567925814
H        3.7176688420   -3.1311206671   -1.5040449803
H        1.7549317648    0.5942242294   -0.5606557769
36   
torsion grid (45,)
C       -5.9390983743   -3.8467965757   -3.3009265018
C       -5.2353346556   -2.7550397172   -2.7034218785
C       -5.2146045126   -4.9709647412   -3.0025993746
C       -4.1360942624   -3.2953807427   -2.0853059561
C       -0.0255573868   -2.8260657152   -0.3944027750
C       -3.0714534478   -2.6321510859   -1.3219346794
C        1.6964942560   -2.9431848671   -2.2309038629
C        0.5751254736   -0.7714004919   -1.5735134947
C        2.3568351163   -3.2838560944    0.1639576373
C        1.2993218204   -1.0792224916    0.7996105911
C        3.0079236181   -1.1638776767   -1.0379684643
C        0.3773747462   -2.2980458669   -1.7607679043
C        1.0593577981   -2.5989263038    0.6505201349
C        2.7956167589   -2.6835604395   -1.1851733718
C        1.7020110055   -0.4959956568   -0.5636764571
N       -1.2106569563   -2.9312532522    0.0873042113
O       -3.0513335737   -1.4316124460   -1.1100853479
O       -4.1159897272   -4.6570759369   -2.2655410928
O       -2.1198117820   -3.5067526283   -0.9147755399
H       -6.8570510419   -3.8076572886   -3.8721534498
H       -5.4916709681   -1.7046295545   -2.7146099397
H       -5.3440946452   -6.0198567905   -3.2303444903
H        1.5558014804   -4.0200257249   -2.3812504185
H        1.9849427654   -2.5163236902   -3.1991214471
H        0.8261346034   -0.3472246418   -2.5538172351
H       -0.3664266594   -0.3192258051   -1.2469113036
H        3.1379341678   -3.1387630428    0.9200798348
H        2.2027652433   -4.3654769046    0.0650243988
H        0.3854595838   -0.6023564104    1.1698155710
H        2.0888336151   -0.9070380366    1.5419776122
H        3.3236131081   -0.7370938815   -1.9984221623
H        3.8119055584   -0.9634994375   -0.3185358271
H       -0.4177182955   -2.4806365283   -2.4873875262
H        0.7287318313   -3.0261598542    1.6003413590
H        3.7291131605   -3.1583171621   -1.5091780450
H        1.8509179504    0.5863707907   -0.4730736981
36   
torsion grid (60,)
C       -6.0488755847   -3.9440619707   -3.2284800296
C       -5.3218795791   -2.8067728253   -2.7571142986
C       -5.3256749852   -5.0415176275   -2.8408639364
C       -4.2115285681   -3.2962168273   -2.1168266378
C       -0.0387865366   -2.7972249780   -0.5036002907
C       -3.1226918408   -2.5738422385   -1.4474854648
C        1.7764847321   -2.8630083683   -2.2692630060
C        0.6661374351   -0.7042605727   -1.5535809806
C        2.3141026783   -3.3263014758    0.1349057997
C        1.2828303921   -1.1275971780    0.8287666152
C        3.0663408657   -1.1700063655   -0.9368665834
C        0.4506407959   -2.2157465229   -1.8267909597
C        1.0127939616   -2.6309125744    0.5961038356
C        2.8298659220   -2.6763864314   -1.1626588685
C        1.7546206552   -0.4952885914   -0.4886411882
N       -1.2403050777   -2.7449453686   -0.0419631813
O       -3.0877348580   -1.3585556522   -1.3516543376
O       -4.2061198759   -4.6691703132   -2.1651635587
O       -2.1674742339   -3.4117600883   -0.9766498589
H       -6.9807304522   -3.9510195074   -3.7780807412
H       -5.5702440753   -1.7597913450   -2.8636686445
H       -5.4689080548   -6.1061092996   -2.9630602019
H        1.6240093052   -3.9278676741   -2.4802743547
H        2.1180670534   -2.3941945416   -3.2000803180
H        0.9651809223   -0.2431678267   -2.5034132412
H       -0.2809400507   -0.2506523854   -1.2465591547
H        3.0626150535   -3.2383505202    0.9317623658
H        2.1393260577   -4.3978635306   -0.0231636014
H        0.3650725836   -0.6466987145    1.1835336682
H        2.0447597368   -1.0093954459    1.6097118335
H        3.4327476847   -0.7077723619   -1.8622976469
H        3.8414435676   -1.0197596460   -0.1748272932
H       -0.3136920416   -2.3395812002   -2.5992626432
H        0.6339629069   -3.0930246201    1.5104098444
H        3.7676355693   -3.1575535455   -1.4640663554
H        1.9201409636    0.5791188169   -0.3461752181
36   
torsion grid (75,)
C       -6.2172909280   -4.1054677267   -3.0373684540
C       -5.5237424351   -2.9131000280   -2.6611129177
C       -5.3952510154   -5.1454955986   -2.6908120449
C       -4.3321248697   -3.3155111604   -2.1129777770
C       -0.0378504512   -2.7167329388   -0.7021506839
C       -3.2347354683   -2.5098992607   -1.5635854067
C        1.9494377934   -2.7737547938   -2.2982980791
C        0.8694214343   -0.6056970635   -1.5686378132
C        2.2402990103   -3.3724307165    0.1115506738
C        1.2522741407   -1.1618538628    0.8282662611
C        3.1845595504   -1.2075535963   -0.7734796067
C        0.6177552207   -2.0903112163   -1.9403050490
C        0.9359818317   -2.6342308986    0.4894008038
C        2.9051398916   -2.6887943808   -1.0961386668
C        1.8680962487   -0.4931525018   -0.4076564212
N       -1.2530725986   -2.5306135657   -0.2958213411
O       -3.2659611175   -1.2933525133   -1.4967276469
O       -4.2454726633   -4.6865865058   -2.1283630453
O       -2.1926114825   -3.2766678790   -1.1557957743
H       -7.1920045296   -4.1847135158   -3.5001155784
H       -5.8455798362   -1.8865802379   -2.7699318959
H       -5.4817983986   -6.2199123857   -2.7742514800
H        1.7732985702   -3.8184215195   -2.5791021432
H        2.3907545933   -2.2742182945   -3.1693467369
H        1.2688133261   -0.1185659070   -2.4674045871
H       -0.0802298934   -0.1223741867   -1.3208434166
H        2.9124576256   -3.3622842478    0.9783479453
H        2.0318172882   -4.4248770433   -0.1184618860
H        0.3283073648   -0.6550512083    1.1262589951
H        1.9448589327   -1.1203150544    1.6786670080
H        3.6528304565   -0.7199696858   -1.6380039957
H        3.8930642236   -1.1302125366    0.0607663086
H       -0.0706143992   -2.1328431339   -2.7910115868
H        0.4616504502   -3.1206310666    1.3442657963
H        3.8448909035   -3.1996416034   -1.3362867455
H        2.0653620590    0.5653099244   -0.2003622314
