
  -OEChem-05262117483D

 34 36  0     1  0  0  0  0  0999 V2000
   -1.8870   -4.1022   -3.3426 C   0  0  0  0  0  0  0  0  0  0  0  0
   -1.8263   -2.7106   -3.2165 C   0  0  0  0  0  0  0  0  0  0  0  0
   -1.0245   -4.9001   -2.5842 C   0  0  0  0  0  0  0  0  0  0  0  0
   -1.0699    2.5453    0.7078 C   0  0  0  0  0  0  0  0  0  0  0  0
   -0.9132   -2.1192   -2.3389 C   0  0  0  0  0  0  0  0  0  0  0  0
   -0.1148   -4.3058   -1.7050 C   0  0  0  0  0  0  0  0  0  0  0  0
   -1.3351    1.2133    1.0139 C   0  0  0  0  0  0  0  0  0  0  0  0
    0.0248    2.8527   -0.1049 C   0  0  0  0  0  0  0  0  0  0  0  0
   -0.0498   -2.9110   -1.5692 C   0  0  0  0  0  0  0  0  0  0  0  0
   -0.5402    0.1689    0.5172 C   0  0  0  0  0  0  0  0  0  0  0  0
    0.8412    1.8455   -0.6226 C   0  0  0  0  0  0  0  0  0  0  0  0
    0.5458    0.4952   -0.3168 C   0  0  0  0  0  0  0  0  0  0  0  0
   -0.8999   -1.2531    0.8969 C   0  0  0  0  0  0  0  0  0  0  0  0
    0.2742   -2.2284    0.8570 C   0  0  0  0  0  0  0  0  0  0  0  0
    0.9063   -2.3315   -0.5411 C   0  0  2  0  0  0  0  0  0  0  0  0
    2.0353    2.2186   -1.4784 C   0  0  0  0  0  0  0  0  0  0  0  0
    3.2926    2.0845   -0.8008 O   0  0  0  0  0  0  0  0  0  0  0  0
    1.6462   -0.7231   -1.0315 S   0  0  0  0  0  0  0  0  0  0  0  0
   -2.5934   -4.5597   -4.0303 H   0  0  0  0  0  0  0  0  0  0  0  0
   -2.4877   -2.0817   -3.8071 H   0  0  0  0  0  0  0  0  0  0  0  0
   -1.0548   -5.9824   -2.6811 H   0  0  0  0  0  0  0  0  0  0  0  0
   -1.6998    3.3363    1.1054 H   0  0  0  0  0  0  0  0  0  0  0  0
   -0.8646   -1.0370   -2.2647 H   0  0  0  0  0  0  0  0  0  0  0  0
    0.5550   -4.9334   -1.1199 H   0  0  0  0  0  0  0  0  0  0  0  0
   -2.1754    0.9635    1.6588 H   0  0  0  0  0  0  0  0  0  0  0  0
    0.2556    3.8893   -0.3391 H   0  0  0  0  0  0  0  0  0  0  0  0
   -1.3258   -1.2487    1.9054 H   0  0  0  0  0  0  0  0  0  0  0  0
   -1.6925   -1.6193    0.2329 H   0  0  0  0  0  0  0  0  0  0  0  0
    1.0453   -1.9232    1.5725 H   0  0  0  0  0  0  0  0  0  0  0  0
   -0.0732   -3.2261    1.1473 H   0  0  0  0  0  0  0  0  0  0  0  0
    1.7792   -2.9876   -0.4736 H   0  0  0  0  0  0  0  0  0  0  0  0
    2.0373    1.6328   -2.4083 H   0  0  0  0  0  0  0  0  0  0  0  0
    1.9699    3.2735   -1.7521 H   0  0  0  0  0  0  0  0  0  0  0  0
    3.4287    1.1430   -0.6016 H   0  0  0  0  0  0  0  0  0  0  0  0
  1  2  1  0  0  0  0
  1  3  2  0  0  0  0
  1 19  1  0  0  0  0
  2  5  2  0  0  0  0
  2 20  1  0  0  0  0
  3  6  1  0  0  0  0
  3 21  1  0  0  0  0
  4  7  2  0  0  0  0
  4  8  1  0  0  0  0
  4 22  1  0  0  0  0
  5  9  1  0  0  0  0
  5 23  1  0  0  0  0
  6  9  2  0  0  0  0
  6 24  1  0  0  0  0
  7 10  1  0  0  0  0
  7 25  1  0  0  0  0
  8 11  2  0  0  0  0
  8 26  1  0  0  0  0
  9 15  1  0  0  0  0
 10 12  2  0  0  0  0
 10 13  1  0  0  0  0
 11 12  1  0  0  0  0
 11 16  1  0  0  0  0
 12 18  1  0  0  0  0
 13 14  1  0  0  0  0
 13 27  1  0  0  0  0
 13 28  1  0  0  0  0
 14 15  1  0  0  0  0
 14 29  1  0  0  0  0
 14 30  1  0  0  0  0
 15 18  1  0  0  0  0
 15 31  1  0  0  0  0
 16 17  1  0  0  0  0
 16 32  1  0  0  0  0
 16 33  1  0  0  0  0
 17 34  1  0  0  0  0
M  END
$$$$
