40
0 1 C15H22O3
C                     5.950520886870     0.001776336769     5.296196948950
C                     5.419577277379     0.617409853355     4.157219241543
C                     3.802102951960    -0.964527438895     5.779111503448
C                     5.150943652029    -0.795751310067     6.119843438794
C                     4.071432127836     0.442074557125     3.820492928969
C                     3.255618714860    -0.359919408869     4.648733603062
C                    -0.021374113135    -0.895418996015     2.204536188539
C                     1.272324734050    -1.318617447487     1.450303011150
C                     0.015800871670    -1.665931013806     3.540829599516
C                     2.127247946591    -2.104438043389     2.478934077744
C                     1.506433462315    -1.790023826432     3.845989083862
C                     6.214602625105    -1.050047545657     9.864358754888
C                     4.254205237308     1.807638294238     1.870473981590
C                     5.747079671330    -0.422172519738     8.547821100842
C                     5.710039827801    -1.418988282945     7.385009214824
O                     7.054183090563    -1.893001457623     7.201123864816
O                     1.922221750054    -0.492100044272     4.343867097679
O                     3.464608977882     0.985973890554     2.721962209605
H                     6.998221018295     0.143346142253     5.545792741507
H                     6.066495152689     1.227855321859     3.536849483086
H                     3.148916088864    -1.568362859609     6.405898456353
H                    -0.000829241856     0.178679955498     2.405580961579
H                    -0.929977612271    -1.107108824827     1.632942122368
H                     1.046214588117    -1.939115399123     0.577585442301
H                     1.813395768749    -0.439185588229     1.095560770479
H                    -0.524926573558    -1.167126611781     4.349658122025
H                    -0.400528849024    -2.673506378484     3.422410773113
H                     2.048267470008    -3.184833140063     2.309520364462
H                     3.189393885603    -1.849857771931     2.441837358248
H                     1.736387334543    -2.550240309999     4.602743293234
H                     5.544841227964    -1.861449044182    10.173527381034
H                     7.220555262575    -1.465164884318     9.762496142413
H                     6.228598023509    -0.305559129559    10.667546285373
H                     3.586340326622     2.138063789017     1.073592216707
H                     5.091180124141     1.248084448972     1.433695953875
H                     4.641537401551     2.683863323724     2.405210098315
H                     6.407871869299     0.405247929678     8.262965802104
H                     4.742579598845     0.000968510715     8.661382879508
H                     5.062699848996    -2.262798546516     7.673504951140
H                     7.056059637621    -2.469590930204     6.420641640365
