
  -OEChem-05262117483D

 37 39  0     0  0  0  0  0  0999 V2000
   -3.1293   -2.8934   -1.6961 C   0  0  0  0  0  0  0  0  0  0  0  0
   -3.1188   -2.7261    0.6697 C   0  0  0  0  0  0  0  0  0  0  0  0
   -3.6513   -3.3365   -0.4827 C   0  0  0  0  0  0  0  0  0  0  0  0
   -2.1249   -1.9120   -1.7281 C   0  0  0  0  0  0  0  0  0  0  0  0
   -1.5971   -1.4413   -0.5110 C   0  0  0  0  0  0  0  0  0  0  0  0
   -4.1419    0.7101   -1.8965 C   0  0  0  0  0  0  0  0  0  0  0  0
   -4.5931    1.2469   -3.2377 C   0  0  0  0  0  0  0  0  0  0  0  0
    0.7757   -1.0123    0.3407 C   0  0  0  0  0  0  0  0  0  0  0  0
    0.8575   -0.8099   -1.1552 C   0  0  0  0  0  0  0  0  0  0  0  0
   -3.1971    0.7075   -3.0636 C   0  0  0  0  0  0  0  0  0  0  0  0
   -0.4308   -0.4944   -0.4074 C   0  0  0  0  0  0  0  0  0  0  0  0
   -4.6966   -4.4177   -0.3863 C   0  0  0  0  0  0  0  0  0  0  0  0
   -0.8087    0.9618   -0.1766 C   0  0  0  0  0  0  0  0  0  0  0  0
   -1.6939   -1.3666   -3.0592 C   0  0  0  0  0  0  0  0  0  0  0  0
   -2.1251   -1.8391    0.6600 N   0  0  0  0  0  0  0  0  0  0  0  0
   -2.8475   -0.5863   -3.7136 N   0  3  0  0  0  0  0  0  0  0  0  0
   -3.5020   -3.3294   -2.6252 H   0  0  0  0  0  0  0  0  0  0  0  0
   -3.5129   -2.9889    1.6512 H   0  0  0  0  0  0  0  0  0  0  0  0
   -3.9200    1.4057   -1.0948 H   0  0  0  0  0  0  0  0  0  0  0  0
   -4.5496   -0.2389   -1.5631 H   0  0  0  0  0  0  0  0  0  0  0  0
   -5.3107    0.6575   -3.8030 H   0  0  0  0  0  0  0  0  0  0  0  0
   -4.6894    2.3183   -3.3772 H   0  0  0  0  0  0  0  0  0  0  0  0
    0.7420   -2.0315    0.7114 H   0  0  0  0  0  0  0  0  0  0  0  0
    1.2984   -0.3147    0.9875 H   0  0  0  0  0  0  0  0  0  0  0  0
    1.4440    0.0229   -1.5346 H   0  0  0  0  0  0  0  0  0  0  0  0
    0.9067   -1.7086   -1.7652 H   0  0  0  0  0  0  0  0  0  0  0  0
   -2.3490    1.3827   -3.0805 H   0  0  0  0  0  0  0  0  0  0  0  0
   -4.2283   -5.3903   -0.1990 H   0  0  0  0  0  0  0  0  0  0  0  0
   -5.3901   -4.2262    0.4371 H   0  0  0  0  0  0  0  0  0  0  0  0
   -5.2767   -4.5029   -1.3092 H   0  0  0  0  0  0  0  0  0  0  0  0
    0.0843    1.5699   -0.0060 H   0  0  0  0  0  0  0  0  0  0  0  0
   -1.4521    1.0511    0.7042 H   0  0  0  0  0  0  0  0  0  0  0  0
   -1.3397    1.3904   -1.0337 H   0  0  0  0  0  0  0  0  0  0  0  0
   -0.8619   -0.6705   -2.9805 H   0  0  0  0  0  0  0  0  0  0  0  0
   -1.4400   -2.1544   -3.7747 H   0  0  0  0  0  0  0  0  0  0  0  0
   -3.6771   -1.1910   -3.7191 H   0  0  0  0  0  0  0  0  0  0  0  0
   -2.6167   -0.4080   -4.6991 H   0  0  0  0  0  0  0  0  0  0  0  0
  1  3  1  0  0  0  0
  1  4  2  0  0  0  0
  1 17  1  0  0  0  0
  2  3  2  0  0  0  0
  2 15  1  0  0  0  0
  2 18  1  0  0  0  0
  3 12  1  0  0  0  0
  4  5  1  0  0  0  0
  4 14  1  0  0  0  0
  5 11  1  0  0  0  0
  5 15  2  0  0  0  0
  6  7  1  0  0  0  0
  6 10  1  0  0  0  0
  6 19  1  0  0  0  0
  6 20  1  0  0  0  0
  7 10  1  0  0  0  0
  7 21  1  0  0  0  0
  7 22  1  0  0  0  0
  8  9  1  0  0  0  0
  8 11  1  0  0  0  0
  8 23  1  0  0  0  0
  8 24  1  0  0  0  0
  9 11  1  0  0  0  0
  9 25  1  0  0  0  0
  9 26  1  0  0  0  0
 10 16  1  0  0  0  0
 10 27  1  0  0  0  0
 11 13  1  0  0  0  0
 12 28  1  0  0  0  0
 12 29  1  0  0  0  0
 12 30  1  0  0  0  0
 13 31  1  0  0  0  0
 13 32  1  0  0  0  0
 13 33  1  0  0  0  0
 14 16  1  0  0  0  0
 14 34  1  0  0  0  0
 14 35  1  0  0  0  0
 16 36  1  0  0  0  0
 16 37  1  0  0  0  0
M  CHG  1  16   1
M  END
$$$$
