
  -OEChem-05262117483D

 24 24  0     1  0  0  0  0  0999 V2000
    1.1660   -1.0376   -0.5324 C   0  0  0  0  0  0  0  0  0  0  0  0
    1.5001    1.4846   -0.3068 C   0  0  0  0  0  0  0  0  0  0  0  0
   -0.1530   -1.5829    1.4538 C   0  0  0  0  0  0  0  0  0  0  0  0
    1.5978    0.1313    0.3805 C   0  0  1  0  0  0  0  0  0  0  0  0
   -0.1135   -1.7244   -0.0697 C   0  0  1  0  0  0  0  0  0  0  0  0
   -1.3441   -1.1801   -2.2761 C   0  0  0  0  0  0  0  0  0  0  0  0
    0.2510    2.7997   -1.8236 C   0  0  0  0  0  0  0  0  0  0  0  0
   -1.3601   -1.1032   -0.7478 C   0  0  0  0  0  0  0  0  0  0  0  0
    1.8261   -1.3613   -1.4982 O   0  0  0  0  0  0  0  0  0  0  0  0
    2.2634    2.4057   -0.1061 O   0  0  0  0  0  0  0  0  0  0  0  0
    0.4472    1.5380   -1.1493 O   0  0  0  0  0  0  0  0  0  0  0  0
    0.5160    0.0922    1.8692 S   0  0  0  0  0  0  0  0  0  0  0  0
   -1.1683   -1.6408    1.8526 H   0  0  0  0  0  0  0  0  0  0  0  0
    0.4603   -2.3449    1.9420 H   0  0  0  0  0  0  0  0  0  0  0  0
    2.6438   -0.0097    0.6593 H   0  0  0  0  0  0  0  0  0  0  0  0
   -0.0413   -2.7767   -0.3632 H   0  0  0  0  0  0  0  0  0  0  0  0
   -0.5194   -0.6004   -2.6978 H   0  0  0  0  0  0  0  0  0  0  0  0
   -2.2804   -0.7846   -2.6837 H   0  0  0  0  0  0  0  0  0  0  0  0
   -1.2360   -2.2135   -2.6232 H   0  0  0  0  0  0  0  0  0  0  0  0
   -0.6210    2.6535   -2.4603 H   0  0  0  0  0  0  0  0  0  0  0  0
    1.1302    3.0480   -2.4216 H   0  0  0  0  0  0  0  0  0  0  0  0
    0.0703    3.5920   -1.0939 H   0  0  0  0  0  0  0  0  0  0  0  0
   -2.2313   -1.6455   -0.3603 H   0  0  0  0  0  0  0  0  0  0  0  0
   -1.4618   -0.0636   -0.4241 H   0  0  0  0  0  0  0  0  0  0  0  0
  1  4  1  0  0  0  0
  1  5  1  0  0  0  0
  1  9  2  0  0  0  0
  2  4  1  0  0  0  0
  2 10  2  0  0  0  0
  2 11  1  0  0  0  0
  3  5  1  0  0  0  0
  3 12  1  0  0  0  0
  3 13  1  0  0  0  0
  3 14  1  0  0  0  0
  4 12  1  0  0  0  0
  4 15  1  0  0  0  0
  5  8  1  0  0  0  0
  5 16  1  0  0  0  0
  6  8  1  0  0  0  0
  6 17  1  0  0  0  0
  6 18  1  0  0  0  0
  6 19  1  0  0  0  0
  7 11  1  0  0  0  0
  7 20  1  0  0  0  0
  7 21  1  0  0  0  0
  7 22  1  0  0  0  0
  8 23  1  0  0  0  0
  8 24  1  0  0  0  0
M  END
$$$$
