18   
torsion grid (-165,)
C       -0.6686131579   -1.1615422360    3.1698030031
C        0.0562657078    1.0735075858    1.9043495373
C       -0.2345307811   -0.0892135757    1.1740661023
C       -0.0392058223    1.0052924115    3.3068809718
C       -1.1305244939    0.6077853859   -1.1938414080
C        0.3547064745    0.5632516338   -1.3970557925
C       -0.2636164361   -0.2857350951   -0.2991865567
N       -0.6110894663   -1.2101938507    1.8460717188
N       -0.3967770755   -0.1064199026    3.9481129874
O        0.2353049591    2.0921338725    4.0527726334
Br       0.5428287220    2.7666760990    1.1518681406
H       -0.9711068320   -2.0731024472    3.6818150792
H       -1.5445094950    1.5018379057   -0.7392179347
H       -1.7836750642    0.1053179713   -1.9002769870
H        0.7380375918    0.0011935084   -2.2438503939
H        0.9374534980    1.4340719645   -1.1328672617
H       -0.3379117876   -1.3442406768   -0.5210404333
H        0.1071394935    1.8188488991    4.9808153836
18   
torsion grid (-150,)
C       -0.5596063230   -1.2109714421    3.1819164077
C       -0.0516189115    1.0624710696    1.8779922402
C       -0.3222063710   -0.1165116933    1.1649486684
C       -0.0542071433    0.9906087298    3.2828668122
C       -1.0960859181    0.6477640626   -1.2633835118
C        0.3852934459    0.4337867566   -1.3748665516
C       -0.3986281320   -0.3159156660   -0.3051906758
N       -0.5820502236   -1.2582983176    1.8564275341
N       -0.3049894778   -0.1397003293    3.9430280169
O        0.2032305450    2.0920649148    4.0132843956
Br       0.3076239499    2.7753807355    1.0965843847
H       -0.7710450476   -2.1389934377    3.7098519956
H       -1.4394901433    1.5954490268   -0.8654125199
H       -1.7523389839    0.1945601587   -2.0000084836
H        0.7631195555   -0.1780719863   -2.1884979406
H        1.0414440602    1.2375144475   -1.0676151637
H       -0.5701605672   -1.3649219286   -0.5172908871
H        0.1487019581    1.8125336368    4.9467100944
18   
torsion grid (-135,)
C       -0.4303461608   -1.1724146634    3.1943549034
C       -0.1234467142    1.1703382781    1.9545046494
C       -0.3815149034    0.0064075727    1.2131620812
C       -0.0430658645    1.0498611110    3.3536839374
C       -1.0103962823    0.8793782456   -1.2597991955
C        0.4442359369    0.4987481181   -1.2725070744
C       -0.4974417436   -0.1468121812   -0.2601790944
N       -0.5278228795   -1.1741594964    1.8712950274
N       -0.1968496040   -0.1154495551    3.9818963007
O        0.1980795894    2.1371942052    4.1103107325
Br       0.1482026229    2.9164695632    1.2135799671
H       -0.5516346408   -2.1304776626    3.6963457257
H       -1.2729258578    1.8664240514   -0.9022187331
H       -1.6582397114    0.4877314320   -2.0382111280
H        0.8142563609   -0.1496020981   -2.0607050847
H        1.1566023347    1.2289691878   -0.9068286491
H       -0.7639229494   -1.1722021013   -0.4901206274
H        0.2108692043    1.8228208215    5.0340985413
18   
torsion grid (-120,)
C       -0.3356899781   -1.2206729790    3.1958493480
C       -0.2678398077    1.1602169034    1.9932550429
C       -0.4851717115   -0.0048314126    1.2426122100
C       -0.1055711425    1.0208858226    3.3842444964
C       -0.9714542182    0.8869674155   -1.2861364238
C        0.4310437782    0.3444881388   -1.2058090662
C       -0.6363816274   -0.1480089791   -0.2294946042
N       -0.5020764997   -1.2054241813    1.8802715454
N       -0.1420226833   -0.1630967394    3.9940757332
O        0.0968573466    2.1095371319    4.1500994729
Br      -0.1367274072    2.9302915117    1.2749213590
H       -0.3552972963   -2.1943208763    3.6818357943
H       -1.1377234003    1.9139144106   -0.9937833658
H       -1.6139068006    0.5318713462   -2.0866083196
H        0.7756976522   -0.3641274608   -1.9521919823
H        1.1944339424    1.0066622288   -0.8100919705
H       -0.9967778812   -1.1472398338   -0.4486360678
H        0.1810288162    1.7811303500    5.0652094021
18   
torsion grid (-105,)
C       -0.1977892664   -1.2082516204    3.1363196627
C       -0.3785461374    1.1978127205    1.9931139913
C       -0.5305067202    0.0361236354    1.2239897606
C       -0.1273781782    1.0396399675    3.3707810464
C       -0.8679620053    0.9449311946   -1.3330242611
C        0.4311433556    0.1941679882   -1.2001749155
C       -0.7280639918   -0.0978323159   -0.2453383834
N       -0.4300117302   -1.1763596507    1.8323880822
N       -0.0363227396   -0.1556319349    3.9498987034
O        0.0278069980    2.1239703190    4.1534169315
Br      -0.4820663491    2.9905085069    1.3313868786
H       -0.1268293209   -2.1905641251    3.5995963639
H       -0.8762121177    1.9939866628   -1.0771920377
H       -1.5340689805    0.6718681508   -2.1464419521
H        0.6886241847   -0.5764673065   -1.9197564799
H        1.2749569008    0.7393392766   -0.7876164612
H       -1.2225041909   -1.0413533555   -0.4517739477
H        0.1858459486    1.7832717927    5.0542184866
18   
torsion grid (-90,)
C       -0.0516696283   -1.1849787458    3.0945505846
C       -0.5259250793    1.2083606113    2.0051996564
C       -0.5522471507    0.0516830348    1.2166542730
C       -0.1956542650    1.0562105937    3.3689195039
C       -0.7296442651    0.9968363506   -1.3154832895
C        0.3916522820   -0.0012525956   -1.2040154607
C       -0.7994107865   -0.0717057332   -0.2484585469
N       -0.3280953894   -1.1563360641    1.7999434536
N        0.0476720587   -0.1308425074    3.9178823581
O       -0.1275777439    2.1380573466    4.1666659312
Br      -0.9716863306    2.9714789620    1.4099803125
H        0.1164480806   -2.1627394178    3.5421434634
H       -0.5181745633    2.0184121137   -1.0334062068
H       -1.4320484298    0.8933238483   -2.1375374512
H        0.4875690664   -0.7939175306   -1.9394504942
H        1.3310991872    0.3508074526   -0.7882298713
H       -1.4681619619   -0.9029874320   -0.4511730544
H        0.1018591716    1.8026742674    5.0540522893
18   
torsion grid (-75,)
C       -1.8695035982    1.3223589950    2.8630649776
C        0.4192569761    0.2651712822    1.9835399429
C       -0.5303348462    0.7588256957    1.0820705172
C        0.0872486122    0.2926825406    3.3545720451
C        0.2640058078   -0.2695228022   -1.2388437231
C       -1.2380806703   -0.1548310436   -1.2436688104
C       -0.4020175955    0.8010625314   -0.4049503046
N       -1.6727061855    1.3219891470    1.5521450848
N       -1.0554667570    0.8098585485    3.7980949031
O        0.9449190158   -0.2050906073    4.2640895529
Br       2.1644508207   -0.3446546136    1.4989730772
H       -2.7864102186    1.7837245573    3.2248994358
H        0.6935223753   -1.1262606241   -0.7347970758
H        0.8172601257    0.0570252925   -2.1143967558
H       -1.7402727656    0.2543993054   -2.1149264125
H       -1.8034872045   -0.9131990978   -0.7105734470
H       -0.3550261414    1.8189781310   -0.7839999465
H        0.5222258283   -0.0722347046    5.1337154827
18   
torsion grid (-60,)
C       -1.9265346768    1.1555350425    2.8584891420
C        0.4647543589    0.3645770662    1.9794365973
C       -0.5364734612    0.7470678967    1.0801312020
C        0.1441779727    0.3712475072    3.3509344602
C        0.1761904145   -0.3920434271   -1.1700243328
C       -1.2719347622    0.0114725914   -1.3005623702
C       -0.3470910717    0.8024381495   -0.4008389967
N       -1.7364599937    1.1713892806    1.5441228821
N       -1.0506819467    0.7587319131    3.7927940323
O        1.0574812514   -0.0141537841    4.2606724030
Br       2.2409322010   -0.0874010312    1.4490325677
H       -2.8928077718    1.5004765984    3.2214541984
H        0.3953410867   -1.2960846443   -0.6116893225
H        0.8535940450   -0.2017961255   -1.9968650579
H       -1.6054094003    0.4844827125   -2.2192817363
H       -2.0200448047   -0.6078405999   -0.8152682490
H       -0.0448201770    1.7846034480   -0.7584634290
H        0.6267161725    0.0769297098    5.1316809347
18   
torsion grid (-45,)
C       -1.9706482550    0.9712997601    2.8499216607
C        0.4954606487    0.4313348980    1.9950308341
C       -0.5304740509    0.7150990432    1.0867309429
C        0.1721494939    0.4249325415    3.3631061561
C        0.0598325687   -0.4984855193   -1.1328051961
C       -1.2841666106    0.1587695738   -1.3368354136
C       -0.2911312914    0.7765142222   -0.3853100611
N       -1.7739788848    1.0024591584    1.5347204155
N       -1.0613712070    0.6906996690    3.7928945631
O        1.1143905178    0.1475613340    4.2826626570
Br       2.2885210693    0.0934682036    1.4442752274
H       -2.9740346897    1.2008862415    3.2032321397
H        0.0911668738   -1.4201128360   -0.5593133037
H        0.8058952549   -0.4316156506   -1.9185012676
H       -1.4733102485    0.6746627448   -2.2734134138
H       -2.1573899026   -0.3101816444   -0.8945701998
H        0.2287127538    1.6760773724   -0.7081559161
H        0.6706131455    0.2005998437    5.1502415587
18   
torsion grid (-30,)
C       -1.9719394279    0.8160285421    2.8123959860
C        0.5451711161    0.5325181412    1.9883808215
C       -0.4945299169    0.7027326486    1.0664109577
C        0.2131281999    0.5176752382    3.3522826644
C       -0.0710123374   -0.5628773583   -1.1456028106
C       -1.2806035078    0.3081109930   -1.3794389837
C       -0.2303489015    0.7570498416   -0.3982336046
N       -1.7665656676    0.8536163090    1.4979530305
N       -1.0469648194    0.6578876941    3.7674884029
O        1.1702050814    0.3566758260    4.2843455759
Br       2.3592033930    0.3251142435    1.4427624850
H       -2.9990422214    0.9324191941    3.1527802080
H       -0.2050517609   -1.4759037652   -0.5728782699
H        0.7005613077   -0.6141236587   -1.9074700073
H       -1.3518957114    0.8487567588   -2.3184411631
H       -2.2300631611   -0.0097259646   -0.9618492470
H        0.4522586755    1.5473050157   -0.6997854531
H        0.7144603709    0.3759543075    5.1470856590
18   
torsion grid (-15,)
C       -1.9323578030    0.6365876943    2.7964800344
C        0.6124786891    0.5969660631    2.0097375497
C       -0.4252955248    0.6550458890    1.0705535598
C        0.2627923050    0.5722273647    3.3684781604
C       -0.2096638835   -0.6230443850   -1.1542085826
C       -1.2521233339    0.4377079191   -1.3849538278
C       -0.1519174822    0.7020211250   -0.3884489395
N       -1.7120524306    0.6790937558    1.4852914249
N       -1.0109459651    0.5915559098    3.7664449031
O        1.2170999915    0.5236168067    4.3160329397
Br       2.4481812739    0.5334353215    1.4968810616
H       -2.9712403288    0.6481347770    3.1206423690
H       -0.4989265714   -1.5044695901   -0.5897641911
H        0.5535256878   -0.7920563693   -1.9075497021
H       -1.2181658250    0.9966829739   -2.3152753779
H       -2.2436854524    0.2751478189   -0.9774549688
H        0.6555574914    1.3663824249   -0.6787366709
H        0.7482345887    0.5117830201    5.1718295354
18   
torsion grid (0,)
C       -2.1293240310    0.4722131215    2.8331421366
C        0.4552245481    0.6998308506    2.2263156199
C       -0.5122417774    0.6306958073    1.2149847319
C        0.0123221938    0.6560198447    3.5573524762
C       -0.3791012896   -0.6154780654   -1.0279633697
C       -1.2330875477    0.5918888898   -1.2818397843
C       -0.1567505562    0.6722843119   -0.2224087732
N       -1.8210687219    0.5193518410    1.5413489204
N       -1.2808610623    0.5421607712    3.8665243981
O        0.8964748884    0.7251911060    4.5696256072
Br       2.3233859965    0.8295246402    1.8577692907
H       -3.1840324113    0.3745856350    3.0832833265
H       -0.8286016766   -1.4482019024   -0.4959450869
H        0.3901194086   -0.8851243755   -1.7450676687
H       -1.0609402558    1.1607435032   -2.1905838827
H       -2.2571967239    0.5694615576   -0.9272862703
H        0.7496704087    1.2167438405   -0.4591477184
H        0.3715782584    0.6746676269    5.3907432451
18   
torsion grid (15,)
C       -1.9383668628    0.3052099146    2.7439544423
C        0.6069984709    0.7086618008    2.0613380385
C       -0.3745604518    0.5230668768    1.0788810047
C        0.1978824377    0.6816672594    3.4043130792
C       -0.5464432490   -0.6791696026   -1.1885786992
C       -1.1987660808    0.6552143653   -1.3784307627
C       -0.0724705128    0.5276696042   -0.3681311419
N       -1.6633890131    0.3217431242    1.4453588356
N       -1.0742270337    0.4806578572    3.7522397251
O        1.0971660448    0.8591079020    4.3897217820
Br       2.4519440079    0.9801552037    1.6489813397
H       -2.9765368629    0.1380415440    3.0247743124
H       -1.1041107325   -1.4364888331   -0.6470374976
H        0.1355592982   -1.0515083263   -1.9467662527
H       -0.9742394259    1.2190825066   -2.2787662041
H       -2.1945948896    0.7881329116   -0.9710544011
H        0.8924619418    0.9341627003   -0.6425033220
H        0.5966010747    0.8009150175    5.2254315115
18   
torsion grid (30,)
C       -1.8272520811    0.1610757891    2.7251309281
C        0.6790065134    0.7248459409    2.0106015399
C       -0.2874685523    0.4205716329    1.0433134556
C        0.2768228004    0.7223270012    3.3565156474
C       -0.6710755232   -0.6909358241   -1.2556516011
C       -1.1129676247    0.7326923505   -1.3890517145
C       -0.0001176955    0.3875198928   -0.4050848458
N       -1.5565995169    0.1372014030    1.4265087667
N       -0.9752372450    0.4415192221    3.7204233605
O        1.1632072010    1.0081957155    4.3280201597
Br       2.4944962760    1.1331305383    1.5780884011
H       -2.8497418611   -0.0688093236    3.0188734711
H       -1.3325417006   -1.3700342851   -0.7282520850
H       -0.0668230501   -1.1330895920   -2.0418272763
H       -0.8192743248    1.2933490382   -2.2711888486
H       -2.0691850081    1.0001496643   -0.9526943174
H        1.0057418740    0.6677593657   -0.6888360642
H        0.6707441238    0.9477482190    5.1683908888
18   
torsion grid (45,)
C       -1.7671719425    0.0267006201    2.7367437478
C        0.6915265186    0.7476787655    1.9975797453
C       -0.2452687314    0.3260412610    1.0451227537
C        0.2874438289    0.7700505433    3.3425681464
C       -0.7683620311   -0.6647371803   -1.2933340669
C       -0.9923969690    0.8147754338   -1.3748767511
C        0.0481872083    0.2572260170   -0.4011457714
N       -1.4896659804   -0.0376739068    1.4406627593
N       -0.9407742883    0.4107666208    3.7187748631
O        1.1468587813    1.1633020046    4.3006573869
Br       2.4664057751    1.2898302551    1.5447970547
H       -2.7710756952   -0.2644327254    3.0401212306
H       -1.5303097436   -1.2571452952   -0.7989963330
H       -0.2302932513   -1.1570753469   -2.0976452847
H       -0.6119376513    1.3627711009   -2.2313239782
H       -1.9010371064    1.2063495415   -0.9295052432
H        1.0840863195    0.4121179244   -0.6734066952
H        0.6583178463    1.1008628700    5.1431608420
18   
torsion grid (60,)
C       -1.7249614258   -0.1181873479    2.7668595208
C        0.6672846379    0.7713758150    1.9930940130
C       -0.2313747208    0.2354050279    1.0612547136
C        0.2639332840    0.8103222021    3.3372118562
C       -0.8388298254   -0.6120581325   -1.3212824233
C       -0.8375741651    0.8901277846   -1.3553832285
C        0.0784813860    0.1408046779   -0.3822765634
N       -1.4409689739   -0.2138013473    1.4729418647
N       -0.9313894366    0.3668296955    3.7304242160
O        1.0882759224    1.3082282953    4.2772180555
Br       2.3838515534    1.4515038926    1.5064161339
H       -2.7026034257   -0.4762662918    3.0839847828
H       -1.6940755000   -1.1012472343   -0.8690925041
H       -0.3618721180   -1.1482632100   -2.1360737787
H       -0.3575449034    1.4043744589   -2.1821667162
H       -1.6899988494    1.4012019746   -0.9191230109
H        1.1330222573    0.1632389982   -0.6283036150
H        0.6066688052    1.2383444173    5.1230880534
18   
torsion grid (75,)
C       -1.5947135011   -0.2240283055    2.7860277066
C        0.6800444798    0.8435366936    1.9011841426
C       -0.1932863609    0.1915005163    1.0208691300
C        0.3192518521    0.8999578936    3.2562347654
C       -0.9028016717   -0.5280277672   -1.3793471070
C       -0.6758800688    0.9623923398   -1.3938514993
C        0.1021764992    0.0675619926   -0.4268274234
N       -1.3431680497   -0.3481859103    1.4864907372
N       -0.8191781759    0.3663699501    3.7038050038
O        1.1232599297    1.5062985374    4.1490269881
Br       2.3037325774    1.6587554003    1.3188766312
H       -2.5258492540   -0.6547201100    3.1492884062
H       -1.8252511093   -0.8940280640   -0.9430131994
H       -0.5068634289   -1.1154396636   -2.2021969804
H       -0.1174032551    1.4088792461   -2.2106386815
H       -1.4481977133    1.5926521359   -0.9635966927
H        1.1537574097   -0.0527723655   -0.6637114932
H        0.6764392390    1.4267327941    5.0129330592
18   
torsion grid (90,)
C       -1.5193065655   -0.3645885885    2.8473765990
C        0.6298498031    0.8813719742    1.8855626637
C       -0.1995086482    0.1313036051    1.0424577865
C        0.2928038886    0.9429664297    3.2464297621
C       -0.9696994747   -0.4347028929   -1.3812627342
C       -0.5104440743    1.0060520653   -1.3731246962
C        0.0941225912   -0.0086853436   -0.4079725540
N       -1.2846083161   -0.4994999589    1.5444978796
N       -0.7834176682    0.3204684150    3.7312544589
O        1.0551428440    1.6441045441    4.1055603227
Br       2.1639476053    1.8085195094    1.2364400638
H       -2.3985103908   -0.8694563728    3.2429893878
H       -1.9460926572   -0.6584181544   -0.9655695731
H       -0.6631024423   -1.0673605954   -2.2086793663
H        0.1251655505    1.3655663637   -2.1762275710
H       -1.1837430418    1.7481152923   -0.9544778513
H        1.1214391389   -0.2867043820   -0.6259747880
H        0.6339886825    1.5493926135    4.9807944903
18   
torsion grid (105,)
C       -1.4601393926   -0.5096077383    2.8761693176
C        0.5410464284    0.9029549830    1.8277239473
C       -0.2425833413    0.0666560372    1.0242746501
C        0.2312195421    0.9710212426    3.1957261051
C       -1.0827949921   -0.3506630850   -1.4070023964
C       -0.3934908816    0.9992185031   -1.3959282327
C        0.0310508524   -0.0947656141   -0.4314523131
N       -1.2491749527   -0.6520696588    1.5698943772
N       -0.7713507117    0.2665577602    3.7225308060
O        0.9471946124    1.7605036084    4.0169481992
Br       1.9913071160    1.9195429896    1.1246652605
H       -2.2746693529   -1.0873952539    3.3086403012
H       -2.0852904695   -0.4146273763   -0.9968158047
H       -0.8836080752   -1.0253703928   -2.2339965789
H        0.2912462186    1.2501765864   -2.1998406120
H       -0.9404760319    1.8426345317   -0.9848673725
H        0.9996825000   -0.5429043858   -0.6424542755
H        0.5583759168    1.6512813807    4.9053736434
18   
torsion grid (120,)
C       -1.3706748282   -0.6488189808    2.9193379290
C        0.4605568233    0.9386619637    1.8097509758
C       -0.2602476214    0.0255327421    1.0324661056
C        0.1655765273    1.0010054560    3.1834716134
C       -1.1587772079   -0.2341627675   -1.4015991712
C       -0.2546128708    0.9840777407   -1.3993011050
C       -0.0134012650   -0.1516795386   -0.4289354151
N       -1.1750445535   -0.7860499020    1.6112405149
N       -0.7526023109    0.2114815246    3.7398787409
O        0.8153765570    1.8704658533    3.9785272434
Br       1.8330201011    2.0484528537    1.0897962772
H       -2.1085609590   -1.3040781390    3.3780936548
H       -2.1589001904   -0.1264040437   -0.9936381628
H       -1.0772460651   -0.9422924320   -2.2205420450
H        0.4568765736    1.1152852438   -2.2084662880
H       -0.6596885458    1.9089849980   -1.0001624602
H        0.8566289648   -0.7716864000   -0.6389094795
H        0.4555370571    1.7381263871    4.8760000781
18   
torsion grid (135,)
C       -1.2748201042   -0.7390128816    2.9559072341
C        0.3652529160    1.0177214994    1.7954837599
C       -0.2740826904    0.0294218420    1.0394984201
C        0.0709100063    1.0733794649    3.1722964323
C       -1.2300233016   -0.0921935109   -1.3871253802
C       -0.1292329518    0.9491443612   -1.4297369827
C       -0.0681763952   -0.1757009116   -0.4255599516
N       -1.0833684623   -0.8708677540    1.6487337099
N       -0.7524498371    0.2035889563    3.7537123515
O        0.6327301193    2.0206772735    3.9450975367
Br       1.6610368573    2.2257967237    1.0849804167
H       -1.9237733842   -1.4690611504    3.4358147797
H       -2.1909558736    0.2055705642   -0.9787482274
H       -1.2843900656   -0.8361948189   -2.1758846027
H        0.5815278300    0.9324607654   -2.2501423611
H       -0.3731241797    1.9421116196   -1.0681307619
H        0.6548735899   -0.9635365448   -0.6299971211
H        0.2982475419    1.8656250612    4.8487732526
18   
torsion grid (150,)
C       -1.0996668483   -0.8834021041    2.9713752438
C        0.3434722716    1.0315892184    1.7946797204
C       -0.2139922329   -0.0061077820    1.0395954485
C        0.0612383528    1.0505661799    3.1771793472
C       -1.2443540488    0.0839896547   -1.3569432353
C        0.0448489276    0.8648913694   -1.4780306290
C       -0.0771407600   -0.2151766323   -0.4320304131
N       -0.9190771154   -0.9854955127    1.6624333158
N       -0.6640422226    0.1044278645    3.7676788985
O        0.5405530487    2.0446301273    3.9470673576
Br       1.5339047719    2.3623235935    1.1121601549
H       -1.6605599851   -1.6800237514    3.4564706761
H       -2.0993042225    0.5954583324   -0.9249553669
H       -1.4927714494   -0.6619719261   -2.1054401087
H        0.7007159857    0.6652448316   -2.3201565070
H        0.0232341473    1.9005202056   -1.1638675680
H        0.4310646184   -1.1521199760   -0.6481743105
H        0.2369122398    1.8523726746    4.8545018618
18   
torsion grid (165,)
C       -0.9018499013   -1.0853916329    3.0977229223
C        0.3146226735    0.9506089209    1.8669951610
C       -0.1521214489   -0.1461137878    1.1318124550
C        0.0787745274    0.9468944735    3.2582447820
C       -1.2442928617    0.1737907757   -1.2058021407
C        0.1757775333    0.6082650567   -1.4558411266
C       -0.1077439536   -0.3723273936   -0.3408153855
N       -0.7521990604   -1.1771226588    1.7852406140
N       -0.5305905000   -0.0601833474    3.8784443346
O        0.4846232852    1.9872789517    4.0095466400
Br       1.3027519359    2.4282926790    1.1580018730
H       -1.3784191215   -1.9250880305    3.6001068092
H       -1.9088600128    0.8954284661   -0.7399770314
H       -1.7283827989   -0.5183310163   -1.8876931195
H        0.6928715070    0.2020264685   -2.3203764155
H        0.4358784852    1.6292549292   -1.2165890058
H        0.1327550174   -1.4095909799   -0.5530984614
H        0.2300155639    1.7708967953    4.9265576120
18   
torsion grid (180,)
C       -0.7795369106   -1.1562666177    3.1424167013
C        0.1784705706    1.0011818555    1.8947007620
C       -0.1717014232   -0.1418256030    1.1619377168
C        0.0004436243    0.9603057046    3.2917489319
C       -1.1874236161    0.4077097233   -1.1676369070
C        0.2806546087    0.5571050919   -1.4373662466
C       -0.1662602290   -0.3542402040   -0.3108685420
N       -0.6601617640   -1.2249659853    1.8247181359
N       -0.4751625672   -0.1109554386    3.9234395280
O        0.3184848054    2.0332853005    4.0402527106
Br       0.8763436072    2.6257011373    1.1608440810
H       -1.1675470335   -2.0386921140    3.6477764685
H       -1.6912921540    1.2425998224   -0.6898865021
H       -1.8048078518   -0.1778077993   -1.8415192959
H        0.6935137652    0.0427619904   -2.3006057848
H        0.7500120461    1.5029827658   -1.2117301382
H       -0.1226166265   -1.4162356175   -0.5260569759
H        0.1212918371    1.7834472182    4.9628368222
