29
0 1 BrC14H10N3O
C                     0.620118050025    -5.582652670076   -10.532923227263
C                     2.421003550920     1.493887543792    -4.328160890520
C                     2.082463197701     0.767589700147    -3.171895291731
C                    -0.505985982370    -5.880499978434   -11.306874325412
C                     0.478051590561    -5.329910871376    -9.168968818591
C                     2.195758858440     0.983132388853    -5.612875382897
C                     1.500935755605    -0.507712364810    -3.254716785222
C                    -1.769422544862    -5.932584494107   -10.712651207643
C                    -0.785047446831    -5.365512088448    -8.543895373245
C                     1.618514904777    -0.286086112012    -5.708356388091
C                     1.291921240391    -0.988028563953    -4.535966029428
C                    -1.896097371852    -5.679429524424    -9.346309945163
C                     0.769160552113    -2.146568063675    -6.282407286465
C                    -0.914496316011    -5.148069579470    -7.083573492300
N                     1.263291975403    -1.066473804246    -6.817548636514
N                    -0.396987526337    -4.208446447801    -6.369494863751
N                     0.329305051995    -3.235910552127    -6.986877819029
O                     0.738870771373    -2.205725784201    -4.919267673112
Br                   -3.652134871305    -5.748220069386    -8.573752900873
H                     1.606056184075    -5.554077127159   -10.987873687236
H                     2.868623456580     2.478104423129    -4.219648340877
H                     2.273674191258     1.200040270095    -2.193988676002
H                    -0.406121622420    -6.076369742318   -12.370817101519
H                     1.357429838876    -5.128968758715    -8.563362876766
H                     2.456166503427     1.546596848415    -6.503783450114
H                     1.233212743691    -1.079920863932    -2.372040794490
H                    -2.649086638831    -6.164420358626   -11.304166964842
H                    -1.516103530244    -5.855717154421    -6.518683402874
H                     0.287114705507    -3.098957135168    -7.996007504177
