48
0 1 C17H25N3O2S
C                    -3.321995920694    -5.555791110977    -1.282492572522
C                    -2.298019142297    -6.401002545842    -0.946694452651
C                    -3.261458555804    -5.084019896096     0.882011418240
C                    -0.436182798605    -0.914454791475     1.970120955542
C                     1.236974907903    -2.584751676022     3.683145470783
C                    -0.093863474506    -2.065013309299     4.214703825439
C                    -2.409511801027    -1.212347794284     3.556959513576
C                     1.110685798182    -0.526043433812    -0.690866778213
C                     1.416417804644     1.353163464034     0.953558071577
C                     1.865430049630    -1.547015782137     2.763041416245
C                    -3.378017594192    -2.395639489242     3.538274874821
C                    -1.500957621207    -3.154073238288     2.383799567204
C                     1.876252686691     0.336398937093    -1.698732322506
C                     2.161291128369     2.102103948548    -0.155776133925
C                     1.558639408283    -0.160352728323     0.730762231308
C                    -1.067688599326    -1.808216351548     3.056364053072
C                    -3.590845741393    -4.425223468810     2.195433292745
N                    -3.858336185215    -4.822444605719    -0.247790959596
N                     0.924659116715    -0.985301692619     1.782447421678
N                    -2.961362683518    -3.120210537689     2.339180053898
O                    -1.150543907241    -0.222030279599     1.242054024856
O                     1.703974119117     1.731060647324    -1.453860039816
S                    -1.980648168842    -6.283158352972     0.751465998628
H                    -3.725583022405    -5.437899630832    -2.282534639222
H                    -1.738622425619    -7.071972583732    -1.585336075763
H                     1.935985972101    -2.799229220964     4.498639461811
H                     1.084057548024    -3.521463412264     3.135939197837
H                    -0.542264398103    -2.774032257574     4.920157320547
H                     0.072585274740    -1.129833123031     4.765592901891
H                    -2.746399713738    -0.450784057290     2.853257976043
H                    -2.310513259662    -0.764478725535     4.550120768382
H                     0.038768146883    -0.353316573764    -0.795022516628
H                     1.309578195835    -1.586854311639    -0.886940804501
H                     1.831642074145     1.636178914154     1.929258357010
H                     0.359452542275     1.624625081191     0.937720760764
H                     2.287210316761    -0.727801791737     3.365954687460
H                     2.698312872594    -1.997117640042     2.212466681640
H                    -3.270995027654    -3.012577480571     4.453853284142
H                    -4.426962334541    -2.092449755936     3.459143185850
H                    -1.088864091087    -3.284582261092     1.379741468816
H                    -1.137711730306    -3.999333532085     3.001133054995
H                     2.952283293775     0.089770288781    -1.672810598009
H                     1.514370877053     0.161466021922    -2.715194879764
H                     2.000765613104     3.180429999370    -0.075282575651
H                     3.246546844725     1.912714234781    -0.079680646826
H                     2.627969859282    -0.396685461402     0.797894430144
H                    -4.675647974047    -4.287475836234     2.228708082754
H                    -3.312919303840    -5.106687043162     3.024085375660
