48
0 1 C17H25N3O2S
C                     1.327534258115    -6.233659667030     8.178391610189
C                     2.391133656421    -5.579577012751     8.740578614797
C                     2.384293580589    -5.728921061181     6.290839640649
C                     2.047430084115    -1.519524433364     2.644619689951
C                     0.187801806420     0.103522413838     4.217069448658
C                     1.024381323792    -1.016704766959     4.881663552048
C                     0.218803319925    -3.068183839918     3.529464449979
C                     0.765461979126    -0.072308636770    -0.298052184606
C                     2.101098077923     1.616412832976     1.008987601067
C                     0.048156226860    -0.090283463673     2.701138715941
C                     0.521822753422    -4.399058555634     4.227314483502
C                     2.429264245308    -3.115869887534     4.575509436800
C                     1.276453575735     0.621722679373    -1.563961073610
C                     2.526919306279     2.204563975635    -0.339513393691
C                     1.769262018955     0.126075105165     0.846959878703
C                     1.430189482799    -2.143070451026     3.907626063121
C                     2.632197916402    -5.582995396989     4.804351237828
N                     1.330737828155    -6.312230883250     6.802927597186
N                     1.321536955200    -0.488977560056     2.100928873510
N                     1.979471019428    -4.446285880693     4.170202265733
O                     3.114046813834    -1.906880235953     2.161795095578
O                     1.531097708298     2.008101395688    -1.342344187249
S                     3.458238933124    -5.026698600412     7.493790147273
H                     0.513016905963    -6.685135956905     8.734997668512
H                     2.599261492884    -5.405197881532     9.788145562902
H                    -0.814758006072     0.158120383676     4.653791526468
H                     0.664006975982     1.071980565178     4.398549444823
H                     1.939530988445    -0.589352284967     5.305502810663
H                     0.479609853402    -1.464178259868     5.719722887030
H                     0.174627691047    -3.218875464574     2.447159462792
H                    -0.737902514663    -2.650002692209     3.852945155339
H                    -0.210060254051     0.352595072388    -0.034340690498
H                     0.624236980221    -1.142297929271    -0.490131933682
H                     2.906234520449     1.739766115158     1.742100151789
H                     1.228228121912     2.171327730893     1.372804696433
H                    -0.729471785054    -0.828411820586     2.473550932608
H                    -0.271916730725     0.845946107462     2.240506787180
H                     0.136431574145    -4.394390911005     5.261455750680
H                     0.085609505960    -5.263598563834     3.716625862014
H                     3.453776783881    -2.940599627183     4.241079123600
H                     2.381138223884    -2.974695964812     5.669322678917
H                     2.196416980262     0.127997870560    -1.917519571320
H                     0.535608354229     0.573949783193    -2.366270656769
H                     2.677517774579     3.284929560095    -0.269093146964
H                     3.475572005657     1.747256406904    -0.665230444277
H                     2.690765038118    -0.401683196191     0.590927089887
H                     3.707187970586    -5.509661601084     4.609579294402
H                     2.267823195259    -6.497980127689     4.326737758372
