29
0 1 BrC14H10N3O
C                    -1.175125040652    -4.739972490897   -10.605509634442
C                     2.171715374367     1.720725673522    -4.368273734904
C                     1.963918046114     0.937433930841    -3.218335957824
C                    -0.520489396188    -5.684152039438   -11.402897795457
C                    -0.884199179707    -4.659723391328    -9.244105621796
C                     1.993551107353     1.201585478134    -5.657009788871
C                     1.566804983067    -0.406052347831    -3.311892398420
C                     0.417236508179    -6.550195112004   -10.834782831316
C                     0.064028706790    -5.513709118815    -8.645118940736
C                     1.596944186433    -0.134330105606    -5.763125282168
C                     1.396133352054    -0.891565437606    -4.596867537033
C                     0.696741994653    -6.459605508731    -9.470697186696
C                     1.014599149671    -2.090205314298    -6.352795549721
C                     0.323873709399    -5.453271249824    -7.187125841693
N                     1.343256070710    -0.944589761422    -6.878757918876
N                     0.552895081422    -4.412670311144    -6.462461594556
N                     0.625577730061    -3.193590334969    -7.065371182697
O                     1.012431893821    -2.169630638412    -4.990317852390
Br                    2.001858935555    -7.659075632716    -8.733775660746
H                    -1.914304756264    -4.073300657859   -11.040292346567
H                     2.479665723447     2.756271583396    -4.251530272967
H                     2.113279869607     1.378520635824    -2.237004665941
H                    -0.738338731313    -5.752918427461   -12.465032542371
H                    -1.415162072415    -3.946109946590    -8.620156535145
H                     2.156741834224     1.807682009568    -6.543032978921
H                     1.403718789863    -1.023584261202    -2.434240929429
H                     0.929492388520    -7.287102567132   -11.444710976179
H                     0.327243319373    -6.389639322510    -6.634815252375
H                     0.732971265698    -3.104722542045    -8.075076808447
