
  -OEChem-05262117483D

 35 37  0     0  0  0  0  0  0999 V2000
   -1.5855   -2.7509    1.2533 C   0  0  0  0  0  0  0  0  0  0  0  0
   -0.7359   -1.7594    3.5808 C   0  0  0  0  0  0  0  0  0  0  0  0
   -0.1883    1.3478    2.5684 C   0  0  0  0  0  0  0  0  0  0  0  0
   -0.1244   -1.7579    4.8865 C   0  0  0  0  0  0  0  0  0  0  0  0
    1.2178    1.3672    2.8623 C   0  0  0  0  0  0  0  0  0  0  0  0
   -0.2353    1.4786    1.2028 C   0  0  0  0  0  0  0  0  0  0  0  0
   -1.7424   -1.0828    2.8484 C   0  0  0  0  0  0  0  0  0  0  0  0
   -0.1947   -2.8937    2.9632 C   0  0  0  0  0  0  0  0  0  0  0  0
   -0.4057   -0.9108    6.0909 C   0  0  0  0  0  0  0  0  0  0  0  0
    1.9148    1.2452    4.1836 C   0  0  0  0  0  0  0  0  0  0  0  0
   -1.3343    1.5110    0.1953 C   0  0  0  0  0  0  0  0  0  0  0  0
   -3.5769    0.5122    2.6954 C   0  0  0  0  0  0  0  0  0  0  0  0
   -1.3305    1.2212    3.5466 C   0  0  0  0  0  0  0  0  0  0  0  0
   -2.1837   -1.6326    1.7030 N   0  0  0  0  0  0  0  0  0  0  0  0
   -0.5609   -3.4179    1.7953 N   0  0  0  0  0  0  0  0  0  0  0  0
    0.7303   -2.7491    4.9953 N   0  0  0  0  0  0  0  0  0  0  0  0
    1.9408    1.5060    1.7709 N   0  0  0  0  0  0  0  0  0  0  0  0
   -2.2834    0.1199    3.2599 N   0  0  0  0  0  0  0  0  0  0  0  0
    1.0205    1.5697    0.7145 O   0  0  0  0  0  0  0  0  0  0  0  0
    0.7199   -3.4667    3.7704 O   0  0  0  0  0  0  0  0  0  0  0  0
   -1.9766   -3.1510    0.3199 H   0  0  0  0  0  0  0  0  0  0  0  0
   -1.4803   -0.7285    6.1798 H   0  0  0  0  0  0  0  0  0  0  0  0
   -0.0538   -1.4258    6.9871 H   0  0  0  0  0  0  0  0  0  0  0  0
    0.0993    0.0565    6.0388 H   0  0  0  0  0  0  0  0  0  0  0  0
    1.8687    0.2172    4.5547 H   0  0  0  0  0  0  0  0  0  0  0  0
    2.9668    1.5137    4.0683 H   0  0  0  0  0  0  0  0  0  0  0  0
    1.4682    1.9039    4.9348 H   0  0  0  0  0  0  0  0  0  0  0  0
   -2.0920    2.2529    0.4660 H   0  0  0  0  0  0  0  0  0  0  0  0
   -0.9279    1.7722   -0.7841 H   0  0  0  0  0  0  0  0  0  0  0  0
   -1.8230    0.5342    0.1262 H   0  0  0  0  0  0  0  0  0  0  0  0
   -4.0261    1.2580    3.3572 H   0  0  0  0  0  0  0  0  0  0  0  0
   -4.2304   -0.3593    2.6574 H   0  0  0  0  0  0  0  0  0  0  0  0
   -3.5090    0.9261    1.6845 H   0  0  0  0  0  0  0  0  0  0  0  0
   -0.9258    1.1147    4.5537 H   0  0  0  0  0  0  0  0  0  0  0  0
   -1.9272    2.1376    3.5587 H   0  0  0  0  0  0  0  0  0  0  0  0
  1 14  1  0  0  0  0
  1 15  2  0  0  0  0
  1 21  1  0  0  0  0
  2  4  1  0  0  0  0
  2  7  1  0  0  0  0
  2  8  2  0  0  0  0
  3  5  1  0  0  0  0
  3  6  2  0  0  0  0
  3 13  1  0  0  0  0
  4  9  1  0  0  0  0
  4 16  2  0  0  0  0
  5 10  1  0  0  0  0
  5 17  2  0  0  0  0
  6 11  1  0  0  0  0
  6 19  1  0  0  0  0
  7 14  2  0  0  0  0
  7 18  1  0  0  0  0
  8 15  1  0  0  0  0
  8 20  1  0  0  0  0
  9 22  1  0  0  0  0
  9 23  1  0  0  0  0
  9 24  1  0  0  0  0
 10 25  1  0  0  0  0
 10 26  1  0  0  0  0
 10 27  1  0  0  0  0
 11 28  1  0  0  0  0
 11 29  1  0  0  0  0
 11 30  1  0  0  0  0
 12 18  1  0  0  0  0
 12 31  1  0  0  0  0
 12 32  1  0  0  0  0
 12 33  1  0  0  0  0
 13 18  1  0  0  0  0
 13 34  1  0  0  0  0
 13 35  1  0  0  0  0
 16 20  1  0  0  0  0
 17 19  1  0  0  0  0
M  END
$$$$
