
  -OEChem-05262117483D

 48 51  0     1  0  0  0  0  0999 V2000
   -1.7533    0.3464   10.7788 C   0  0  0  0  0  0  0  0  0  0  0  0
   -2.2282    1.5756   10.4111 C   0  0  0  0  0  0  0  0  0  0  0  0
   -1.5479    0.1073    8.5880 C   0  0  0  0  0  0  0  0  0  0  0  0
    0.7901   -0.0591    3.1183 C   0  0  0  0  0  0  0  0  0  0  0  0
    1.5241   -2.7546    3.8708 C   0  0  0  0  0  0  0  0  0  0  0  0
    0.2382   -2.1732    4.4455 C   0  0  0  0  0  0  0  0  0  0  0  0
    1.2716   -0.1025    5.5717 C   0  0  0  0  0  0  0  0  0  0  0  0
    0.7211    0.1812    0.0475 C   0  0  0  0  0  0  0  0  0  0  0  0
    2.9779    0.7177    1.0217 C   0  0  0  0  0  0  0  0  0  0  0  0
    1.6764   -2.3105    2.4228 C   0  0  0  0  0  0  0  0  0  0  0  0
    0.4296    0.9428    6.3351 C   0  0  0  0  0  0  0  0  0  0  0  0
   -1.0653    0.0008    4.8562 C   0  0  0  0  0  0  0  0  0  0  0  0
    1.2792    0.6471   -1.3009 C   0  0  0  0  0  0  0  0  0  0  0  0
    3.3960    1.1560   -0.3852 C   0  0  0  0  0  0  0  0  0  0  0  0
    1.8723   -0.3426    0.9183 C   0  0  0  0  0  0  0  0  0  0  0  0
    0.3094   -0.6402    4.4590 C   0  0  1  0  0  0  0  0  0  0  0  0
   -1.2883   -0.5330    7.2523 C   0  0  0  0  0  0  0  0  0  0  0  0
   -1.3662   -0.4777    9.7405 N   0  0  0  0  0  0  0  0  0  0  0  0
    1.4415   -0.8727    2.2299 N   0  0  0  0  0  0  0  0  0  0  0  0
   -0.9638    0.4755    6.2433 N   0  0  1  0  0  0  0  0  0  0  0  0
    0.6237    1.1452    2.8881 O   0  0  0  0  0  0  0  0  0  0  0  0
    2.2922    1.6387   -1.1477 O   0  0  0  0  0  0  0  0  0  0  0  0
   -2.1971    1.7343    8.6830 S   0  0  0  0  0  0  0  0  0  0  0  0
   -1.6556   -0.0058   11.8003 H   0  0  0  0  0  0  0  0  0  0  0  0
   -2.5677    2.3821   11.0481 H   0  0  0  0  0  0  0  0  0  0  0  0
    2.3847   -2.4150    4.4583 H   0  0  0  0  0  0  0  0  0  0  0  0
    1.5204   -3.8493    3.9039 H   0  0  0  0  0  0  0  0  0  0  0  0
   -0.6111   -2.4992    3.8301 H   0  0  0  0  0  0  0  0  0  0  0  0
    0.0539   -2.5457    5.4586 H   0  0  0  0  0  0  0  0  0  0  0  0
    2.1871    0.3339    5.1656 H   0  0  0  0  0  0  0  0  0  0  0  0
    1.5656   -0.9235    6.2344 H   0  0  0  0  0  0  0  0  0  0  0  0
    0.2305    1.0153    0.5515 H   0  0  0  0  0  0  0  0  0  0  0  0
   -0.0216   -0.6099   -0.1149 H   0  0  0  0  0  0  0  0  0  0  0  0
    3.8462    0.3083    1.5531 H   0  0  0  0  0  0  0  0  0  0  0  0
    2.6048    1.5762    1.5828 H   0  0  0  0  0  0  0  0  0  0  0  0
    2.6882   -2.5374    2.0685 H   0  0  0  0  0  0  0  0  0  0  0  0
    0.9802   -2.8770    1.7862 H   0  0  0  0  0  0  0  0  0  0  0  0
    0.7329    1.0694    7.3774 H   0  0  0  0  0  0  0  0  0  0  0  0
    0.5000    1.9132    5.8355 H   0  0  0  0  0  0  0  0  0  0  0  0
   -1.2480    0.8636    4.2132 H   0  0  0  0  0  0  0  0  0  0  0  0
   -1.8960   -0.7016    4.7483 H   0  0  0  0  0  0  0  0  0  0  0  0
    1.6871   -0.2118   -1.8623 H   0  0  0  0  0  0  0  0  0  0  0  0
    0.4959    1.1064   -1.9093 H   0  0  0  0  0  0  0  0  0  0  0  0
    4.1152    1.9779   -0.3405 H   0  0  0  0  0  0  0  0  0  0  0  0
    3.8722    0.3153   -0.9195 H   0  0  0  0  0  0  0  0  0  0  0  0
    2.2995   -1.2067    0.3946 H   0  0  0  0  0  0  0  0  0  0  0  0
   -0.5178   -1.3051    7.4062 H   0  0  0  0  0  0  0  0  0  0  0  0
   -2.1994   -1.0519    6.9335 H   0  0  0  0  0  0  0  0  0  0  0  0
  1  2  2  0  0  0  0
  1 18  1  0  0  0  0
  1 24  1  0  0  0  0
  2 23  1  0  0  0  0
  2 25  1  0  0  0  0
  3 17  1  0  0  0  0
  3 18  2  0  0  0  0
  3 23  1  0  0  0  0
  4 16  1  0  0  0  0
  4 19  1  0  0  0  0
  4 21  2  0  0  0  0
  5  6  1  0  0  0  0
  5 10  1  0  0  0  0
  5 26  1  0  0  0  0
  5 27  1  0  0  0  0
  6 16  1  0  0  0  0
  6 28  1  0  0  0  0
  6 29  1  0  0  0  0
  7 11  1  0  0  0  0
  7 16  1  0  0  0  0
  7 30  1  0  0  0  0
  7 31  1  0  0  0  0
  8 13  1  0  0  0  0
  8 15  1  0  0  0  0
  8 32  1  0  0  0  0
  8 33  1  0  0  0  0
  9 14  1  0  0  0  0
  9 15  1  0  0  0  0
  9 34  1  0  0  0  0
  9 35  1  0  0  0  0
 10 19  1  0  0  0  0
 10 36  1  0  0  0  0
 10 37  1  0  0  0  0
 11 20  1  0  0  0  0
 11 38  1  0  0  0  0
 11 39  1  0  0  0  0
 12 16  1  0  0  0  0
 12 20  1  0  0  0  0
 12 40  1  0  0  0  0
 12 41  1  0  0  0  0
 13 22  1  0  0  0  0
 13 42  1  0  0  0  0
 13 43  1  0  0  0  0
 14 22  1  0  0  0  0
 14 44  1  0  0  0  0
 14 45  1  0  0  0  0
 15 19  1  0  0  0  0
 15 46  1  0  0  0  0
 17 20  1  0  0  0  0
 17 47  1  0  0  0  0
 17 48  1  0  0  0  0
M  END
$$$$
