
  -OEChem-05262117483D

 29 31  0     0  0  0  0  0  0999 V2000
    4.7601   -6.2917   -8.8810 C   0  0  0  0  0  0  0  0  0  0  0  0
    0.0437    1.3678   -5.3281 C   0  0  0  0  0  0  0  0  0  0  0  0
    0.8616    1.7503   -6.4064 C   0  0  0  0  0  0  0  0  0  0  0  0
    4.4646   -7.1645   -9.9332 C   0  0  0  0  0  0  0  0  0  0  0  0
    3.7743   -5.9701   -7.9485 C   0  0  0  0  0  0  0  0  0  0  0  0
   -0.1516    0.0220   -4.9914 C   0  0  0  0  0  0  0  0  0  0  0  0
    1.5217    0.7952   -7.1966 C   0  0  0  0  0  0  0  0  0  0  0  0
    3.1869   -7.7183  -10.0450 C   0  0  0  0  0  0  0  0  0  0  0  0
    2.4740   -6.5064   -8.0413 C   0  0  0  0  0  0  0  0  0  0  0  0
    0.4999   -0.9381   -5.7696 C   0  0  0  0  0  0  0  0  0  0  0  0
    1.3105   -0.5256   -6.8402 C   0  0  0  0  0  0  0  0  0  0  0  0
    2.2110   -7.3888   -9.1033 C   0  0  0  0  0  0  0  0  0  0  0  0
    1.2845   -2.6910   -6.6698 C   0  0  0  0  0  0  0  0  0  0  0  0
    1.4544   -6.1976   -7.0090 C   0  0  0  0  0  0  0  0  0  0  0  0
    0.5110   -2.3395   -5.6923 N   0  0  0  0  0  0  0  0  0  0  0  0
    1.1211   -5.0445   -6.5428 N   0  0  0  0  0  0  0  0  0  0  0  0
    1.7062   -3.9328   -7.0695 N   0  0  0  0  0  0  0  0  0  0  0  0
    1.8258   -1.6735   -7.4319 O   0  0  0  0  0  0  0  0  0  0  0  0
    0.4658   -8.1622   -9.3004 Br  0  0  0  0  0  0  0  0  0  0  0  0
    5.7563   -5.8701   -8.7819 H   0  0  0  0  0  0  0  0  0  0  0  0
   -0.4493    2.1383   -4.7415 H   0  0  0  0  0  0  0  0  0  0  0  0
    0.9868    2.8048   -6.6350 H   0  0  0  0  0  0  0  0  0  0  0  0
    5.2251   -7.4204  -10.6656 H   0  0  0  0  0  0  0  0  0  0  0  0
    4.0127   -5.3170   -7.1135 H   0  0  0  0  0  0  0  0  0  0  0  0
   -0.7835   -0.2720   -4.1588 H   0  0  0  0  0  0  0  0  0  0  0  0
    2.1553    1.0762   -8.0321 H   0  0  0  0  0  0  0  0  0  0  0  0
    2.9483   -8.3981  -10.8565 H   0  0  0  0  0  0  0  0  0  0  0  0
    0.9077   -7.0300   -6.5725 H   0  0  0  0  0  0  0  0  0  0  0  0
    2.2184   -3.9755   -7.9491 H   0  0  0  0  0  0  0  0  0  0  0  0
  1  4  1  0  0  0  0
  1  5  2  0  0  0  0
  1 20  1  0  0  0  0
  2  3  1  0  0  0  0
  2  6  2  0  0  0  0
  2 21  1  0  0  0  0
  3  7  2  0  0  0  0
  3 22  1  0  0  0  0
  4  8  2  0  0  0  0
  4 23  1  0  0  0  0
  5  9  1  0  0  0  0
  5 24  1  0  0  0  0
  6 10  1  0  0  0  0
  6 25  1  0  0  0  0
  7 11  1  0  0  0  0
  7 26  1  0  0  0  0
  8 12  1  0  0  0  0
  8 27  1  0  0  0  0
  9 12  2  0  0  0  0
  9 14  1  0  0  0  0
 10 11  2  0  0  0  0
 10 15  1  0  0  0  0
 11 18  1  0  0  0  0
 12 19  1  0  0  0  0
 13 15  2  0  0  0  0
 13 17  1  0  0  0  0
 13 18  1  0  0  0  0
 14 16  2  0  0  0  0
 14 28  1  0  0  0  0
 16 17  1  0  0  0  0
 17 29  1  0  0  0  0
M  END
$$$$
