
  -OEChem-05262117483D

 29 31  0     0  0  0  0  0  0999 V2000
   -1.1751   -4.7400  -10.6055 C   0  0  0  0  0  0  0  0  0  0  0  0
    2.1717    1.7207   -4.3683 C   0  0  0  0  0  0  0  0  0  0  0  0
    1.9639    0.9374   -3.2183 C   0  0  0  0  0  0  0  0  0  0  0  0
   -0.5205   -5.6842  -11.4029 C   0  0  0  0  0  0  0  0  0  0  0  0
   -0.8842   -4.6597   -9.2441 C   0  0  0  0  0  0  0  0  0  0  0  0
    1.9936    1.2016   -5.6570 C   0  0  0  0  0  0  0  0  0  0  0  0
    1.5668   -0.4061   -3.3119 C   0  0  0  0  0  0  0  0  0  0  0  0
    0.4172   -6.5502  -10.8348 C   0  0  0  0  0  0  0  0  0  0  0  0
    0.0640   -5.5137   -8.6451 C   0  0  0  0  0  0  0  0  0  0  0  0
    1.5969   -0.1343   -5.7631 C   0  0  0  0  0  0  0  0  0  0  0  0
    1.3961   -0.8916   -4.5969 C   0  0  0  0  0  0  0  0  0  0  0  0
    0.6967   -6.4596   -9.4707 C   0  0  0  0  0  0  0  0  0  0  0  0
    1.0146   -2.0902   -6.3528 C   0  0  0  0  0  0  0  0  0  0  0  0
    0.3239   -5.4533   -7.1871 C   0  0  0  0  0  0  0  0  0  0  0  0
    1.3433   -0.9446   -6.8788 N   0  0  0  0  0  0  0  0  0  0  0  0
    0.5529   -4.4127   -6.4625 N   0  0  0  0  0  0  0  0  0  0  0  0
    0.6256   -3.1936   -7.0654 N   0  0  0  0  0  0  0  0  0  0  0  0
    1.0124   -2.1696   -4.9903 O   0  0  0  0  0  0  0  0  0  0  0  0
    2.0019   -7.6591   -8.7338 Br  0  0  0  0  0  0  0  0  0  0  0  0
   -1.9143   -4.0733  -11.0403 H   0  0  0  0  0  0  0  0  0  0  0  0
    2.4797    2.7563   -4.2515 H   0  0  0  0  0  0  0  0  0  0  0  0
    2.1133    1.3785   -2.2370 H   0  0  0  0  0  0  0  0  0  0  0  0
   -0.7383   -5.7529  -12.4650 H   0  0  0  0  0  0  0  0  0  0  0  0
   -1.4152   -3.9461   -8.6202 H   0  0  0  0  0  0  0  0  0  0  0  0
    2.1567    1.8077   -6.5430 H   0  0  0  0  0  0  0  0  0  0  0  0
    1.4037   -1.0236   -2.4342 H   0  0  0  0  0  0  0  0  0  0  0  0
    0.9295   -7.2871  -11.4447 H   0  0  0  0  0  0  0  0  0  0  0  0
    0.3272   -6.3896   -6.6348 H   0  0  0  0  0  0  0  0  0  0  0  0
    0.7330   -3.1047   -8.0751 H   0  0  0  0  0  0  0  0  0  0  0  0
  1  4  1  0  0  0  0
  1  5  2  0  0  0  0
  1 20  1  0  0  0  0
  2  3  1  0  0  0  0
  2  6  2  0  0  0  0
  2 21  1  0  0  0  0
  3  7  2  0  0  0  0
  3 22  1  0  0  0  0
  4  8  2  0  0  0  0
  4 23  1  0  0  0  0
  5  9  1  0  0  0  0
  5 24  1  0  0  0  0
  6 10  1  0  0  0  0
  6 25  1  0  0  0  0
  7 11  1  0  0  0  0
  7 26  1  0  0  0  0
  8 12  1  0  0  0  0
  8 27  1  0  0  0  0
  9 12  2  0  0  0  0
  9 14  1  0  0  0  0
 10 11  2  0  0  0  0
 10 15  1  0  0  0  0
 11 18  1  0  0  0  0
 12 19  1  0  0  0  0
 13 15  2  0  0  0  0
 13 17  1  0  0  0  0
 13 18  1  0  0  0  0
 14 16  2  0  0  0  0
 14 28  1  0  0  0  0
 16 17  1  0  0  0  0
 17 29  1  0  0  0  0
M  END
$$$$
