
  -OEChem-05262117483D

 29 31  0     0  0  0  0  0  0999 V2000
   -3.1196   -1.4113   -7.8061 C   0  0  0  0  0  0  0  0  0  0  0  0
    1.6493    1.7052   -4.8351 C   0  0  0  0  0  0  0  0  0  0  0  0
    2.6009    1.7535   -5.8694 C   0  0  0  0  0  0  0  0  0  0  0  0
   -3.8800   -0.8829   -6.7573 C   0  0  0  0  0  0  0  0  0  0  0  0
   -2.2627   -2.4842   -7.5709 C   0  0  0  0  0  0  0  0  0  0  0  0
    0.8169    0.5933   -4.6508 C   0  0  0  0  0  0  0  0  0  0  0  0
    2.7605    0.6851   -6.7671 C   0  0  0  0  0  0  0  0  0  0  0  0
   -3.7872   -1.4351   -5.4776 C   0  0  0  0  0  0  0  0  0  0  0  0
   -2.1478   -3.0536   -6.2904 C   0  0  0  0  0  0  0  0  0  0  0  0
    0.9666   -0.4747   -5.5375 C   0  0  0  0  0  0  0  0  0  0  0  0
    1.9247   -0.3994   -6.5617 C   0  0  0  0  0  0  0  0  0  0  0  0
   -2.9314   -2.5144   -5.2601 C   0  0  0  0  0  0  0  0  0  0  0  0
    0.8547   -2.2904   -6.6394 C   0  0  0  0  0  0  0  0  0  0  0  0
   -1.2954   -4.2432   -6.0779 C   0  0  0  0  0  0  0  0  0  0  0  0
    0.3023   -1.7076   -5.6216 N   0  0  0  0  0  0  0  0  0  0  0  0
   -0.1167   -4.5146   -6.5163 N   0  0  0  0  0  0  0  0  0  0  0  0
    0.5876   -3.5171   -7.2090 N   0  0  0  0  0  0  0  0  0  0  0  0
    1.8523   -1.5853   -7.2847 O   0  0  0  0  0  0  0  0  0  0  0  0
   -2.7929   -3.2138   -3.4799 Br  0  0  0  0  0  0  0  0  0  0  0  0
   -3.1938   -0.9866   -8.8032 H   0  0  0  0  0  0  0  0  0  0  0  0
    1.5591    2.5533   -4.1618 H   0  0  0  0  0  0  0  0  0  0  0  0
    3.2271    2.6343   -5.9787 H   0  0  0  0  0  0  0  0  0  0  0  0
   -4.5456   -0.0416   -6.9302 H   0  0  0  0  0  0  0  0  0  0  0  0
   -1.6670   -2.8945   -8.3800 H   0  0  0  0  0  0  0  0  0  0  0  0
    0.0826    0.5545   -3.8519 H   0  0  0  0  0  0  0  0  0  0  0  0
    3.4914    0.7101   -7.5692 H   0  0  0  0  0  0  0  0  0  0  0  0
   -4.3686   -1.0294   -4.6560 H   0  0  0  0  0  0  0  0  0  0  0  0
   -1.7349   -5.0623   -5.5103 H   0  0  0  0  0  0  0  0  0  0  0  0
    1.4103   -3.9210   -7.6444 H   0  0  0  0  0  0  0  0  0  0  0  0
  1  4  1  0  0  0  0
  1  5  2  0  0  0  0
  1 20  1  0  0  0  0
  2  3  1  0  0  0  0
  2  6  2  0  0  0  0
  2 21  1  0  0  0  0
  3  7  2  0  0  0  0
  3 22  1  0  0  0  0
  4  8  2  0  0  0  0
  4 23  1  0  0  0  0
  5  9  1  0  0  0  0
  5 24  1  0  0  0  0
  6 10  1  0  0  0  0
  6 25  1  0  0  0  0
  7 11  1  0  0  0  0
  7 26  1  0  0  0  0
  8 12  1  0  0  0  0
  8 27  1  0  0  0  0
  9 12  2  0  0  0  0
  9 14  1  0  0  0  0
 10 11  2  0  0  0  0
 10 15  1  0  0  0  0
 11 18  1  0  0  0  0
 12 19  1  0  0  0  0
 13 15  2  0  0  0  0
 13 17  1  0  0  0  0
 13 18  1  0  0  0  0
 14 16  2  0  0  0  0
 14 28  1  0  0  0  0
 16 17  1  0  0  0  0
 17 29  1  0  0  0  0
M  END
$$$$
