
  -OEChem-05262117483D

 48 51  0     1  0  0  0  0  0999 V2000
   -1.1059   -5.1283    6.3199 C   0  0  0  0  0  0  0  0  0  0  0  0
   -0.3293   -5.8659    5.4664 C   0  0  0  0  0  0  0  0  0  0  0  0
   -2.2093   -4.6538    4.4494 C   0  0  0  0  0  0  0  0  0  0  0  0
    0.0647   -0.5708    1.9276 C   0  0  0  0  0  0  0  0  0  0  0  0
    1.4640   -2.6516    3.3684 C   0  0  0  0  0  0  0  0  0  0  0  0
    0.2529   -2.0184    4.0399 C   0  0  0  0  0  0  0  0  0  0  0  0
   -1.7766   -0.5386    3.6725 C   0  0  0  0  0  0  0  0  0  0  0  0
    1.8212   -0.1680   -0.6314 C   0  0  0  0  0  0  0  0  0  0  0  0
    2.0490    1.6341    1.1093 C   0  0  0  0  0  0  0  0  0  0  0  0
    2.2597   -1.5807    2.6378 C   0  0  0  0  0  0  0  0  0  0  0  0
   -2.7723   -1.5850    4.1783 C   0  0  0  0  0  0  0  0  0  0  0  0
   -1.5556   -2.4691    2.2930 C   0  0  0  0  0  0  0  0  0  0  0  0
    2.6847    0.7094   -1.5426 C   0  0  0  0  0  0  0  0  0  0  0  0
    2.9027    2.3991    0.0933 C   0  0  0  0  0  0  0  0  0  0  0  0
    2.1644    0.1274    0.8358 C   0  0  0  0  0  0  0  0  0  0  0  0
   -0.6816   -1.3916    2.9924 C   0  0  1  0  0  0  0  0  0  0  0  0
   -3.1708   -3.9532    3.5122 C   0  0  0  0  0  0  0  0  0  0  0  0
   -2.1582   -4.4517    5.7422 N   0  0  0  0  0  0  0  0  0  0  0  0
    1.4212   -0.7167    1.7956 N   0  0  0  0  0  0  0  0  0  0  0  0
   -2.7690   -2.6087    3.1201 N   0  0  1  0  0  0  0  0  0  0  0  0
   -0.5759    0.1858    1.1889 O   0  0  0  0  0  0  0  0  0  0  0  0
    2.5358    2.0973   -1.2511 O   0  0  0  0  0  0  0  0  0  0  0  0
   -0.9406   -5.7196    3.8527 S   0  0  0  0  0  0  0  0  0  0  0  0
   -0.9508   -5.0543    7.3910 H   0  0  0  0  0  0  0  0  0  0  0  0
    0.5305   -6.4810    5.6976 H   0  0  0  0  0  0  0  0  0  0  0  0
    2.1139   -3.1384    4.1031 H   0  0  0  0  0  0  0  0  0  0  0  0
    1.1450   -3.4256    2.6621 H   0  0  0  0  0  0  0  0  0  0  0  0
   -0.2883   -2.7529    4.6402 H   0  0  0  0  0  0  0  0  0  0  0  0
    0.5931   -1.2380    4.7337 H   0  0  0  0  0  0  0  0  0  0  0  0
   -2.2371    0.1076    2.9231 H   0  0  0  0  0  0  0  0  0  0  0  0
   -1.3780    0.0863    4.4773 H   0  0  0  0  0  0  0  0  0  0  0  0
    0.7646    0.0417   -0.8053 H   0  0  0  0  0  0  0  0  0  0  0  0
    2.0050   -1.2260   -0.8567 H   0  0  0  0  0  0  0  0  0  0  0  0
    2.3938    1.8622    2.1257 H   0  0  0  0  0  0  0  0  0  0  0  0
    1.0063    1.9434    1.0225 H   0  0  0  0  0  0  0  0  0  0  0  0
    2.8030   -0.9586    3.3653 H   0  0  0  0  0  0  0  0  0  0  0  0
    3.0128   -2.0492    1.9941 H   0  0  0  0  0  0  0  0  0  0  0  0
   -2.4599   -1.9933    5.1490 H   0  0  0  0  0  0  0  0  0  0  0  0
   -3.7797   -1.1701    4.3029 H   0  0  0  0  0  0  0  0  0  0  0  0
   -1.8259   -2.1301    1.2869 H   0  0  0  0  0  0  0  0  0  0  0  0
   -1.0168   -3.4173    2.1934 H   0  0  0  0  0  0  0  0  0  0  0  0
    3.7478    0.4262   -1.4473 H   0  0  0  0  0  0  0  0  0  0  0  0
    2.3960    0.5878   -2.5898 H   0  0  0  0  0  0  0  0  0  0  0  0
    2.7714    3.4782    0.2075 H   0  0  0  0  0  0  0  0  0  0  0  0
    3.9721    2.1684    0.2431 H   0  0  0  0  0  0  0  0  0  0  0  0
    3.2173   -0.1428    0.9830 H   0  0  0  0  0  0  0  0  0  0  0  0
   -3.3183   -4.5575    2.6112 H   0  0  0  0  0  0  0  0  0  0  0  0
   -4.1369   -3.8880    4.0220 H   0  0  0  0  0  0  0  0  0  0  0  0
  1  2  2  0  0  0  0
  1 18  1  0  0  0  0
  1 24  1  0  0  0  0
  2 23  1  0  0  0  0
  2 25  1  0  0  0  0
  3 17  1  0  0  0  0
  3 18  2  0  0  0  0
  3 23  1  0  0  0  0
  4 16  1  0  0  0  0
  4 19  1  0  0  0  0
  4 21  2  0  0  0  0
  5  6  1  0  0  0  0
  5 10  1  0  0  0  0
  5 26  1  0  0  0  0
  5 27  1  0  0  0  0
  6 16  1  0  0  0  0
  6 28  1  0  0  0  0
  6 29  1  0  0  0  0
  7 11  1  0  0  0  0
  7 16  1  0  0  0  0
  7 30  1  0  0  0  0
  7 31  1  0  0  0  0
  8 13  1  0  0  0  0
  8 15  1  0  0  0  0
  8 32  1  0  0  0  0
  8 33  1  0  0  0  0
  9 14  1  0  0  0  0
  9 15  1  0  0  0  0
  9 34  1  0  0  0  0
  9 35  1  0  0  0  0
 10 19  1  0  0  0  0
 10 36  1  0  0  0  0
 10 37  1  0  0  0  0
 11 20  1  0  0  0  0
 11 38  1  0  0  0  0
 11 39  1  0  0  0  0
 12 16  1  0  0  0  0
 12 20  1  0  0  0  0
 12 40  1  0  0  0  0
 12 41  1  0  0  0  0
 13 22  1  0  0  0  0
 13 42  1  0  0  0  0
 13 43  1  0  0  0  0
 14 22  1  0  0  0  0
 14 44  1  0  0  0  0
 14 45  1  0  0  0  0
 15 19  1  0  0  0  0
 15 46  1  0  0  0  0
 17 20  1  0  0  0  0
 17 47  1  0  0  0  0
 17 48  1  0  0  0  0
M  END
$$$$
