
  -OEChem-05262117483D

 48 51  0     1  0  0  0  0  0999 V2000
   -6.2995    0.6570    3.5555 C   0  0  0  0  0  0  0  0  0  0  0  0
   -5.6830    1.6260    2.8115 C   0  0  0  0  0  0  0  0  0  0  0  0
   -4.3321    0.6121    4.5670 C   0  0  0  0  0  0  0  0  0  0  0  0
    0.3960   -0.0472    2.5562 C   0  0  0  0  0  0  0  0  0  0  0  0
    2.0092   -2.1086    3.8051 C   0  0  0  0  0  0  0  0  0  0  0  0
    0.5280   -2.0476    4.1567 C   0  0  0  0  0  0  0  0  0  0  0  0
    0.3892    0.3522    5.0429 C   0  0  0  0  0  0  0  0  0  0  0  0
    0.8061   -0.2283   -0.4941 C   0  0  0  0  0  0  0  0  0  0  0  0
    2.3503    1.4180    0.6161 C   0  0  0  0  0  0  0  0  0  0  0  0
    2.2005   -1.7846    2.3311 C   0  0  0  0  0  0  0  0  0  0  0  0
   -0.8390    0.4172    5.9508 C   0  0  0  0  0  0  0  0  0  0  0  0
   -1.5870   -0.6484    4.0144 C   0  0  0  0  0  0  0  0  0  0  0  0
    1.3398    0.2905   -1.8330 C   0  0  0  0  0  0  0  0  0  0  0  0
    2.7895    1.8365   -0.7903 C   0  0  0  0  0  0  0  0  0  0  0  0
    1.8813   -0.0433    0.5872 C   0  0  0  0  0  0  0  0  0  0  0  0
   -0.0352   -0.6398    3.9104 C   0  0  1  0  0  0  0  0  0  0  0  0
   -3.2595    0.2609    5.5619 C   0  0  0  0  0  0  0  0  0  0  0  0
   -5.5265    0.0852    4.5460 N   0  0  0  0  0  0  0  0  0  0  0  0
    1.4928   -0.5662    1.9154 N   0  0  0  0  0  0  0  0  0  0  0  0
   -1.9343    0.3947    4.9869 N   0  0  1  0  0  0  0  0  0  0  0  0
   -0.2262    0.9135    2.0943 O   0  0  0  0  0  0  0  0  0  0  0  0
    1.7544    1.6523   -1.7539 O   0  0  0  0  0  0  0  0  0  0  0  0
   -4.0512    1.8488    3.3557 S   0  0  0  0  0  0  0  0  0  0  0  0
   -7.3194    0.3149    3.4143 H   0  0  0  0  0  0  0  0  0  0  0  0
   -6.0839    2.1906    1.9796 H   0  0  0  0  0  0  0  0  0  0  0  0
    2.5756   -1.3956    4.4145 H   0  0  0  0  0  0  0  0  0  0  0  0
    2.4226   -3.1030    4.0044 H   0  0  0  0  0  0  0  0  0  0  0  0
   -0.0188   -2.7752    3.5423 H   0  0  0  0  0  0  0  0  0  0  0  0
    0.3569   -2.3305    5.2018 H   0  0  0  0  0  0  0  0  0  0  0  0
    0.5753    1.3419    4.6208 H   0  0  0  0  0  0  0  0  0  0  0  0
    1.2884    0.0217    5.5694 H   0  0  0  0  0  0  0  0  0  0  0  0
   -0.0915    0.3257   -0.2145 H   0  0  0  0  0  0  0  0  0  0  0  0
    0.5420   -1.2890   -0.5902 H   0  0  0  0  0  0  0  0  0  0  0  0
    3.1896    1.5312    1.3135 H   0  0  0  0  0  0  0  0  0  0  0  0
    1.5331    2.0564    0.9551 H   0  0  0  0  0  0  0  0  0  0  0  0
    3.2657   -1.6453    2.1175 H   0  0  0  0  0  0  0  0  0  0  0  0
    1.8592   -2.6318    1.7164 H   0  0  0  0  0  0  0  0  0  0  0  0
   -0.8652   -0.4514    6.6384 H   0  0  0  0  0  0  0  0  0  0  0  0
   -0.8750    1.3274    6.5582 H   0  0  0  0  0  0  0  0  0  0  0  0
   -2.0680   -0.4524    3.0552 H   0  0  0  0  0  0  0  0  0  0  0  0
   -1.9184   -1.6402    4.3724 H   0  0  0  0  0  0  0  0  0  0  0  0
    2.1858   -0.3325   -2.1728 H   0  0  0  0  0  0  0  0  0  0  0  0
    0.5643    0.2547   -2.6025 H   0  0  0  0  0  0  0  0  0  0  0  0
    3.0438    2.8992   -0.8194 H   0  0  0  0  0  0  0  0  0  0  0  0
    3.6826    1.2640   -1.0967 H   0  0  0  0  0  0  0  0  0  0  0  0
    2.7437   -0.6519    0.2887 H   0  0  0  0  0  0  0  0  0  0  0  0
   -3.3333    0.9487    6.4134 H   0  0  0  0  0  0  0  0  0  0  0  0
   -3.4733   -0.7534    5.9438 H   0  0  0  0  0  0  0  0  0  0  0  0
  1  2  2  0  0  0  0
  1 18  1  0  0  0  0
  1 24  1  0  0  0  0
  2 23  1  0  0  0  0
  2 25  1  0  0  0  0
  3 17  1  0  0  0  0
  3 18  2  0  0  0  0
  3 23  1  0  0  0  0
  4 16  1  0  0  0  0
  4 19  1  0  0  0  0
  4 21  2  0  0  0  0
  5  6  1  0  0  0  0
  5 10  1  0  0  0  0
  5 26  1  0  0  0  0
  5 27  1  0  0  0  0
  6 16  1  0  0  0  0
  6 28  1  0  0  0  0
  6 29  1  0  0  0  0
  7 11  1  0  0  0  0
  7 16  1  0  0  0  0
  7 30  1  0  0  0  0
  7 31  1  0  0  0  0
  8 13  1  0  0  0  0
  8 15  1  0  0  0  0
  8 32  1  0  0  0  0
  8 33  1  0  0  0  0
  9 14  1  0  0  0  0
  9 15  1  0  0  0  0
  9 34  1  0  0  0  0
  9 35  1  0  0  0  0
 10 19  1  0  0  0  0
 10 36  1  0  0  0  0
 10 37  1  0  0  0  0
 11 20  1  0  0  0  0
 11 38  1  0  0  0  0
 11 39  1  0  0  0  0
 12 16  1  0  0  0  0
 12 20  1  0  0  0  0
 12 40  1  0  0  0  0
 12 41  1  0  0  0  0
 13 22  1  0  0  0  0
 13 42  1  0  0  0  0
 13 43  1  0  0  0  0
 14 22  1  0  0  0  0
 14 44  1  0  0  0  0
 14 45  1  0  0  0  0
 15 19  1  0  0  0  0
 15 46  1  0  0  0  0
 17 20  1  0  0  0  0
 17 47  1  0  0  0  0
 17 48  1  0  0  0  0
M  END
$$$$
