
  -OEChem-05262117483D

 17 17  0     1  0  0  0  0  0999 V2000
    1.8747   -1.0418   -0.1162 C   0  0  0  0  0  0  0  0  0  0  0  0
    2.8631   -1.7046    0.6221 C   0  0  0  0  0  0  0  0  0  0  0  0
    0.8325   -0.3785    0.5406 C   0  0  0  0  0  0  0  0  0  0  0  0
    2.8082   -1.7080    2.0190 C   0  0  0  0  0  0  0  0  0  0  0  0
    0.7665   -0.3805    1.9382 C   0  0  0  0  0  0  0  0  0  0  0  0
    1.7495   -1.0574    2.6581 C   0  0  0  0  0  0  0  0  0  0  0  0
    0.9815   -2.7205    4.6662 C   0  0  0  0  0  0  0  0  0  0  0  0
    0.5089   -0.0842    4.8387 O   0  0  0  0  0  0  0  0  0  0  0  0
    1.6509   -1.0174    4.4797 S   0  0  2  0  0  0  0  0  0  0  0  0
    1.9239   -1.0349   -1.2018 H   0  0  0  0  0  0  0  0  0  0  0  0
    3.6792   -2.2097    0.1122 H   0  0  0  0  0  0  0  0  0  0  0  0
    0.0729    0.1447   -0.0343 H   0  0  0  0  0  0  0  0  0  0  0  0
    3.5841   -2.2068    2.5966 H   0  0  0  0  0  0  0  0  0  0  0  0
   -0.0203    0.1370    2.4812 H   0  0  0  0  0  0  0  0  0  0  0  0
    0.8141   -2.8777    5.7343 H   0  0  0  0  0  0  0  0  0  0  0  0
    1.6982   -3.4500    4.2808 H   0  0  0  0  0  0  0  0  0  0  0  0
    0.0370   -2.7750    4.1204 H   0  0  0  0  0  0  0  0  0  0  0  0
  1  2  1  0  0  0  0
  1  3  2  0  0  0  0
  1 10  1  0  0  0  0
  2  4  2  0  0  0  0
  2 11  1  0  0  0  0
  3  5  1  0  0  0  0
  3 12  1  0  0  0  0
  4  6  1  0  0  0  0
  4 13  1  0  0  0  0
  5  6  2  0  0  0  0
  5 14  1  0  0  0  0
  6  9  1  0  0  0  0
  7  9  1  0  0  0  0
  7 15  1  0  0  0  0
  7 16  1  0  0  0  0
  7 17  1  0  0  0  0
  8  9  2  0  0  0  0
M  END
$$$$
