
  -OEChem-05262117483D

 18 18  0     0  0  0  0  0  0999 V2000
    1.8706   -1.0635   -0.1075 C   0  0  0  0  0  0  0  0  0  0  0  0
    2.9225   -1.6444    0.6104 C   0  0  0  0  0  0  0  0  0  0  0  0
    0.7942   -0.4686    0.5609 C   0  0  0  0  0  0  0  0  0  0  0  0
    2.9032   -1.6390    2.0065 C   0  0  0  0  0  0  0  0  0  0  0  0
    0.7591   -0.4543    1.9566 C   0  0  0  0  0  0  0  0  0  0  0  0
    1.8161   -1.0456    2.6548 C   0  0  0  0  0  0  0  0  0  0  0  0
    0.8757   -2.6533    4.8154 C   0  0  0  0  0  0  0  0  0  0  0  0
    3.1385   -1.2154    4.9591 O   0  0  0  0  0  0  0  0  0  0  0  0
    0.8889    0.0301    4.9066 O   0  0  0  0  0  0  0  0  0  0  0  0
    1.5621   -3.6892    4.3096 F   0  0  0  0  0  0  0  0  0  0  0  0
    0.7672   -2.7951    6.1377 F   0  0  0  0  0  0  0  0  0  0  0  0
   -0.3482   -2.6320    4.2662 F   0  0  0  0  0  0  0  0  0  0  0  0
    1.7833   -1.0295    4.4403 S   0  0  0  0  0  0  0  0  0  0  0  0
    1.8925   -1.0696   -1.1939 H   0  0  0  0  0  0  0  0  0  0  0  0
    3.7588   -2.0964    0.0849 H   0  0  0  0  0  0  0  0  0  0  0  0
   -0.0140   -0.0119   -0.0029 H   0  0  0  0  0  0  0  0  0  0  0  0
    3.7135   -2.0701    2.5857 H   0  0  0  0  0  0  0  0  0  0  0  0
   -0.0571    0.0134    2.4980 H   0  0  0  0  0  0  0  0  0  0  0  0
  1  2  1  0  0  0  0
  1  3  2  0  0  0  0
  1 14  1  0  0  0  0
  2  4  2  0  0  0  0
  2 15  1  0  0  0  0
  3  5  1  0  0  0  0
  3 16  1  0  0  0  0
  4  6  1  0  0  0  0
  4 17  1  0  0  0  0
  5  6  2  0  0  0  0
  5 18  1  0  0  0  0
  6 13  1  0  0  0  0
  7 10  1  0  0  0  0
  7 11  1  0  0  0  0
  7 12  1  0  0  0  0
  7 13  1  0  0  0  0
  8 13  2  0  0  0  0
  9 13  2  0  0  0  0
M  END
$$$$
