
  -OEChem-05262117483D

 27 28  0     0  0  0  0  0  0999 V2000
   -2.9009   -2.2292    2.6570 C   0  0  0  0  0  0  0  0  0  0  0  0
   -3.7734   -1.2720    2.1265 C   0  0  0  0  0  0  0  0  0  0  0  0
   -1.6762   -1.8368    3.2085 C   0  0  0  0  0  0  0  0  0  0  0  0
   -3.4202    0.0799    2.1331 C   0  0  0  0  0  0  0  0  0  0  0  0
   -1.3117   -0.4877    3.2209 C   0  0  0  0  0  0  0  0  0  0  0  0
   -2.1856    0.4563    2.6723 C   0  0  0  0  0  0  0  0  0  0  0  0
   -0.7032    2.3403   -1.2075 C   0  0  0  0  0  0  0  0  0  0  0  0
    0.3871    1.4215   -0.6289 C   0  0  0  0  0  0  0  0  0  0  0  0
   -1.7721    2.3304   -0.1123 C   0  0  0  0  0  0  0  0  0  0  0  0
    0.3789    1.7228    0.8830 C   0  0  0  0  0  0  0  0  0  0  0  0
   -0.9467    2.3548    1.1124 N   0  0  0  0  0  0  0  0  0  0  0  0
   -2.9012    2.9932    2.5487 O   0  0  0  0  0  0  0  0  0  0  0  0
   -0.6414    2.3804    3.6036 O   0  0  0  0  0  0  0  0  0  0  0  0
   -1.6838    2.1815    2.5957 S   0  0  0  0  0  0  0  0  0  0  0  0
   -3.1817   -3.2791    2.6534 H   0  0  0  0  0  0  0  0  0  0  0  0
   -4.7332   -1.5759    1.7177 H   0  0  0  0  0  0  0  0  0  0  0  0
   -1.0093   -2.5787    3.6394 H   0  0  0  0  0  0  0  0  0  0  0  0
   -4.0975    0.8392    1.7552 H   0  0  0  0  0  0  0  0  0  0  0  0
   -0.3812   -0.1602    3.6736 H   0  0  0  0  0  0  0  0  0  0  0  0
   -0.3199    3.3571   -1.3390 H   0  0  0  0  0  0  0  0  0  0  0  0
   -1.0922    1.9914   -2.1677 H   0  0  0  0  0  0  0  0  0  0  0  0
    0.1166    0.3744   -0.8003 H   0  0  0  0  0  0  0  0  0  0  0  0
    1.3704    1.5905   -1.0750 H   0  0  0  0  0  0  0  0  0  0  0  0
   -2.4368    3.1946   -0.1286 H   0  0  0  0  0  0  0  0  0  0  0  0
   -2.3782    1.4140   -0.1756 H   0  0  0  0  0  0  0  0  0  0  0  0
    0.5026    0.8098    1.4739 H   0  0  0  0  0  0  0  0  0  0  0  0
    1.1610    2.4254    1.1805 H   0  0  0  0  0  0  0  0  0  0  0  0
  1  2  1  0  0  0  0
  1  3  2  0  0  0  0
  1 15  1  0  0  0  0
  2  4  2  0  0  0  0
  2 16  1  0  0  0  0
  3  5  1  0  0  0  0
  3 17  1  0  0  0  0
  4  6  1  0  0  0  0
  4 18  1  0  0  0  0
  5  6  2  0  0  0  0
  5 19  1  0  0  0  0
  6 14  1  0  0  0  0
  7  8  1  0  0  0  0
  7  9  1  0  0  0  0
  7 20  1  0  0  0  0
  7 21  1  0  0  0  0
  8 10  1  0  0  0  0
  8 22  1  0  0  0  0
  8 23  1  0  0  0  0
  9 11  1  0  0  0  0
  9 24  1  0  0  0  0
  9 25  1  0  0  0  0
 10 11  1  0  0  0  0
 10 26  1  0  0  0  0
 10 27  1  0  0  0  0
 11 14  1  0  0  0  0
 12 14  2  0  0  0  0
 13 14  2  0  0  0  0
M  END
$$$$
