20
0 1 C7ClH9N2O
C                     1.374613482348     0.231445527533     1.316722516813
C                     1.295675466945     0.329056121743     2.697564171509
C                     0.218427863403    -0.468699616345     0.914307738420
C                    -0.548412802278    -0.789202959047     2.043133789593
C                    -1.834475542936    -1.502144380479     2.231215821805
C                    -0.224619501356    -0.347788195943     4.545816896043
C                    -3.722347421268    -2.680430159568     1.214836440621
N                     0.151970847061    -0.277550647649     3.132133106625
N                    -2.454565112644    -1.971813835773     1.112395770837
O                    -2.329527163061    -1.667614374139     3.355598102060
Cl                   -0.133755842497    -0.841194784040    -0.755764261688
H                     2.159301781898     0.612695170164     0.678316605106
H                     1.976922591942     0.789650336045     3.399976601606
H                    -1.183131888732     0.142603955340     4.714457396752
H                    -0.311550034721    -1.384413674953     4.870751626916
H                     0.557872755103     0.157190238309     5.116218937629
H                    -3.621349050430    -3.573400626170     1.839268909487
H                    -4.035408775519    -2.976722935784     0.211642075861
H                    -4.493213675576    -2.043074627581     1.659290167902
H                    -2.038444295237    -1.824274641472     0.203878188913
