
  -OEChem-05262117483D

 31 32  0     1  0  0  0  0  0999 V2000
    3.1777   -2.8770    3.7288 C   0  0  0  0  0  0  0  0  0  0  0  0
    4.1950   -1.9395    3.9211 C   0  0  0  0  0  0  0  0  0  0  0  0
    2.3796   -2.7926    2.5827 C   0  0  0  0  0  0  0  0  0  0  0  0
    4.4113   -0.9339    2.9741 C   0  0  0  0  0  0  0  0  0  0  0  0
    2.5735   -1.7945    1.6227 C   0  0  0  0  0  0  0  0  0  0  0  0
    3.6075   -0.8618    1.8304 C   0  0  0  0  0  0  0  0  0  0  0  0
   -0.8856    0.6915    1.8390 C   0  0  0  0  0  0  0  0  0  0  0  0
   -1.5270    1.3550    0.6126 C   0  0  0  0  0  0  0  0  0  0  0  0
   -0.2716   -0.6758    1.5269 C   0  0  0  0  0  0  0  0  0  0  0  0
   -0.5312    1.5168   -0.5400 C   0  0  0  0  0  0  0  0  0  0  0  0
    1.7054   -1.7065    0.3926 C   0  0  0  0  0  0  0  0  0  0  0  0
    0.7784   -0.5524    0.4919 N   0  0  1  0  0  0  0  0  0  0  0  0
   -1.0106   -0.9571   -1.3873 O   0  0  0  0  0  0  0  0  0  0  0  0
    1.2447    0.0602   -1.9524 O   0  0  0  0  0  0  0  0  0  0  0  0
    3.7909    0.0970    0.8684 O   0  0  0  0  0  0  0  0  0  0  0  0
    0.1280   -0.0966   -1.0162 S   0  0  0  0  0  0  0  0  0  0  0  0
    3.0080   -3.6636    4.4582 H   0  0  0  0  0  0  0  0  0  0  0  0
    4.8259   -1.9869    4.8048 H   0  0  0  0  0  0  0  0  0  0  0  0
    1.5870   -3.5206    2.4225 H   0  0  0  0  0  0  0  0  0  0  0  0
    5.2086   -0.2067    3.1219 H   0  0  0  0  0  0  0  0  0  0  0  0
   -0.0971    1.3396    2.2388 H   0  0  0  0  0  0  0  0  0  0  0  0
   -1.6393    0.5680    2.6242 H   0  0  0  0  0  0  0  0  0  0  0  0
   -2.3761    0.7592    0.2624 H   0  0  0  0  0  0  0  0  0  0  0  0
   -1.9126    2.3456    0.8773 H   0  0  0  0  0  0  0  0  0  0  0  0
    0.2191   -1.0645    2.4216 H   0  0  0  0  0  0  0  0  0  0  0  0
   -1.0428   -1.3981    1.2212 H   0  0  0  0  0  0  0  0  0  0  0  0
   -0.9997    1.9131   -1.4448 H   0  0  0  0  0  0  0  0  0  0  0  0
    0.3349    2.1276   -0.2762 H   0  0  0  0  0  0  0  0  0  0  0  0
    2.3238   -1.5400   -0.4912 H   0  0  0  0  0  0  0  0  0  0  0  0
    1.1521   -2.6459    0.2591 H   0  0  0  0  0  0  0  0  0  0  0  0
    4.5765    0.6222    1.0883 H   0  0  0  0  0  0  0  0  0  0  0  0
  1  2  1  0  0  0  0
  1  3  2  0  0  0  0
  1 17  1  0  0  0  0
  2  4  2  0  0  0  0
  2 18  1  0  0  0  0
  3  5  1  0  0  0  0
  3 19  1  0  0  0  0
  4  6  1  0  0  0  0
  4 20  1  0  0  0  0
  5  6  2  0  0  0  0
  5 11  1  0  0  0  0
  6 15  1  0  0  0  0
  7  8  1  0  0  0  0
  7  9  1  0  0  0  0
  7 21  1  0  0  0  0
  7 22  1  0  0  0  0
  8 10  1  0  0  0  0
  8 23  1  0  0  0  0
  8 24  1  0  0  0  0
  9 12  1  0  0  0  0
  9 25  1  0  0  0  0
  9 26  1  0  0  0  0
 10 16  1  0  0  0  0
 10 27  1  0  0  0  0
 10 28  1  0  0  0  0
 11 12  1  0  0  0  0
 11 29  1  0  0  0  0
 11 30  1  0  0  0  0
 12 16  1  0  0  0  0
 13 16  2  0  0  0  0
 14 16  2  0  0  0  0
 15 31  1  0  0  0  0
M  END
$$$$
