
  -OEChem-05262117483D

 31 32  0     0  0  0  0  0  0999 V2000
    1.5652   -1.3032   -0.0436 C   0  0  0  0  0  0  0  0  0  0  0  0
    0.7949    3.0404    5.9236 C   0  0  0  0  0  0  0  0  0  0  0  0
    0.7131   -2.1009    0.7235 C   0  0  0  0  0  0  0  0  0  0  0  0
    2.0232    2.4452    6.2200 C   0  0  0  0  0  0  0  0  0  0  0  0
    2.4890   -0.4600    0.5801 C   0  0  0  0  0  0  0  0  0  0  0  0
   -0.1668    2.3394    5.1908 C   0  0  0  0  0  0  0  0  0  0  0  0
    0.7879   -2.0378    2.1154 C   0  0  0  0  0  0  0  0  0  0  0  0
    2.2816    1.1508    5.7677 C   0  0  0  0  0  0  0  0  0  0  0  0
    2.5968   -0.3815    1.9766 C   0  0  0  0  0  0  0  0  0  0  0  0
    0.0572    1.0330    4.7311 C   0  0  0  0  0  0  0  0  0  0  0  0
    1.7134   -1.1863    2.7238 C   0  0  0  0  0  0  0  0  0  0  0  0
    1.3115    0.4653    5.0321 C   0  0  0  0  0  0  0  0  0  0  0  0
    3.6208    0.5389    2.5962 C   0  0  0  0  0  0  0  0  0  0  0  0
   -1.0220    0.3194    3.9526 C   0  0  0  0  0  0  0  0  0  0  0  0
    0.6717   -2.1279    4.9696 O   0  0  0  0  0  0  0  0  0  0  0  0
    3.1293   -1.4601    4.9730 O   0  0  0  0  0  0  0  0  0  0  0  0
    1.7448   -1.2190    4.5328 S   0  0  0  0  0  0  0  0  0  0  0  0
    1.5162   -1.3381   -1.1289 H   0  0  0  0  0  0  0  0  0  0  0  0
    0.5804    4.0496    6.2654 H   0  0  0  0  0  0  0  0  0  0  0  0
   -0.0030   -2.7646    0.2472 H   0  0  0  0  0  0  0  0  0  0  0  0
    2.7738    2.9798    6.7954 H   0  0  0  0  0  0  0  0  0  0  0  0
    3.1522    0.1499   -0.0284 H   0  0  0  0  0  0  0  0  0  0  0  0
   -1.1221    2.8109    4.9736 H   0  0  0  0  0  0  0  0  0  0  0  0
    0.1371   -2.6400    2.7409 H   0  0  0  0  0  0  0  0  0  0  0  0
    3.2274    0.6611    5.9756 H   0  0  0  0  0  0  0  0  0  0  0  0
    3.1396    1.3750    3.1137 H   0  0  0  0  0  0  0  0  0  0  0  0
    4.2333    0.0116    3.3307 H   0  0  0  0  0  0  0  0  0  0  0  0
    4.2728    0.9529    1.8235 H   0  0  0  0  0  0  0  0  0  0  0  0
   -0.7287    0.1795    2.9072 H   0  0  0  0  0  0  0  0  0  0  0  0
   -1.2217   -0.6701    4.3693 H   0  0  0  0  0  0  0  0  0  0  0  0
   -1.9459    0.9022    3.9670 H   0  0  0  0  0  0  0  0  0  0  0  0
  1  3  1  0  0  0  0
  1  5  2  0  0  0  0
  1 18  1  0  0  0  0
  2  4  1  0  0  0  0
  2  6  2  0  0  0  0
  2 19  1  0  0  0  0
  3  7  2  0  0  0  0
  3 20  1  0  0  0  0
  4  8  2  0  0  0  0
  4 21  1  0  0  0  0
  5  9  1  0  0  0  0
  5 22  1  0  0  0  0
  6 10  1  0  0  0  0
  6 23  1  0  0  0  0
  7 11  1  0  0  0  0
  7 24  1  0  0  0  0
  8 12  1  0  0  0  0
  8 25  1  0  0  0  0
  9 11  2  0  0  0  0
  9 13  1  0  0  0  0
 10 12  2  0  0  0  0
 10 14  1  0  0  0  0
 11 17  1  0  0  0  0
 12 17  1  0  0  0  0
 13 26  1  0  0  0  0
 13 27  1  0  0  0  0
 13 28  1  0  0  0  0
 14 29  1  0  0  0  0
 14 30  1  0  0  0  0
 14 31  1  0  0  0  0
 15 17  2  0  0  0  0
 16 17  2  0  0  0  0
M  END
$$$$
