25
0 1 C12H11NO
C                     2.059924471361    -0.200907567973     0.541165545749
C                     0.721410262384     0.149679858996     0.790247851200
C                     3.038577518003     0.165835358774     1.453606844396
C                     0.371876734164     0.865027745544     1.928787458086
C                     3.329700598004     1.922169620807     4.769008619075
C                     2.020090349905     2.251091342122     4.929914850885
C                     2.714504282337     0.885756669948     2.616794964827
C                     1.366729869057     1.249857499551     2.853194929870
C                     3.792532014799     1.228683844035     3.579130048997
C                    -1.037096515520     3.350489446436     3.443541417105
C                    -0.648732635637     3.680143469634     4.865484138752
C                    -0.331290239134     2.319078114527     4.294108453432
N                     1.042310842542     1.977206945316     4.004417602136
O                     4.979042705313     0.931415688384     3.378472586049
H                     2.320844068840    -0.758929805054    -0.353708212526
H                    -0.056252013754    -0.141192787889     0.088607194315
H                     4.083362189921    -0.091839847935     1.307904477111
H                    -0.665474453181     1.121919976360     2.102953960610
H                     4.051705433318     2.180057233956     5.535999507582
H                     1.669699279432     2.764918444854     5.818115113023
H                    -2.083667795536     3.180928431385     3.208561562608
H                    -0.455078494399     3.810006213602     2.651228647636
H                     0.170624005064     4.378052950925     5.003001134733
H                    -1.423733737791     3.732530357165     5.623609790242
H                    -0.929840534207     1.481966858727     4.650114898460
