
  -OEChem-05262117483D

 31 32  0     1  0  0  0  0  0999 V2000
   -1.7645    1.2343   -5.2662 C   0  0  0  0  0  0  0  0  0  0  0  0
   -2.8088    0.3305   -5.4758 C   0  0  0  0  0  0  0  0  0  0  0  0
   -0.8367    0.9796   -4.2503 C   0  0  0  0  0  0  0  0  0  0  0  0
   -2.9168   -0.8166   -4.6838 C   0  0  0  0  0  0  0  0  0  0  0  0
   -0.9262   -0.1571   -3.4417 C   0  0  0  0  0  0  0  0  0  0  0  0
   -1.9800   -1.0618   -3.6730 C   0  0  0  0  0  0  0  0  0  0  0  0
    0.2367    2.1571   -0.3809 C   0  0  0  0  0  0  0  0  0  0  0  0
    1.0112    1.6658    0.8535 C   0  0  0  0  0  0  0  0  0  0  0  0
   -0.9514    1.2456   -0.7239 C   0  0  0  0  0  0  0  0  0  0  0  0
    1.5405    0.2349    0.6873 C   0  0  0  0  0  0  0  0  0  0  0  0
    0.0610   -0.4152   -2.3311 C   0  0  0  0  0  0  0  0  0  0  0  0
   -0.5609   -0.1521   -1.0136 N   0  0  1  0  0  0  0  0  0  0  0  0
    0.7135   -2.1836   -0.1242 O   0  0  0  0  0  0  0  0  0  0  0  0
   -0.7763   -0.8087    1.4309 O   0  0  0  0  0  0  0  0  0  0  0  0
   -2.0272   -2.1776   -2.8830 O   0  0  0  0  0  0  0  0  0  0  0  0
    0.1688   -0.8968    0.3137 S   0  0  0  0  0  0  0  0  0  0  0  0
   -1.6732    2.1237   -5.8827 H   0  0  0  0  0  0  0  0  0  0  0  0
   -3.5415    0.5107   -6.2580 H   0  0  0  0  0  0  0  0  0  0  0  0
   -0.0201    1.6782   -4.0787 H   0  0  0  0  0  0  0  0  0  0  0  0
   -3.7271   -1.5240   -4.8542 H   0  0  0  0  0  0  0  0  0  0  0  0
   -0.1387    3.1697   -0.1966 H   0  0  0  0  0  0  0  0  0  0  0  0
    0.9151    2.2262   -1.2407 H   0  0  0  0  0  0  0  0  0  0  0  0
    1.8618    2.3267    1.0533 H   0  0  0  0  0  0  0  0  0  0  0  0
    0.3624    1.6991    1.7348 H   0  0  0  0  0  0  0  0  0  0  0  0
   -1.6630    1.2188    0.1049 H   0  0  0  0  0  0  0  0  0  0  0  0
   -1.4871    1.6136   -1.6016 H   0  0  0  0  0  0  0  0  0  0  0  0
    2.2470    0.1418   -0.1428 H   0  0  0  0  0  0  0  0  0  0  0  0
    2.0104   -0.1449    1.5984 H   0  0  0  0  0  0  0  0  0  0  0  0
    0.3660   -1.4617   -2.3305 H   0  0  0  0  0  0  0  0  0  0  0  0
    0.9562    0.2027   -2.4913 H   0  0  0  0  0  0  0  0  0  0  0  0
   -2.7922   -2.7196   -3.1327 H   0  0  0  0  0  0  0  0  0  0  0  0
  1  2  1  0  0  0  0
  1  3  2  0  0  0  0
  1 17  1  0  0  0  0
  2  4  2  0  0  0  0
  2 18  1  0  0  0  0
  3  5  1  0  0  0  0
  3 19  1  0  0  0  0
  4  6  1  0  0  0  0
  4 20  1  0  0  0  0
  5  6  2  0  0  0  0
  5 11  1  0  0  0  0
  6 15  1  0  0  0  0
  7  8  1  0  0  0  0
  7  9  1  0  0  0  0
  7 21  1  0  0  0  0
  7 22  1  0  0  0  0
  8 10  1  0  0  0  0
  8 23  1  0  0  0  0
  8 24  1  0  0  0  0
  9 12  1  0  0  0  0
  9 25  1  0  0  0  0
  9 26  1  0  0  0  0
 10 16  1  0  0  0  0
 10 27  1  0  0  0  0
 10 28  1  0  0  0  0
 11 12  1  0  0  0  0
 11 29  1  0  0  0  0
 11 30  1  0  0  0  0
 12 16  1  0  0  0  0
 13 16  2  0  0  0  0
 14 16  2  0  0  0  0
 15 31  1  0  0  0  0
M  END
$$$$
