33
0 1 C10H19NO2S
C                    -1.255881192533    -0.605682132760     0.196173622731
C                     1.551223190763     0.966363075262    -0.612216465875
C                     1.704967924503    -0.498499611827    -1.039328870751
C                     0.108366253311     1.463565340364    -0.448280530489
C                     1.103461682573    -1.506572884634    -0.051210854682
C                    -0.680108975944     0.728683125798     0.648242781585
C                    -4.952912596122     1.811379868165     5.657787943959
C                    -3.896694664268     1.038720152913     4.859897196889
C                    -3.552915525457     1.718215341503     3.527502710682
C                    -2.502450924657     0.936457223171     2.741489399023
N                    -0.358000538219    -1.591294653489    -0.087560158994
O                    -2.471349322574    -0.786969741258     0.081208180346
O                    -1.359695331183     3.121001848123     1.666637714096
S                    -2.074185537891     1.855120190578     1.201023999946
H                     2.083393750534     1.118814748612     0.336423612626
H                     2.052524605416     1.604456835916    -1.348873546098
H                     1.251383561958    -0.659281211820    -2.025002802495
H                     2.773905011622    -0.722902716746    -1.139696864528
H                     0.139258967982     2.521824298135    -0.169221669581
H                    -0.435133027438     1.389961039653    -1.397862787847
H                     1.471585671879    -2.509852875559    -0.279527135114
H                     1.438750575214    -1.276745020084     0.968570792001
H                    -0.041302450630     0.606085683301     1.531691990181
H                    -5.888043357237     1.899101315081     5.093042293453
H                    -5.180228975047     1.311414790013     6.605349606931
H                    -4.608352550500     2.825784476418     5.888099550565
H                    -2.983256374589     0.939762172981     5.460732452699
H                    -4.252986425773     0.018082334546     4.669189736615
H                    -4.463217445309     1.817473222035     2.922590080963
H                    -3.180519208065     2.731538375038     3.713862408660
H                    -1.572929431390     0.840428016846     3.313906584470
H                    -2.864223702622    -0.049156101907     2.440094386102
H                    -0.786572175711    -2.446317107925    -0.424115018152
