55
0 1 C19H28O6S2
C                     0.086182266206     0.878241363995    -3.076855308116
C                    -1.249087541417     1.009738445320    -2.654386523224
C                     1.018209371230     0.306434393957    -2.221996649902
C                    -1.644351553454     0.586847144176    -1.388117174580
C                     0.638781214769    -0.136993068208    -0.940703378152
C                    -0.698724117856     0.017963005085    -0.526412614293
C                     1.611456236423    -0.804539953974    -0.060377029487
C                    -0.123163910825    -0.517550785177     1.728748248749
C                     1.035007202182    -1.416304063295     1.230001818087
C                    -1.614677391022     4.003839565994     3.582589201046
C                     4.419485917821    -2.036067268249     4.586652305450
C                    -0.139389198494    -6.081888769578     1.005712486268
C                     0.302328529147     0.862653306232     2.241291472315
C                     2.165212267999    -1.523587932247     2.271139395377
C                     0.451170901706    -2.811658535288     0.862686385100
C                    -0.437112684675     3.097644849770     3.208143401484
C                    -0.884755890008     1.758230790822     2.611673460780
C                     1.747531340924    -2.211013820316     3.573138133106
C                     1.501104277379    -3.815653100659     0.392721728298
O                     2.797725135286    -0.933431207960    -0.350618838928
O                     2.585658156584    -0.161702733472     5.044408727582
O                     2.313253503304    -2.445875022699     6.164455781749
O                    -0.223307771595    -4.869008077967    -1.357525720495
O                     1.871741583264    -6.198721556629    -0.725127578827
O                    -1.133075360051    -0.393911652049     0.696778153332
S                     2.708310564717    -1.630886538785     5.004869130287
S                     0.764772016712    -5.302333261426    -0.355506446648
H                     0.381032436552     1.214801557259    -4.066236777109
H                    -1.985211586727     1.452949262335    -3.320044293974
H                     2.054138574742     0.174171238660    -2.519282532990
H                    -2.669567474376     0.691909204400    -1.046299235304
H                    -0.664143731249    -1.033988726555     2.527327682916
H                    -2.232702778016     4.232111744797     2.706435896239
H                    -1.268353925847     4.953675584991     4.003430781890
H                    -2.260164244152     3.524961278919     4.327917728300
H                     5.018448219687    -1.705508479023     5.437309566491
H                     4.508561693264    -3.116095502238     4.458606486143
H                     4.712484348938    -1.496331278859     3.685596709583
H                    -0.532616851956    -7.015385955353     0.598671645991
H                     0.550521367083    -6.291714926214     1.824957571121
H                    -0.959579579057    -5.435669095971     1.320224495174
H                     0.928289304131     0.722115988987     3.128667757910
H                     0.927325503094     1.368015473339     1.495004367003
H                     2.529906680970    -0.518458498722     2.489151066195
H                     3.004424960588    -2.052446879867     1.816526058329
H                    -0.301403664969    -2.695134957065     0.079591903808
H                    -0.072209304916    -3.200783943512     1.743516780349
H                     0.181855288642     2.911272515041     4.094820220642
H                     0.208700300370     3.615337523232     2.486689132724
H                    -1.524716799532     1.233185083598     3.334183416908
H                    -1.504809417455     1.938215141685     1.726651156505
H                     0.726350570862    -1.974000067918     3.883635819567
H                     1.845950353867    -3.299448669309     3.550818015163
H                     2.128382671868    -3.416910489310    -0.409557099081
H                     2.159444241695    -4.174727656945     1.187749711327
