40
0 1 C17H19N3O
C                    -1.187014991104    -0.292446520453     1.702078876229
C                    -2.163474883965     0.689879127159     1.501496937453
C                    -0.990322372532     1.514526629782    -0.441969478407
C                     1.503397323944    -0.945568956225    -5.704151075007
C                     3.140157713892     0.500650426141    -4.774677260608
C                     2.665866001498    -0.181346717592    -5.911264838599
C                    -0.103116534917    -0.365215758359     0.825669290899
C                    -0.012145924053     0.542481175547    -0.235936733897
C                    -2.081325720703     1.604329674632     0.436175898135
C                     1.436804811778    -0.327376492109    -3.511500069034
C                     3.378400279275    -0.065578301708    -7.206035047381
C                     1.062588479330    -1.329649315925     0.803861532915
C                     1.210126520025     0.251702092484    -1.084211602093
C                     2.079898185801    -0.640265837308    -0.140410267089
C                    -3.129801292538     2.680005113848     0.262919209988
C                     2.830046157458    -0.826481054032    -8.402275597557
C                     3.044950219231    -1.590473174663    -0.843204683755
N                     0.881265849884    -1.029390160719    -4.533872472089
N                     2.554894397108     0.438211843951    -3.584874087698
N                     0.795064617967    -0.409551278132    -2.322944256770
O                     4.386944869057     0.628773769909    -7.312702107377
H                    -1.278382775925    -0.988548025470     2.533083067177
H                    -3.008036843764     0.750342597744     2.185114898065
H                    -0.908898769436     2.204253052273    -1.280372916162
H                     1.052692315146    -1.514066340860    -6.516595835821
H                     4.035296156025     1.113998839112    -4.856858169210
H                     1.483739634134    -1.518142370660     1.796769454715
H                     0.751564404422    -2.303519060967     0.400649448510
H                     1.756432434989     1.148403306047    -1.379379543355
H                     2.659416860622     0.064951210838     0.468132682341
H                    -2.876862878044     3.572798607716     0.847755787687
H                    -3.217229405942     2.988217516775    -0.783165089408
H                    -4.113498583355     2.337624585113     0.598266968303
H                     1.808142536619    -0.506897543033    -8.634701679878
H                     2.799556839867    -1.903261240635    -8.202420049754
H                     3.471033289764    -0.637790817285    -9.264221113395
H                     2.506018515700    -2.308966453508    -1.469671897205
H                     3.626407804644    -2.158506915393    -0.108815678224
H                     3.743026576556    -1.043681004051    -1.483517162743
H                    -0.037531465033    -0.986052198198    -2.318644633724
