37
-2 1 C16H16O4S
C                     4.687770249170    -4.555946607297     0.058441897221
C                     6.196569197117    -3.606562426261     1.705892460591
C                     2.342458899396    -1.326333644984     0.259259303981
C                     3.809967345536    -0.318537623993     1.909598957958
C                     4.895920506872    -5.828023644078     0.574783459554
C                     6.428256738556    -4.865032253165     2.245346700158
C                     1.231020134961    -0.781230703281     0.888262085911
C                     2.720241060728     0.242974621462     2.561996643205
C                     5.787479133967    -6.047058891791     1.699144503928
C                     1.367519724253     0.040825032242     2.076811129999
C                     5.335298112343    -3.435047477278     0.607990827095
C                     3.639574797292    -1.099474850884     0.753003300759
C                     4.217282087937    -7.040779428700    -0.011649809834
C                     7.361536966966    -5.066040941610     3.413042140399
C                    -0.165178760983    -1.006365083480     0.363622474571
C                     2.888804486776     1.095757666735     3.794606077250
O                     6.000903023581    -7.215223500546     2.177304988575
O                     0.354175735300     0.562316663608     2.659849288363
O                     4.682399079314    -1.990717606811    -1.492935024813
O                     6.227739936203    -0.979074388122     0.284953508736
S                     5.045229957696    -1.816325965843    -0.059398469698
H                     4.029584846934    -4.412275767199    -0.796548912417
H                     6.697430849634    -2.732065901216     2.116994894713
H                     2.223527390236    -1.925711165748    -0.641551658554
H                     4.819616471034    -0.144304588017     2.276839411826
H                     4.954334664623    -7.777660303256    -0.359172475237
H                     3.613332370237    -7.558181070572     0.745771443287
H                     3.568368902328    -6.765694995566    -0.852411308866
H                     6.838984155373    -5.533142326361     4.258577484634
H                     8.179049324545    -5.752190687085     3.152452897669
H                     7.791655204234    -4.113511209523     3.746669903442
H                    -0.798911752164    -1.482562050795     1.123741483695
H                    -0.655525334233    -0.053529767429     0.121414133460
H                    -0.155909296078    -1.637731557132    -0.533561459736
H                     2.477424054698     2.102442087494     3.638400119136
H                     2.332569715060     0.675255478987     4.643103575590
H                     3.945758609964     1.184891958594     4.074845929399
