
  -OEChem-05262117483D

 33 33  0     1  0  0  0  0  0999 V2000
   -1.2559   -0.6057    0.1962 C   0  0  0  0  0  0  0  0  0  0  0  0
    1.5512    0.9664   -0.6122 C   0  0  0  0  0  0  0  0  0  0  0  0
    1.7050   -0.4985   -1.0393 C   0  0  0  0  0  0  0  0  0  0  0  0
    0.1084    1.4636   -0.4483 C   0  0  0  0  0  0  0  0  0  0  0  0
    1.1035   -1.5066   -0.0512 C   0  0  0  0  0  0  0  0  0  0  0  0
   -0.6801    0.7287    0.6482 C   0  0  1  0  0  0  0  0  0  0  0  0
   -4.9529    1.8114    5.6578 C   0  0  0  0  0  0  0  0  0  0  0  0
   -3.8967    1.0387    4.8599 C   0  0  0  0  0  0  0  0  0  0  0  0
   -3.5529    1.7182    3.5275 C   0  0  0  0  0  0  0  0  0  0  0  0
   -2.5025    0.9365    2.7415 C   0  0  0  0  0  0  0  0  0  0  0  0
   -0.3580   -1.5913   -0.0876 N   0  0  0  0  0  0  0  0  0  0  0  0
   -2.4713   -0.7870    0.0812 O   0  0  0  0  0  0  0  0  0  0  0  0
   -1.3597    3.1210    1.6666 O   0  0  0  0  0  0  0  0  0  0  0  0
   -2.0742    1.8551    1.2010 S   0  0  1  0  0  0  0  0  0  0  0  0
    2.0834    1.1188    0.3364 H   0  0  0  0  0  0  0  0  0  0  0  0
    2.0525    1.6045   -1.3489 H   0  0  0  0  0  0  0  0  0  0  0  0
    1.2514   -0.6593   -2.0250 H   0  0  0  0  0  0  0  0  0  0  0  0
    2.7739   -0.7229   -1.1397 H   0  0  0  0  0  0  0  0  0  0  0  0
    0.1393    2.5218   -0.1692 H   0  0  0  0  0  0  0  0  0  0  0  0
   -0.4351    1.3900   -1.3979 H   0  0  0  0  0  0  0  0  0  0  0  0
    1.4716   -2.5099   -0.2795 H   0  0  0  0  0  0  0  0  0  0  0  0
    1.4388   -1.2767    0.9686 H   0  0  0  0  0  0  0  0  0  0  0  0
   -0.0413    0.6061    1.5317 H   0  0  0  0  0  0  0  0  0  0  0  0
   -5.8880    1.8991    5.0930 H   0  0  0  0  0  0  0  0  0  0  0  0
   -5.1802    1.3114    6.6053 H   0  0  0  0  0  0  0  0  0  0  0  0
   -4.6084    2.8258    5.8881 H   0  0  0  0  0  0  0  0  0  0  0  0
   -2.9833    0.9398    5.4607 H   0  0  0  0  0  0  0  0  0  0  0  0
   -4.2530    0.0181    4.6692 H   0  0  0  0  0  0  0  0  0  0  0  0
   -4.4632    1.8175    2.9226 H   0  0  0  0  0  0  0  0  0  0  0  0
   -3.1805    2.7315    3.7139 H   0  0  0  0  0  0  0  0  0  0  0  0
   -1.5729    0.8404    3.3139 H   0  0  0  0  0  0  0  0  0  0  0  0
   -2.8642   -0.0492    2.4401 H   0  0  0  0  0  0  0  0  0  0  0  0
   -0.7866   -2.4463   -0.4241 H   0  0  0  0  0  0  0  0  0  0  0  0
  1  6  1  0  0  0  0
  1 11  1  0  0  0  0
  1 12  2  0  0  0  0
  2  3  1  0  0  0  0
  2  4  1  0  0  0  0
  2 15  1  0  0  0  0
  2 16  1  0  0  0  0
  3  5  1  0  0  0  0
  3 17  1  0  0  0  0
  3 18  1  0  0  0  0
  4  6  1  0  0  0  0
  4 19  1  0  0  0  0
  4 20  1  0  0  0  0
  5 11  1  0  0  0  0
  5 21  1  0  0  0  0
  5 22  1  0  0  0  0
  6 14  1  0  0  0  0
  6 23  1  0  0  0  0
  7  8  1  0  0  0  0
  7 24  1  0  0  0  0
  7 25  1  0  0  0  0
  7 26  1  0  0  0  0
  8  9  1  0  0  0  0
  8 27  1  0  0  0  0
  8 28  1  0  0  0  0
  9 10  1  0  0  0  0
  9 29  1  0  0  0  0
  9 30  1  0  0  0  0
 10 14  1  0  0  0  0
 10 31  1  0  0  0  0
 10 32  1  0  0  0  0
 11 33  1  0  0  0  0
 13 14  2  0  0  0  0
M  END
$$$$
