35
0 1 C14ClH17O3
C                    -2.151665924085     1.767734220847     1.511719143592
C                    -2.822515743496     3.984004506566     0.805479846785
C                    -1.745760237717     1.460980912952     0.204710679917
C                    -2.695334361621     3.016513998090     1.809560022446
C                    -1.847825461562     2.430145505284    -0.808374382626
C                    -2.391732177013     3.684951584353    -0.483552361207
C                    -1.218135632983     0.069425695201    -0.031658000169
C                    -1.767880929937    -3.213051329609    -2.847628467165
C                    -2.989014558198    -2.673699242411    -2.090098595130
C                    -0.814109774572    -2.078038858170    -3.245073154987
C                    -2.570972076085    -1.841994531962    -0.870416108367
C                    -0.395792458983    -1.240761509519    -2.029420982403
C                    -1.626924266211    -0.688925459865    -1.284930491931
C                    -0.056002289736     2.542597202458    -2.341830459124
O                    -0.547363427994    -0.470873767374     0.841177622823
O                    -3.126071503387     3.362546532218     3.065414724367
O                    -1.420537311643     2.166187393429    -2.088867363806
Cl                   -2.530264849274     4.909616126386    -1.727972231536
H                    -2.033585384797     1.006316494428     2.279202976546
H                    -3.247486472948     4.953860421299     1.041238544301
H                    -2.088703165409    -3.767448305915    -3.737379715957
H                    -1.232458031153    -3.926740081557    -2.206611722103
H                    -3.590147952448    -2.050380045977    -2.766117486328
H                    -3.633611155339    -3.500558700482    -1.769246524647
H                     0.076459158845    -2.485411810064    -3.738108033136
H                    -1.310141489101    -1.427983115461    -3.978885531986
H                    -3.457266400663    -1.435565256496    -0.367929410846
H                    -2.050882690242    -2.476386840906    -0.143386142759
H                     0.189496274183    -1.851867026050    -1.332736847986
H                     0.247777174529    -0.413110730430    -2.347759699266
H                    -2.170174780754    -0.018768439258    -1.954076725856
H                     0.153686413120     2.250780773309    -3.372207022039
H                     0.622613898464     2.015387710787    -1.661041141207
H                     0.077090398464     3.624028581571    -2.230577734633
H                    -2.974904778140     2.618408627230     3.669906869875
