
  -OEChem-05262117483D

 40 42  0     1  0  0  0  0  0999 V2000
   -1.1870   -0.2924    1.7021 C   0  0  0  0  0  0  0  0  0  0  0  0
   -2.1635    0.6899    1.5015 C   0  0  0  0  0  0  0  0  0  0  0  0
   -0.9903    1.5145   -0.4420 C   0  0  0  0  0  0  0  0  0  0  0  0
    1.5034   -0.9456   -5.7042 C   0  0  0  0  0  0  0  0  0  0  0  0
    3.1402    0.5007   -4.7747 C   0  0  0  0  0  0  0  0  0  0  0  0
    2.6659   -0.1813   -5.9113 C   0  0  0  0  0  0  0  0  0  0  0  0
   -0.1031   -0.3652    0.8257 C   0  0  0  0  0  0  0  0  0  0  0  0
   -0.0121    0.5425   -0.2359 C   0  0  0  0  0  0  0  0  0  0  0  0
   -2.0813    1.6043    0.4362 C   0  0  0  0  0  0  0  0  0  0  0  0
    1.4368   -0.3274   -3.5115 C   0  0  0  0  0  0  0  0  0  0  0  0
    3.3784   -0.0656   -7.2060 C   0  0  0  0  0  0  0  0  0  0  0  0
    1.0626   -1.3296    0.8039 C   0  0  0  0  0  0  0  0  0  0  0  0
    1.2101    0.2517   -1.0842 C   0  0  1  0  0  0  0  0  0  0  0  0
    2.0799   -0.6403   -0.1404 C   0  0  2  0  0  0  0  0  0  0  0  0
   -3.1298    2.6800    0.2629 C   0  0  0  0  0  0  0  0  0  0  0  0
    2.8300   -0.8265   -8.4023 C   0  0  0  0  0  0  0  0  0  0  0  0
    3.0450   -1.5905   -0.8432 C   0  0  0  0  0  0  0  0  0  0  0  0
    0.8813   -1.0294   -4.5339 N   0  0  0  0  0  0  0  0  0  0  0  0
    2.5549    0.4382   -3.5849 N   0  0  0  0  0  0  0  0  0  0  0  0
    0.7951   -0.4096   -2.3229 N   0  0  0  0  0  0  0  0  0  0  0  0
    4.3869    0.6288   -7.3127 O   0  0  0  0  0  0  0  0  0  0  0  0
   -1.2784   -0.9885    2.5331 H   0  0  0  0  0  0  0  0  0  0  0  0
   -3.0080    0.7503    2.1851 H   0  0  0  0  0  0  0  0  0  0  0  0
   -0.9089    2.2043   -1.2804 H   0  0  0  0  0  0  0  0  0  0  0  0
    1.0527   -1.5141   -6.5166 H   0  0  0  0  0  0  0  0  0  0  0  0
    4.0353    1.1140   -4.8569 H   0  0  0  0  0  0  0  0  0  0  0  0
    1.4837   -1.5181    1.7968 H   0  0  0  0  0  0  0  0  0  0  0  0
    0.7516   -2.3035    0.4006 H   0  0  0  0  0  0  0  0  0  0  0  0
    1.7564    1.1484   -1.3794 H   0  0  0  0  0  0  0  0  0  0  0  0
    2.6594    0.0650    0.4681 H   0  0  0  0  0  0  0  0  0  0  0  0
   -2.8769    3.5728    0.8478 H   0  0  0  0  0  0  0  0  0  0  0  0
   -3.2172    2.9882   -0.7832 H   0  0  0  0  0  0  0  0  0  0  0  0
   -4.1135    2.3376    0.5983 H   0  0  0  0  0  0  0  0  0  0  0  0
    1.8081   -0.5069   -8.6347 H   0  0  0  0  0  0  0  0  0  0  0  0
    2.7996   -1.9033   -8.2024 H   0  0  0  0  0  0  0  0  0  0  0  0
    3.4710   -0.6378   -9.2642 H   0  0  0  0  0  0  0  0  0  0  0  0
    2.5060   -2.3090   -1.4697 H   0  0  0  0  0  0  0  0  0  0  0  0
    3.6264   -2.1585   -0.1088 H   0  0  0  0  0  0  0  0  0  0  0  0
    3.7430   -1.0437   -1.4835 H   0  0  0  0  0  0  0  0  0  0  0  0
   -0.0375   -0.9861   -2.3186 H   0  0  0  0  0  0  0  0  0  0  0  0
  1  2  1  0  0  0  0
  1  7  2  0  0  0  0
  1 22  1  0  0  0  0
  2  9  2  0  0  0  0
  2 23  1  0  0  0  0
  3  8  2  0  0  0  0
  3  9  1  0  0  0  0
  3 24  1  0  0  0  0
  4  6  1  0  0  0  0
  4 18  2  0  0  0  0
  4 25  1  0  0  0  0
  5  6  2  0  0  0  0
  5 19  1  0  0  0  0
  5 26  1  0  0  0  0
  6 11  1  0  0  0  0
  7  8  1  0  0  0  0
  7 12  1  0  0  0  0
  8 13  1  0  0  0  0
  9 15  1  0  0  0  0
 10 18  1  0  0  0  0
 10 19  2  0  0  0  0
 10 20  1  0  0  0  0
 11 16  1  0  0  0  0
 11 21  2  0  0  0  0
 12 14  1  0  0  0  0
 12 27  1  0  0  0  0
 12 28  1  0  0  0  0
 13 14  1  0  0  0  0
 13 20  1  0  0  0  0
 13 29  1  0  0  0  0
 14 17  1  0  0  0  0
 14 30  1  0  0  0  0
 15 31  1  0  0  0  0
 15 32  1  0  0  0  0
 15 33  1  0  0  0  0
 16 34  1  0  0  0  0
 16 35  1  0  0  0  0
 16 36  1  0  0  0  0
 17 37  1  0  0  0  0
 17 38  1  0  0  0  0
 17 39  1  0  0  0  0
 20 40  1  0  0  0  0
M  END
$$$$
