20
0 1 C4H10NO3PS
C                    -1.281498767137    -1.912531837980     1.017176655445
C                    -1.715908224116    -1.534321910958     2.413654269025
C                     0.199564066411     2.592146535950    -1.107794463863
C                     2.398435090112    -0.168775012264     0.963411748122
N                    -0.705682311333    -0.894165470454     0.238633188124
O                    -1.398452402387    -3.031349380648     0.542565335890
O                    -1.602578341487     1.477985842696     1.216962547651
O                     0.036770836294     1.174696126648    -0.849932081883
P                    -0.466058651640     0.736847991485     0.623985197704
S                     1.208413853858     0.877537521263     1.893993273302
H                    -2.443103478226    -0.718578783299     2.383675586275
H                    -0.860461935777    -1.181899101627     2.999287374845
H                    -2.148629621669    -2.413759035530     2.889481214468
H                     0.500313652472     2.672767440719    -2.151927020120
H                     0.977664257858     3.006336412174    -0.459931187007
H                    -0.745350281729     3.113031640273    -0.940590197730
H                     3.330662811509    -0.153555478802     1.531674066949
H                     2.575720811830     0.236974143484    -0.033899600126
H                     2.035690695163    -1.195666895621     0.892684874953
H                    -0.465052077209    -1.188678808923    -0.705429449295
