63
0 1 C28F3H29O3
C                     4.732352566610     1.250041452132     1.172599642958
C                     3.334611822903     0.850239428007     3.098021163560
C                     5.647587846844     0.295889940064     1.625625718254
C                     4.236897538822    -0.105921634518     3.555623076530
C                     2.403426453608     5.128268387385     4.138475594237
C                     0.662474097773     3.271789872991     2.955117455789
C                     0.233599008900     4.039469358636     4.076835561626
C                     3.571360330516     1.537770172541     1.898231226036
C                     5.397008604900    -0.382043821205     2.819152086766
C                     2.853462884043     4.356574558128     3.072328556919
C                     1.977324015190     3.412341054679     2.467919460483
C                     1.116065117367     4.979555636783     4.646557890960
C                    -1.327220106772     2.822050094009     1.504519804060
C                    -0.349789126104     2.390989937182     2.308691514197
C                    -1.109895434976     3.904353340203     4.702293856390
C                    -2.270564343794     1.710168567002     1.109550638981
C                    -0.477189312172     0.906683929972     2.593271344446
C                    -1.506999507302     5.096175922142     5.558085612779
C                    -1.494454948764     0.435095238894     1.527120184837
C                    -0.853318964201     5.346726752562     8.588115135503
C                    -0.102553802580     4.397898032968     7.610996290013
C                    -0.663845878564     6.500214398541     7.561123078900
C                    -0.351411546390     5.443218507395     6.484451156662
C                     5.282301411577     4.082857360154     3.720148769334
C                     4.574488553417     6.035546604531     2.250760003103
C                     2.569175709958     2.551900121946     1.350151942987
C                     4.302318987113     4.569612841600     2.635450292456
C                     6.366551654190    -1.403573091502     3.349615669025
O                    -1.835758649502     2.922049134851     4.613294007293
O                     0.801896189922     5.790675623617     5.701185703505
O                     1.564696868063     1.871082376629     0.594869729987
F                     7.410176856505    -1.613176898457     2.512645433660
F                     6.887870413945    -1.027615046349     4.548519684522
F                     5.769653392159    -2.607359428238     3.553569699616
H                     4.936049078403     1.788427753880     0.248889044642
H                     2.449642208803     1.079652242997     3.682343328092
H                     6.548811519977     0.086789454721     1.058920879085
H                     4.046916157307    -0.631961771556     4.487001468504
H                     3.052833425056     5.852581102100     4.619052175026
H                    -1.467942001028     3.858859885441     1.208206723314
H                    -3.216845953552     1.806455853053     1.661758282163
H                    -2.522292249542     1.716299989880     0.042265500235
H                     0.477395474321     0.378316889611     2.514247861631
H                    -0.857780113299     0.769802020728     3.612800282552
H                    -1.721077258860     5.959276060319     4.914300302511
H                    -2.407247330032     4.842290846661     6.121320218927
H                    -2.149968376510    -0.360988928930     1.892289354434
H                    -0.949753996530     0.046862806629     0.660250918475
H                    -0.408895622276     5.489871611679     9.575332116243
H                    -1.902750124243     5.067702140002     8.712997940911
H                     0.964388318206     4.333696359316     7.839727334251
H                    -0.504430476543     3.392737404446     7.458838585187
H                    -1.506782507603     7.169432674652     7.366720363580
H                     0.229271387088     7.093868084589     7.773376470858
H                     5.174547146418     4.664413346069     4.641510439972
H                     6.315701042186     4.189263191819     3.372655325097
H                     5.111491310763     3.030376435428     3.963146664010
H                     4.476073096545     6.708256915763     3.108183054080
H                     3.878840674981     6.376145277179     1.477044843905
H                     5.594562507008     6.139495365864     1.865094207313
H                     3.108343400066     3.214326567311     0.661238278482
H                     4.506648220221     3.975768794634     1.745876942459
H                     2.020120872846     1.207074638632     0.052094405996
