62
0 1 C26H30N2O4
C                     0.945135253167     4.926320800981     0.128516792316
C                    -1.691895998541     1.571070971610    -1.889738138184
C                     2.178956772904     5.394320326460    -0.326475133983
C                    -2.440995723061     0.898074782974    -0.916497971144
C                     2.033913977386     2.879322493719     0.830535228812
C                    -0.576153816859    -0.609262371139    -0.513893112297
C                     0.868312904126     3.650944323124     0.703928152381
C                    -0.392436861622     1.157510519928    -2.171214391718
C                     0.150795835524     0.056819238806    -1.493539726195
C                     3.354816110437     4.638541522982    -0.216780026736
C                     3.278850187087     3.358760840787     0.401194866169
C                    -1.871258523847    -0.169195586436    -0.210141451002
C                    -1.980265277379     1.948666873147     2.060632367591
C                    -2.538803583952     3.111503228319     1.610710763319
C                    -0.394602170100     3.109058932324     1.190823003230
C                     1.720091586929     3.795628310035    -4.086124113953
C                     1.554987281180    -0.215878181766    -1.987561810889
C                     1.951905945686     1.127650335830    -2.640368200864
C                     0.617371726137     1.737016092321    -3.144367614942
C                     4.647372268229     5.179130212654    -0.782639457684
C                    -3.919322223587     3.658934565624     1.561580474676
C                     4.276714213305     1.141924758794     0.701093477066
C                     5.435980204545     3.099582072286     1.495579270417
C                    -2.653535278180     0.755419783200     2.672070874173
C                     0.602158214712     3.275377271138    -3.197464409577
C                    -3.395805282866    -0.147488329788     1.671680899916
N                    -0.612906110783     1.972457876189     1.793775396516
N                     4.459106050597     2.579520976257     0.532347267918
O                     1.692672396761     3.750867696917    -5.296429548792
O                    -1.529582779780     3.864068544975     1.044483215536
O                     2.814259917538     4.297580152273    -3.445181247321
O                    -2.524744170981    -0.860463073508     0.791269978150
H                     0.052086473629     5.533062716941     0.022341750707
H                    -2.135276332184     2.418241849142    -2.408059347170
H                     2.232146909107     6.371607333884    -0.801273496514
H                    -3.450366601891     1.229040287220    -0.699015096529
H                     1.941711367890     1.901161925848     1.286822279292
H                    -0.157994587670    -1.435729454893     0.054196244959
H                     2.238354427669    -0.530028238752    -1.192721913316
H                     1.541333292037    -1.021778491596    -2.733676669019
H                     2.374156990031     1.784967035465    -1.871929192461
H                     2.694984750114     1.023747528246    -3.435345324671
H                     0.414638877795     1.368127838828    -4.158808466542
H                     5.205437024699     5.760330411563    -0.038873172684
H                     5.293630063762     4.365681189914    -1.122171277325
H                     4.451986315193     5.844508101577    -1.628074120664
H                    -3.964684770490     4.670068445956     1.980169311092
H                    -4.293797149063     3.708124413162     0.531650230404
H                    -4.592778373055     3.019464505005     2.137269277061
H                     5.243978207477     0.649885585776     0.560224556214
H                     3.588639151801     0.760549764666    -0.054582539031
H                     3.897153524411     0.859593143216     1.697945430702
H                     6.395465722353     2.593829128976     1.347789224951
H                     5.109920961515     2.934000903785     2.536277604163
H                     5.591743421254     4.168408026899     1.357385440908
H                    -1.900986551228     0.158066862693     3.193994419979
H                    -3.388751223645     1.080190056379     3.419061499419
H                    -0.340436008866     3.618574394394    -3.632628700805
H                     0.670209880119     3.673582100855    -2.181629070192
H                    -3.926534665547    -0.930234009213     2.220170528141
H                    -4.143147366449     0.427198380297     1.112393463625
H                     2.677191981338     4.266389484374    -2.479603015947
