63
0 1 C28F3H29O3
C                     2.313372943892     3.122921025696    -1.705405077796
C                     4.319931332919     2.927805185876    -0.380805535948
C                     2.821161827727     2.196920540004    -2.618747485856
C                     4.836650203894     2.008031226790    -1.291268833683
C                     4.562456079667     5.083255690119     3.562648041588
C                     2.545633938799     3.347583210486     2.681715742683
C                     3.083131450378     3.192933075706     3.991454887767
C                     3.048103401018     3.488955775749    -0.571332107576
C                     4.082599936608     1.634811689578    -2.409964543882
C                     4.073512921421     5.213205420237     2.265837600654
C                     3.030687845633     4.354169204284     1.827501082551
C                     4.076462941493     4.099393153134     4.421660672112
C                     1.546109597914     1.418498979237     1.381364968623
C                     1.446634405469     2.450089924474     2.233918218693
C                     2.754302573204     2.048219119087     4.876768837478
C                     0.235031507485     0.687125320705     1.219637781873
C                     0.021596923200     2.596631228142     2.756806068254
C                     3.588941539535     1.961807745607     6.147740042058
C                    -0.795003609127     1.682074929895     1.810637660085
C                     3.692910912320     4.668587966874     8.393256830355
C                     4.661674774627     3.512597175102     8.011500923888
C                     2.747701479092     4.216800404381     7.243786311460
C                     3.905392432574     3.342800199934     6.676208446313
C                     6.112374208300     6.654431195395     1.661914585236
C                     3.766236008552     7.580604362195     1.474005646890
C                     2.472713456754     4.512854955600     0.408785484623
C                     4.641901861771     6.313966891424     1.372768860552
C                     4.659363053398     0.634602445214    -3.372742978010
O                     1.914732220323     1.188571047276     4.630057642813
O                     4.640825213693     4.068211153157     5.663389395861
O                     1.048836031475     4.574475323987     0.347310915142
F                     3.794833702827     0.303140599203    -4.360832333841
F                     5.787885759028     1.101696992994    -3.973974217127
F                     5.013922209338    -0.521890101806    -2.749426702635
H                     1.331591110532     3.557931892576    -1.861123473195
H                     4.900168233509     3.186859735318     0.499141821290
H                     2.236721926557     1.910897527082    -3.487239204254
H                     5.817304217740     1.570684074276    -1.125375561755
H                     5.336712433690     5.739121163588     3.943669439504
H                     2.470314405411     1.086679938609     0.918598238451
H                     0.019781067477     0.417137594374     0.179423571190
H                     0.265061335213    -0.249641021334     1.793330739490
H                    -0.019448807690     2.245732417427     3.792086341752
H                    -0.319687330276     3.637569046327     2.745783275205
H                     3.043666461777     1.362828256066     6.880009936281
H                     4.525748099042     1.438874153968     5.911132417293
H                    -1.230356853661     2.279504623431     1.000567698423
H                    -1.621907539251     1.182318157060     2.321933401295
H                     4.129847460361     5.652631164959     8.209082554882
H                     3.278674023993     4.648771439233     9.403981566744
H                     5.723478124313     3.749526089810     7.910954428054
H                     4.546428915946     2.633045298453     8.651287829362
H                     1.916054575963     3.600187984040     7.597639566168
H                     2.358782116599     4.985224939787     6.571427945407
H                     6.239094973164     7.161930391750     2.623330340421
H                     6.489700668677     7.331340030367     0.888673891617
H                     6.740882320666     5.758186349550     1.664185723864
H                     3.801107484959     7.982227412105     2.492516717923
H                     2.718575845881     7.373865361905     1.236578649424
H                     4.128200507420     8.354819477439     0.788787300932
H                     2.766566403231     5.493110520174     0.036490457041
H                     4.615520784996     5.962594498856     0.337023048695
H                     0.723327444959     3.692764647739     0.598843480415
