
  -OEChem-05262117483D

 50 53  0     1  0  0  0  0  0999 V2000
    3.1608    3.5851   -7.1296 C   0  0  0  0  0  0  0  0  0  0  0  0
    4.5159    3.4534   -6.7523 C   0  0  0  0  0  0  0  0  0  0  0  0
    2.1299    3.3143   -6.2332 C   0  0  0  0  0  0  0  0  0  0  0  0
    2.5816   -1.0891    0.5831 C   0  0  0  0  0  0  0  0  0  0  0  0
    4.8788    3.0476   -5.4669 C   0  0  0  0  0  0  0  0  0  0  0  0
    2.8910   -2.4424    0.6906 C   0  0  0  0  0  0  0  0  0  0  0  0
    1.7444    2.5352   -3.7434 C   0  0  0  0  0  0  0  0  0  0  0  0
    2.4718    2.9007   -4.9325 C   0  0  0  0  0  0  0  0  0  0  0  0
    1.2516   -0.6631    0.4544 C   0  0  0  0  0  0  0  0  0  0  0  0
    0.1814   -1.5789    0.4272 C   0  0  0  0  0  0  0  0  0  0  0  0
    3.8344    2.7832   -4.5852 C   0  0  0  0  0  0  0  0  0  0  0  0
    0.5045   -2.9464    0.5564 C   0  0  0  0  0  0  0  0  0  0  0  0
    1.8377   -3.3384    0.6758 C   0  0  0  0  0  0  0  0  0  0  0  0
    2.6832    2.2321   -2.7949 C   0  0  0  0  0  0  0  0  0  0  0  0
    2.5639    1.8411   -1.3688 C   0  0  0  0  0  0  0  0  0  0  0  0
   -1.4056    0.3778    0.0394 C   0  0  0  0  0  0  0  0  0  0  0  0
    1.0475    0.8360    0.3049 C   0  0  2  0  0  0  0  0  0  0  0  0
   -1.2854   -1.1404    0.3206 C   0  0  0  0  0  0  0  0  0  0  0  0
   -0.3660    1.2545    0.7386 C   0  0  1  0  0  0  0  0  0  0  0  0
   -2.0238   -1.4973    1.6344 C   0  0  0  0  0  0  0  0  0  0  0  0
   -1.9951   -1.8413   -0.8632 C   0  0  0  0  0  0  0  0  0  0  0  0
   -0.6414    2.7469    0.4248 C   0  0  0  0  0  0  0  0  0  0  0  0
    1.3450    1.2826   -1.0534 N   0  0  0  0  0  0  0  0  0  0  0  0
    3.4603    2.0331   -0.5524 O   0  0  0  0  0  0  0  0  0  0  0  0
    3.9622    2.3802   -3.2821 O   0  0  0  0  0  0  0  0  0  0  0  0
   -0.4761   -3.9082    0.5803 O   0  0  0  0  0  0  0  0  0  0  0  0
   -0.3684    1.1193    2.1541 O   0  0  0  0  0  0  0  0  0  0  0  0
    2.0698   -4.6849    0.7949 F   0  0  0  0  0  0  0  0  0  0  0  0
   -1.7475    3.1542    1.1147 F   0  0  0  0  0  0  0  0  0  0  0  0
    0.3737    3.5472    0.7909 F   0  0  0  0  0  0  0  0  0  0  0  0
   -0.9047    2.9843   -0.8844 F   0  0  0  0  0  0  0  0  0  0  0  0
    2.9234    3.9053   -8.1403 H   0  0  0  0  0  0  0  0  0  0  0  0
    5.2932    3.6751   -7.4782 H   0  0  0  0  0  0  0  0  0  0  0  0
    1.0903    3.4192   -6.5316 H   0  0  0  0  0  0  0  0  0  0  0  0
    3.3743   -0.3473    0.5942 H   0  0  0  0  0  0  0  0  0  0  0  0
    5.9159    2.9463   -5.1629 H   0  0  0  0  0  0  0  0  0  0  0  0
    3.9106   -2.8001    0.7930 H   0  0  0  0  0  0  0  0  0  0  0  0
    0.6718    2.5462   -3.5984 H   0  0  0  0  0  0  0  0  0  0  0  0
   -1.3165    0.5519   -1.0377 H   0  0  0  0  0  0  0  0  0  0  0  0
   -2.4159    0.7054    0.3082 H   0  0  0  0  0  0  0  0  0  0  0  0
    1.7576    1.3548    0.9487 H   0  0  0  0  0  0  0  0  0  0  0  0
   -3.0577   -1.1347    1.5936 H   0  0  0  0  0  0  0  0  0  0  0  0
   -1.5265   -1.0504    2.4977 H   0  0  0  0  0  0  0  0  0  0  0  0
   -2.0523   -2.5784    1.7790 H   0  0  0  0  0  0  0  0  0  0  0  0
   -3.0035   -1.4283   -0.9829 H   0  0  0  0  0  0  0  0  0  0  0  0
   -2.0825   -2.9154   -0.7052 H   0  0  0  0  0  0  0  0  0  0  0  0
   -1.4492   -1.6753   -1.7987 H   0  0  0  0  0  0  0  0  0  0  0  0
    0.8139    0.8755   -1.8125 H   0  0  0  0  0  0  0  0  0  0  0  0
   -0.0430   -4.7729    0.6877 H   0  0  0  0  0  0  0  0  0  0  0  0
   -1.2628    1.3118    2.4809 H   0  0  0  0  0  0  0  0  0  0  0  0
  1  2  1  0  0  0  0
  1  3  2  0  0  0  0
  1 32  1  0  0  0  0
  2  5  2  0  0  0  0
  2 33  1  0  0  0  0
  3  8  1  0  0  0  0
  3 34  1  0  0  0  0
  4  6  2  0  0  0  0
  4  9  1  0  0  0  0
  4 35  1  0  0  0  0
  5 11  1  0  0  0  0
  5 36  1  0  0  0  0
  6 13  1  0  0  0  0
  6 37  1  0  0  0  0
  7  8  1  0  0  0  0
  7 14  2  0  0  0  0
  7 38  1  0  0  0  0
  8 11  2  0  0  0  0
  9 10  2  0  0  0  0
  9 17  1  0  0  0  0
 10 12  1  0  0  0  0
 10 18  1  0  0  0  0
 11 25  1  0  0  0  0
 12 13  2  0  0  0  0
 12 26  1  0  0  0  0
 13 28  1  0  0  0  0
 14 15  1  0  0  0  0
 14 25  1  0  0  0  0
 15 23  1  0  0  0  0
 15 24  2  0  0  0  0
 16 18  1  0  0  0  0
 16 19  1  0  0  0  0
 16 39  1  0  0  0  0
 16 40  1  0  0  0  0
 17 19  1  0  0  0  0
 17 23  1  0  0  0  0
 17 41  1  0  0  0  0
 18 20  1  0  0  0  0
 18 21  1  0  0  0  0
 19 22  1  0  0  0  0
 19 27  1  0  0  0  0
 20 42  1  0  0  0  0
 20 43  1  0  0  0  0
 20 44  1  0  0  0  0
 21 45  1  0  0  0  0
 21 46  1  0  0  0  0
 21 47  1  0  0  0  0
 22 29  1  0  0  0  0
 22 30  1  0  0  0  0
 22 31  1  0  0  0  0
 23 48  1  0  0  0  0
 26 49  1  0  0  0  0
 27 50  1  0  0  0  0
M  END
$$$$
