
  -OEChem-05262117483D

 63 67  0     1  0  0  0  0  0999 V2000
   -0.8091    6.0420    1.3595 C   0  0  0  0  0  0  0  0  0  0  0  0
    0.2424    6.4099   -0.7827 C   0  0  0  0  0  0  0  0  0  0  0  0
   -1.6845    7.1019    1.1207 C   0  0  0  0  0  0  0  0  0  0  0  0
   -0.6238    7.4754   -1.0237 C   0  0  0  0  0  0  0  0  0  0  0  0
    2.7553    5.4595    3.9883 C   0  0  0  0  0  0  0  0  0  0  0  0
    1.2617    3.3455    2.9219 C   0  0  0  0  0  0  0  0  0  0  0  0
    1.6529    3.3055    4.2878 C   0  0  0  0  0  0  0  0  0  0  0  0
    0.1643    5.6889    0.4162 C   0  0  0  0  0  0  0  0  0  0  0  0
   -1.5885    7.8239   -0.0713 C   0  0  0  0  0  0  0  0  0  0  0  0
    2.3677    5.5131    2.6529 C   0  0  0  0  0  0  0  0  0  0  0  0
    1.5906    4.4510    2.1184 C   0  0  0  0  0  0  0  0  0  0  0  0
    2.3987    4.3864    4.8056 C   0  0  0  0  0  0  0  0  0  0  0  0
    1.0242    1.2141    1.5967 C   0  0  0  0  0  0  0  0  0  0  0  0
    0.5095    2.2021    2.3415 C   0  0  0  0  0  0  0  0  0  0  0  0
    1.3689    2.1551    5.1767 C   0  0  0  0  0  0  0  0  0  0  0  0
   -0.0342    0.2380    1.1323 C   0  0  0  0  0  0  0  0  0  0  0  0
   -0.9975    2.0686    2.4700 C   0  0  0  0  0  0  0  0  0  0  0  0
    2.1312    2.1788    6.4923 C   0  0  0  0  0  0  0  0  0  0  0  0
   -1.2597    0.6177    2.0041 C   0  0  0  0  0  0  0  0  0  0  0  0
    1.3094    3.7901    9.0211 C   0  0  0  0  0  0  0  0  0  0  0  0
    2.7606    3.7302    8.4628 C   0  0  0  0  0  0  0  0  0  0  0  0
    0.8051    4.1080    7.5846 C   0  0  0  0  0  0  0  0  0  0  0  0
    2.1719    3.5933    7.0460 C   0  0  0  0  0  0  0  0  0  0  0  0
    4.3367    6.8192    1.7631 C   0  0  0  0  0  0  0  0  0  0  0  0
    2.1724    8.0194    2.3540 C   0  0  0  0  0  0  0  0  0  0  0  0
    1.0742    4.5029    0.6857 C   0  0  2  0  0  0  0  0  0  0  0  0
    2.8016    6.7173    1.8264 C   0  0  0  0  0  0  0  0  0  0  0  0
   -2.5016    8.9841   -0.3534 C   0  0  0  0  0  0  0  0  0  0  0  0
    0.5931    1.2425    4.9118 O   0  0  0  0  0  0  0  0  0  0  0  0
    2.8258    4.4575    6.0995 O   0  0  0  0  0  0  0  0  0  0  0  0
    2.1364    4.5036   -0.2840 O   0  0  0  0  0  0  0  0  0  0  0  0
   -3.4155    9.1787    0.6276 F   0  0  0  0  0  0  0  0  0  0  0  0
   -1.8124   10.1506   -0.4890 F   0  0  0  0  0  0  0  0  0  0  0  0
   -3.1928    8.8165   -1.5131 F   0  0  0  0  0  0  0  0  0  0  0  0
   -0.8749    5.4959    2.2961 H   0  0  0  0  0  0  0  0  0  0  0  0
    0.9941    6.1387   -1.5153 H   0  0  0  0  0  0  0  0  0  0  0  0
   -2.4313    7.3697    1.8609 H   0  0  0  0  0  0  0  0  0  0  0  0
   -0.5506    8.0352   -1.9520 H   0  0  0  0  0  0  0  0  0  0  0  0
    3.3366    6.2603    4.4345 H   0  0  0  0  0  0  0  0  0  0  0  0
    2.0790    1.1147    1.3490 H   0  0  0  0  0  0  0  0  0  0  0  0
   -0.2363    0.3679    0.0587 H   0  0  0  0  0  0  0  0  0  0  0  0
    0.2669   -0.8067    1.2697 H   0  0  0  0  0  0  0  0  0  0  0  0
   -1.3409    2.2507    3.4917 H   0  0  0  0  0  0  0  0  0  0  0  0
   -1.4925    2.8079    1.8217 H   0  0  0  0  0  0  0  0  0  0  0  0
    1.6527    1.4873    7.1891 H   0  0  0  0  0  0  0  0  0  0  0  0
    3.1581    1.8332    6.3131 H   0  0  0  0  0  0  0  0  0  0  0  0
   -2.2098    0.5068    1.4736 H   0  0  0  0  0  0  0  0  0  0  0  0
   -1.2861   -0.0302    2.8843 H   0  0  0  0  0  0  0  0  0  0  0  0
    1.1091    4.5389    9.7901 H   0  0  0  0  0  0  0  0  0  0  0  0
    0.9596    2.8181    9.3784 H   0  0  0  0  0  0  0  0  0  0  0  0
    3.2776    4.6880    8.5638 H   0  0  0  0  0  0  0  0  0  0  0  0
    3.4175    2.9254    8.8046 H   0  0  0  0  0  0  0  0  0  0  0  0
   -0.0967    3.6001    7.2320 H   0  0  0  0  0  0  0  0  0  0  0  0
    0.7082    5.1829    7.4119 H   0  0  0  0  0  0  0  0  0  0  0  0
    4.7760    7.0035    2.7491 H   0  0  0  0  0  0  0  0  0  0  0  0
    4.6300    7.6460    1.1073 H   0  0  0  0  0  0  0  0  0  0  0  0
    4.7728    5.8978    1.3647 H   0  0  0  0  0  0  0  0  0  0  0  0
    2.5042    8.2446    3.3733 H   0  0  0  0  0  0  0  0  0  0  0  0
    1.0807    7.9551    2.3579 H   0  0  0  0  0  0  0  0  0  0  0  0
    2.4595    8.8608    1.7144 H   0  0  0  0  0  0  0  0  0  0  0  0
    0.4685    3.6076    0.5211 H   0  0  0  0  0  0  0  0  0  0  0  0
    2.4607    6.5767    0.8040 H   0  0  0  0  0  0  0  0  0  0  0  0
    2.6436    3.6891   -0.1403 H   0  0  0  0  0  0  0  0  0  0  0  0
  1  3  1  0  0  0  0
  1  8  2  0  0  0  0
  1 35  1  0  0  0  0
  2  4  2  0  0  0  0
  2  8  1  0  0  0  0
  2 36  1  0  0  0  0
  3  9  2  0  0  0  0
  3 37  1  0  0  0  0
  4  9  1  0  0  0  0
  4 38  1  0  0  0  0
  5 10  1  0  0  0  0
  5 12  2  0  0  0  0
  5 39  1  0  0  0  0
  6  7  2  0  0  0  0
  6 11  1  0  0  0  0
  6 14  1  0  0  0  0
  7 12  1  0  0  0  0
  7 15  1  0  0  0  0
  8 26  1  0  0  0  0
  9 28  1  0  0  0  0
 10 11  2  0  0  0  0
 10 27  1  0  0  0  0
 11 26  1  0  0  0  0
 12 30  1  0  0  0  0
 13 14  2  0  0  0  0
 13 16  1  0  0  0  0
 13 40  1  0  0  0  0
 14 17  1  0  0  0  0
 15 18  1  0  0  0  0
 15 29  2  0  0  0  0
 16 19  1  0  0  0  0
 16 41  1  0  0  0  0
 16 42  1  0  0  0  0
 17 19  1  0  0  0  0
 17 43  1  0  0  0  0
 17 44  1  0  0  0  0
 18 23  1  0  0  0  0
 18 45  1  0  0  0  0
 18 46  1  0  0  0  0
 19 47  1  0  0  0  0
 19 48  1  0  0  0  0
 20 21  1  0  0  0  0
 20 22  1  0  0  0  0
 20 49  1  0  0  0  0
 20 50  1  0  0  0  0
 21 23  1  0  0  0  0
 21 51  1  0  0  0  0
 21 52  1  0  0  0  0
 22 23  1  0  0  0  0
 22 53  1  0  0  0  0
 22 54  1  0  0  0  0
 23 30  1  0  0  0  0
 24 27  1  0  0  0  0
 24 55  1  0  0  0  0
 24 56  1  0  0  0  0
 24 57  1  0  0  0  0
 25 27  1  0  0  0  0
 25 58  1  0  0  0  0
 25 59  1  0  0  0  0
 25 60  1  0  0  0  0
 26 31  1  0  0  0  0
 26 61  1  0  0  0  0
 27 62  1  0  0  0  0
 28 32  1  0  0  0  0
 28 33  1  0  0  0  0
 28 34  1  0  0  0  0
 31 63  1  0  0  0  0
M  END
$$$$
