41
1 1 C15H22N3O
C                     6.764858657443    -2.401988679127    -3.737561853461
C                     7.072334107019     1.114467044525    -4.531740358897
C                     5.733435032749    -2.811206776703    -4.576570606444
C                     8.059568968657     0.909666092267    -3.619244549706
C                     6.397075759892    -0.157351912531    -4.675841271898
C                     7.072580312008    -1.042904214240    -3.819909172421
C                     5.328453289791    -0.685406817713    -5.444812484405
C                     2.129255062834    -3.122158793550    -2.973581993866
C                     1.604402161327    -2.561951462055    -1.643804828727
C                     1.941534019440    -1.975086870906    -3.972180105295
C                     2.123161327956    -1.129435335230    -1.663914382958
C                     3.827073014746    -0.540149112747    -7.363498235295
C                     2.645698359485     0.967590078460    -4.901583099909
C                     3.914739199686     1.304069508698    -5.724246092740
C                     2.981699212437     0.328538739893    -3.547403695007
N                     5.020843408037    -1.987820769049    -5.381925842580
N                     4.572039595371     0.130264733436    -6.297423139619
N                     1.953170636886    -0.689141792801    -3.114874600452
O                     8.076461247157    -0.394351514730    -3.165286434589
H                     7.308525279902    -3.093347697981    -3.103429301735
H                     6.886196748138     2.039448784710    -5.059352919558
H                     5.449473567237    -3.860909637492    -4.612756500833
H                     8.823485649784     1.551773767900    -3.203815234619
H                     3.191239486377    -3.370133245344    -2.890808671376
H                     1.599022884476    -4.018849084896    -3.299163569795
H                     0.509821151870    -2.579020115319    -1.609855443610
H                     1.974835284185    -3.105918011573    -0.772790591359
H                     2.745597306458    -1.914600973791    -4.706427053203
H                     0.977197528850    -2.013733037150    -4.480250807745
H                     1.599897011144    -0.423060701352    -1.017837301442
H                     3.193180508386    -1.089336085408    -1.450404316835
H                     3.508743309771     0.215185033705    -8.087229103793
H                     2.942750600250    -1.092475243999    -7.016420036415
H                     4.479903138318    -1.255096973073    -7.864363142251
H                     2.020738078686     0.295987954267    -5.497879237650
H                     2.060891156414     1.880330849074    -4.743340545090
H                     3.631006640360     1.970372716892    -6.543350638709
H                     4.619725775281     1.855902848965    -5.099532572565
H                     3.927092227823    -0.210863825520    -3.566353292791
H                     3.038058141155     1.079082742483    -2.755130576786
H                     1.032281574415    -0.251775372944    -3.198402355016
