40
0 1 C15H21N3O
C                     2.810165027863    -2.718726121625     0.586297270845
C                     4.121507230638     0.564299162526     1.346113072011
C                     2.829675717535    -3.346356789383     1.826952510996
C                     3.943790398831     0.599851589460    -0.000418182291
C                     3.652701127962    -0.736652931473     1.783913681769
C                     3.245339870884    -1.392934153018     0.612550688910
C                     3.566430859587    -1.472444261904     3.004259174659
C                    -2.662167994731    -0.143997114891     4.833793874648
C                    -2.327835256516     1.257644500959     5.418364747177
C                    -1.352924736319    -0.592689943221     4.166421760239
C                    -0.830166561633     1.457521491022     5.110297889151
C                     3.970206110254    -1.855141722799     5.367941202349
C                     2.116152846768     0.549479274278     5.221892038779
C                     1.002322397136     0.013100887831     4.319649048627
C                     3.511438409305     0.434950556553     4.584578110704
N                     3.179028103104    -2.756465643262     2.988057625881
N                    -0.313759645915     0.095700132185     4.938796026720
N                     3.915119418803    -0.932512535155     4.235699926126
O                     3.403744237510    -0.578096368190    -0.475414314221
H                     2.508009396786    -3.225590776295    -0.323050785919
H                     4.560380149220     1.358458009029     1.932410374607
H                     2.536268010180    -4.391671125354     1.907277896752
H                     4.146519288927     1.351559501450    -0.749994584351
H                    -2.935082647839    -0.836341975013     5.634692798365
H                    -3.491525714289    -0.118300375376     4.121563852600
H                    -2.932012975509     2.052089420662     4.971486573338
H                    -2.506639965541     1.278438874001     6.496590825840
H                    -1.197351139680    -1.675913952469     4.194665842427
H                    -1.336332242001    -0.278647584381     3.104019614789
H                    -0.703594929492     2.048369712337     4.180953437412
H                    -0.301846443416     1.982788103272     5.911050013818
H                     4.428335242480    -1.329663466123     6.211182097700
H                     4.581499558780    -2.720192085377     5.108677506197
H                     2.982260605957    -2.225196139986     5.670438443774
H                     2.081741474070     0.020761320633     6.180242169839
H                     1.948582527591     1.610331581389     5.444188669142
H                     1.023516140219     0.548434022284     3.347960656715
H                     1.196452998951    -1.040747266763     4.098146602129
H                     4.259803339518     0.842516996803     5.274481209591
H                     3.538714176574     1.052020445300     3.689027063809
