30
1 1 C10ClFH13N4O
C                     1.984934260826     0.503070644573    -4.659865231988
C                     1.959883218052     1.218199996808    -6.823232507767
C                     0.728919059457     1.076725665475    -4.451405135737
C                     0.693919506289     1.806294586298    -6.593191570012
C                     0.032088067780     1.038048949831    -3.120863759330
C                     0.152113248649    -1.004882900447     0.037958950259
C                    -0.520933529329     1.025571808471    -0.206135224968
C                    -0.488935289380    -0.212894918782    -1.125500606330
C                     0.698906022522     0.558569893161     2.067934176998
C                     0.786811353227    -0.502081130815     3.153674572053
N                     2.599021182929     0.576521409808    -5.851694963111
N                     0.086140995675     1.741708719406    -5.426313258762
N                     0.317432109298    -0.069352128985    -2.318137734873
N                    -0.251931374386     0.109168205499     1.004529050229
O                    -0.701362457842     1.928521647081    -2.715973140688
F                    -0.523801167093    -0.803265060238     3.548629724519
Cl                   -0.097813163246     2.648886562219    -7.889348297171
H                     2.530527696886     0.003566294559    -3.862474276918
H                     2.438122936404     1.281170137505    -7.797429601832
H                    -0.261392729531    -1.974606240413     0.313337833469
H                     1.240476457631    -1.041688577768    -0.022507012750
H                     0.332848528433     1.687968175403    -0.335237387823
H                    -1.445817451107     1.590287671592    -0.118687584925
H                    -1.503467704513    -0.562172362274    -1.348013929470
H                     0.303684397580     1.495954266555     2.467573870722
H                     1.671597252874     0.745758885912     1.607561566237
H                     1.337851382770    -0.124058204436     4.017396805667
H                     1.247123812414    -1.428757619227     2.799407876482
H                     0.564398018121    -0.928941335123    -2.799523776874
H                    -1.129873769133    -0.140259568003     1.473558867863
