34
0 1 C15H13N5S
C                    -0.742568772848    -2.328593128242   -12.931847409412
C                    -3.784104730133     2.510143176885    -8.123471625435
C                    -4.890691436973     1.655605110101    -8.276515712673
C                    -2.500526942154     1.998103322557    -7.936207478936
C                    -4.730057281626     0.267768298900    -8.242981340074
C                    -0.581506444345    -2.882305693202   -10.464821332355
C                    -0.923337671260    -3.133808074207   -11.779928720945
C                    -0.974003229994    -4.025509399229    -9.701979542437
C                    -2.319092148307     0.607437921578    -7.901032752237
C                    -3.443957128138    -0.241324070116    -8.052775931387
C                    -1.556567594835    -4.941103646825   -10.599065107991
C                    -1.266255552995    -1.332969236158    -7.745328914503
C                    -0.787601774643    -4.309991686243    -8.288219694378
C                    -2.161944439970    -6.287990566422   -10.365131764929
C                    -2.054226963211    -5.011972302444   -13.058331065842
N                    -0.603811967580    -1.685903474096   -13.896821029364
N                    -1.103713719095    -0.043050629879    -7.734839876048
N                    -0.410090626128    -3.568485876950    -7.298427356323
N                    -1.523274632880    -4.393895468841   -11.849622132189
N                    -0.192199411918    -2.201852053557    -7.597018031659
S                    -2.931686483753    -1.921542884486    -7.962480069092
H                    -3.932177335062     3.586303421803    -8.153214184022
H                    -5.881935715583     2.075705424800    -8.422652629700
H                    -1.640203068711     2.650430463190    -7.818848605070
H                    -5.585477608531    -0.391685144227    -8.360411409443
H                    -0.099001991601    -1.987428056058   -10.104759061514
H                    -0.965292819645    -5.339944002497    -7.981046907708
H                    -3.220158126631    -6.304249769058   -10.650623605642
H                    -1.651655606573    -7.065365017783   -10.945275704959
H                    -2.103503908026    -6.564572401725    -9.312371138297
H                    -1.566400696970    -5.972934610969   -13.242927032052
H                    -3.133133098091    -5.168016020117   -12.968310238111
H                    -1.864927527075    -4.354562240074   -13.906457642709
H                     0.481387989373    -1.812854875555    -6.942847486337
