34
0 1 C15H13N5S
C                     1.199300427437    -4.172704744763   -13.148402318871
C                    -1.823739410474     2.855461358821    -4.651105258901
C                    -1.705083131673     2.138217541455    -3.447710613844
C                    -1.617468922519     2.232430505758    -5.882277410599
C                    -1.375811015668     0.779487381878    -3.456311823184
C                     1.112484265142    -4.319624261967   -10.615817509079
C                     0.592856623458    -4.050194468336   -11.873817781169
C                     0.103051483163    -4.003338662721    -9.665052101439
C                    -1.287765955720     0.869726050701    -5.909918167266
C                    -1.170421925275     0.158325752060    -4.689312377397
C                    -1.023740770653    -3.567718696997   -10.381796539563
C                    -0.769062929501    -1.107765306199    -6.737229331005
C                     0.218813014452    -4.161868301469    -8.208131507015
C                    -2.393730704709    -3.214361254877    -9.894187050767
C                    -1.628686664452    -3.265020489943   -12.802164860868
N                     1.683436137726    -4.270101614881   -14.206821119910
N                    -1.056138100179     0.118572785221    -7.058006930379
N                    -0.082538992237    -3.299627727002    -7.294685486057
N                    -0.711109526347    -3.588218148996   -11.716104059595
N                    -0.528037796884    -2.074948680222    -7.682642169369
S                    -0.741733027404    -1.521462592524    -5.015277792015
H                    -2.079253939006     3.911300886635    -4.621112330700
H                    -1.869725502760     2.642301396341    -2.499440091540
H                    -1.705421249452     2.778980546045    -6.816740582913
H                    -1.283006419469     0.226911801781    -2.525440398853
H                     2.113421313383    -4.676067606283   -10.412102507835
H                     0.622860082286    -5.095872857061    -7.822808485763
H                    -2.602094003865    -2.140872428813    -9.980569790467
H                    -3.165088924487    -3.748308400131   -10.459236136777
H                    -2.495806316303    -3.485361149042    -8.842907771067
H                    -2.378348227001    -4.053023089864   -12.925590656203
H                    -2.132998869888    -2.318254730663   -12.597120883976
H                    -1.064189621400    -3.168907959374   -13.729610984615
H                    -0.395502924964    -1.749402770838    -8.639915186675
