51
0 1 C20H26N4O
C                    -0.738895769704    -1.425796893900    -5.257936552892
C                    -3.950001335877     0.081565607801    -4.229590257722
C                    -1.683668314227    -0.687793893777    -4.481200209871
C                    -3.039442722743    -0.753007994561    -4.871665859924
C                    -3.488171619791     0.977351032575    -3.254342683393
C                    -1.308005036656     0.188704947874    -3.413795212487
C                     0.042261785411    -0.495456012057     0.016718454370
C                     1.273403498836     1.924934746361     1.061623704606
C                    -3.950675777524    -0.540206480848     1.825153747697
C                    -3.372312222469     0.318026751022     0.720035094858
C                     2.051312567349     1.079475984651     0.056455879274
C                     1.823968586541    -0.709878665447    -1.758306595457
C                     0.472502564245     1.017122086691     1.986863815565
C                     0.901538321902    -0.900266582062    -2.974006240528
C                     0.310753025049     1.142091782997    -1.818767293153
C                    -2.612571474506     0.143191654259     2.016107555838
C                     1.091863573353     0.260308641222    -0.810038211029
C                    -3.473229242894    -1.678442895651    -5.978503290927
C                    -4.439848085377     1.922669444558    -2.564377898319
C                    -1.340987175793    -0.683782704061     2.013182830437
N                    -0.015086747024    -2.019191854627    -5.956458678515
N                    -2.212515106646     1.025610575993    -2.864030373020
N                    -0.030606805516     0.245665323533    -2.923376104917
N                    -0.252447697882    -0.035534381991     1.271561163085
O                    -0.560063363544    -1.454641909729    -0.482584152124
H                    -5.000496607788     0.065886679727    -4.503899642038
H                     1.947260214286     2.540244104863     1.666940006577
H                     0.598704888903     2.607666097015     0.533564613632
H                    -4.803035306400    -0.163793676676     2.383461671679
H                    -3.948425647231    -1.616838312620     1.678616381107
H                    -2.975247166379    -0.176274866242    -0.160626069519
H                    -3.827969128726     1.285305710324     0.531428785617
H                     2.674962092073     1.710140091976    -0.587447813228
H                     2.730563223150     0.403122981546     0.591969897082
H                     2.053051491290    -1.664568779372    -1.280712981313
H                     2.768582092144    -0.247662554745    -2.064913654646
H                     1.145020985237     0.548985673651     2.722034765093
H                    -0.255401522738     1.607640059093     2.552918237732
H                     1.466408096215    -0.917953118513    -3.908347146447
H                     0.333491298824    -1.827698111102    -2.887464800582
H                    -0.592423433702     1.591691652816    -1.413055550234
H                     0.968677516461     1.947888813311    -2.175705529289
H                    -2.612576247685     1.000161602540     2.687003471876
H                    -2.981815202790    -1.415908402786    -6.921183135377
H                    -3.195488202576    -2.713650285571    -5.756417945148
H                    -4.554557702331    -1.630433864724    -6.125450335929
H                    -4.866733314475     1.441215159864    -1.677102024100
H                    -3.909051629484     2.819001297719    -2.235919471652
H                    -5.268002630587     2.208451041544    -3.219086156480
H                    -1.520935659025    -1.648767611362     1.540073792066
H                    -0.999251206067    -0.866802166691     3.039559480403
