27
0 1 C12ClH9N4O
C                    -0.185869722214     2.954537599276    -1.386289465287
C                     1.454532634635    -2.507930210708     0.915208355698
C                     0.649687911629    -1.842796785781     1.841594638036
C                     2.230887001670    -1.786634472856     0.002703963252
C                     1.412439942509     0.290377077719     0.973182296220
C                    -0.733130754418     1.683221344696    -1.061691656252
C                     0.599210454227    -0.439739763771     1.856686729750
C                     2.207902792787    -0.390198293851     0.052783595811
C                    -1.151009604354     1.266479289119     0.178014202941
C                    -1.356933904578    -0.351609522168    -1.276307612785
C                    -0.321535397016     0.234369041118     2.796703119464
C                    -1.633510014184    -1.751216467518    -1.688161139873
N                     0.259931327287     4.008562763646    -1.608924271639
N                    -0.889093084636     0.634842199533    -1.975280756144
N                    -1.092831406720     1.255695461915     2.634823148669
N                    -1.189971668225     1.895645327511     1.408590479933
O                    -1.574454065019    -0.029428978756     0.049759808436
Cl                    3.180241548782     0.531880909334    -1.073359299358
H                     1.478651992136    -3.594130693597     0.896043382789
H                     0.034362196260    -2.409313100276     2.535724116551
H                     2.851327908003    -2.294533489052    -0.728733762765
H                     1.432804819452     1.373508062906     1.006710974872
H                    -0.383955447419    -0.184818538144     3.800868476780
H                    -0.971748760448    -2.436709800413    -1.147805965520
H                    -2.667544138852    -2.031504940469    -1.465731146268
H                    -1.453783991759    -1.845911464633    -2.759335270732
H                    -1.820522515752     2.686004163048     1.473758949766
