15
0 1 C7H4N2O2
C                     2.805069051324    -0.259047013959     3.689813537563
C                     0.258398666040    -0.515781137208     0.936039961649
C                    -0.617997430563    -1.382512039604     1.592963530242
C                     0.705892632816    -1.458392537878     3.455809258295
C                     1.658891882675    -0.587761292516     2.889540656944
C                     1.423682910320    -0.103124424950     1.587290168449
C                     2.394588516843     0.823697481360     0.928069515669
N                     3.676324291869    -0.078175428709     4.441423546476
N                    -0.405530933650    -1.850212273037     2.830893788222
O                     3.423059951840     1.220865806383     1.432932165948
O                     1.996659039196     1.182226784031    -0.320310547569
H                     0.040023027137    -0.166165909319    -0.066097583304
H                    -1.530707244310    -1.715509441462     1.103000292963
H                     0.868203930664    -1.843947063576     4.459782503117
H                     2.687002498190     1.781162859874    -0.664868645818
