
  -OEChem-05262117483D

 51 54  0     1  0  0  0  0  0999 V2000
   -1.4973   -1.8678   -4.6257 C   0  0  0  0  0  0  0  0  0  0  0  0
   -4.9321   -0.8883   -3.6662 C   0  0  0  0  0  0  0  0  0  0  0  0
   -2.5760   -1.3519   -3.8442 C   0  0  0  0  0  0  0  0  0  0  0  0
   -3.8843   -1.5005   -4.3526 C   0  0  0  0  0  0  0  0  0  0  0  0
   -4.6519   -0.1245   -2.5248 C   0  0  0  0  0  0  0  0  0  0  0  0
   -2.3846   -0.6176   -2.6286 C   0  0  0  0  0  0  0  0  0  0  0  0
    0.6552    0.4851    1.0282 C   0  0  0  0  0  0  0  0  0  0  0  0
    1.0554    2.7550   -0.7341 C   0  0  0  0  0  0  0  0  0  0  0  0
    3.3441    0.1947    3.4061 C   0  0  0  0  0  0  0  0  0  0  0  0
    3.0957    0.9625    4.6878 C   0  0  0  0  0  0  0  0  0  0  0  0
    1.1915    1.3610   -1.3374 C   0  0  0  0  0  0  0  0  0  0  0  0
    0.8169   -1.1199   -0.9273 C   0  0  0  0  0  0  0  0  0  0  0  0
    1.6581    2.7589    0.6629 C   0  0  0  0  0  0  0  0  0  0  0  0
   -0.0015   -1.3412   -2.2055 C   0  0  0  0  0  0  0  0  0  0  0  0
   -1.0647    0.3315   -0.7905 C   0  0  0  0  0  0  0  0  0  0  0  0
    2.7944    1.6036    3.3499 C   0  0  0  0  0  0  0  0  0  0  0  0
    0.4505    0.3133   -0.4876 C   0  0  1  0  0  0  0  0  0  0  0  0
   -4.1294   -2.2763   -5.6206 C   0  0  0  0  0  0  0  0  0  0  0  0
   -5.7421    0.6075   -1.7839 C   0  0  0  0  0  0  0  0  0  0  0  0
    1.3498    1.8184    2.9450 C   0  0  0  0  0  0  0  0  0  0  0  0
   -0.6577   -2.2827   -5.3236 N   0  0  0  0  0  0  0  0  0  0  0  0
   -3.4198   -0.0004   -2.0224 N   0  0  0  0  0  0  0  0  0  0  0  0
   -1.1760   -0.4724   -2.0165 N   0  0  0  0  0  0  0  0  0  0  0  0
    1.1217    1.6831    1.5003 N   0  0  0  0  0  0  0  0  0  0  0  0
    0.3428   -0.4364    1.7907 O   0  0  0  0  0  0  0  0  0  0  0  0
   -5.9520   -0.9799   -4.0263 H   0  0  0  0  0  0  0  0  0  0  0  0
    1.5719    3.4996   -1.3487 H   0  0  0  0  0  0  0  0  0  0  0  0
    0.0017    3.0514   -0.6838 H   0  0  0  0  0  0  0  0  0  0  0  0
    4.3739    0.0356    3.0990 H   0  0  0  0  0  0  0  0  0  0  0  0
    2.6601   -0.6104    3.1577 H   0  0  0  0  0  0  0  0  0  0  0  0
    2.2528    0.6579    5.3024 H   0  0  0  0  0  0  0  0  0  0  0  0
    3.9525    1.3250    5.2482 H   0  0  0  0  0  0  0  0  0  0  0  0
    0.8083    1.3403   -2.3628 H   0  0  0  0  0  0  0  0  0  0  0  0
    2.2558    1.0978   -1.3909 H   0  0  0  0  0  0  0  0  0  0  0  0
    0.5070   -1.8146   -0.1448 H   0  0  0  0  0  0  0  0  0  0  0  0
    1.8895   -1.2452   -1.0993 H   0  0  0  0  0  0  0  0  0  0  0  0
    2.7518    2.6657    0.5947 H   0  0  0  0  0  0  0  0  0  0  0  0
    1.4496    3.7079    1.1697 H   0  0  0  0  0  0  0  0  0  0  0  0
    0.5567   -1.0574   -3.1020 H   0  0  0  0  0  0  0  0  0  0  0  0
   -0.3034   -2.3859   -2.3216 H   0  0  0  0  0  0  0  0  0  0  0  0
   -1.6322   -0.1214    0.0288 H   0  0  0  0  0  0  0  0  0  0  0  0
   -1.4613    1.3344   -0.9582 H   0  0  0  0  0  0  0  0  0  0  0  0
    3.4883    2.3788    3.0309 H   0  0  0  0  0  0  0  0  0  0  0  0
   -3.6144   -1.8109   -6.4676 H   0  0  0  0  0  0  0  0  0  0  0  0
   -3.7420   -3.2968   -5.5391 H   0  0  0  0  0  0  0  0  0  0  0  0
   -5.1966   -2.3249   -5.8479 H   0  0  0  0  0  0  0  0  0  0  0  0
   -5.7666    0.2856   -0.7382 H   0  0  0  0  0  0  0  0  0  0  0  0
   -5.5371    1.6832   -1.7852 H   0  0  0  0  0  0  0  0  0  0  0  0
   -6.7242    0.4361   -2.2311 H   0  0  0  0  0  0  0  0  0  0  0  0
    1.0181    2.8204    3.2439 H   0  0  0  0  0  0  0  0  0  0  0  0
    0.7108    1.0873    3.4400 H   0  0  0  0  0  0  0  0  0  0  0  0
  1  3  1  0  0  0  0
  1 21  3  0  0  0  0
  2  4  1  0  0  0  0
  2  5  2  0  0  0  0
  2 26  1  0  0  0  0
  3  4  2  0  0  0  0
  3  6  1  0  0  0  0
  4 18  1  0  0  0  0
  5 19  1  0  0  0  0
  5 22  1  0  0  0  0
  6 22  2  0  0  0  0
  6 23  1  0  0  0  0
  7 17  1  0  0  0  0
  7 24  1  0  0  0  0
  7 25  2  0  0  0  0
  8 11  1  0  0  0  0
  8 13  1  0  0  0  0
  8 27  1  0  0  0  0
  8 28  1  0  0  0  0
  9 10  1  0  0  0  0
  9 16  1  0  0  0  0
  9 29  1  0  0  0  0
  9 30  1  0  0  0  0
 10 16  1  0  0  0  0
 10 31  1  0  0  0  0
 10 32  1  0  0  0  0
 11 17  1  0  0  0  0
 11 33  1  0  0  0  0
 11 34  1  0  0  0  0
 12 14  1  0  0  0  0
 12 17  1  0  0  0  0
 12 35  1  0  0  0  0
 12 36  1  0  0  0  0
 13 24  1  0  0  0  0
 13 37  1  0  0  0  0
 13 38  1  0  0  0  0
 14 23  1  0  0  0  0
 14 39  1  0  0  0  0
 14 40  1  0  0  0  0
 15 17  1  0  0  0  0
 15 23  1  0  0  0  0
 15 41  1  0  0  0  0
 15 42  1  0  0  0  0
 16 20  1  0  0  0  0
 16 43  1  0  0  0  0
 18 44  1  0  0  0  0
 18 45  1  0  0  0  0
 18 46  1  0  0  0  0
 19 47  1  0  0  0  0
 19 48  1  0  0  0  0
 19 49  1  0  0  0  0
 20 24  1  0  0  0  0
 20 50  1  0  0  0  0
 20 51  1  0  0  0  0
M  END
$$$$
