51
0 1 C20H26N4O
C                     2.054097949807     3.041567094072    -2.223807520776
C                    -0.943363821870     4.940041323574    -3.263746681020
C                     0.679506036722     3.373021261722    -2.424941904685
C                     0.380650227728     4.654731630949    -2.933883775702
C                    -1.917740492222     3.943017800103    -3.115515153591
C                    -0.389221840187     2.438658183277    -2.227579125510
C                    -0.249170132993     0.191922001349     1.359830191995
C                     0.988850095697    -2.440565576074     1.297775845379
C                    -3.372512997594    -0.185365336956     3.163314757344
C                    -3.251614801331     0.087287913194     4.648707355872
C                     1.482593124081    -1.371034307616     0.328221434654
C                    -0.777486578720    -0.906727227251    -0.811308998349
C                     0.630246411877    -1.799383960560     2.632450095801
C                    -1.376827379877     0.320506126174    -1.494483836548
C                     0.892918945909     0.837114023397    -0.788808192848
C                    -2.184197945086    -0.714661146822     3.935238413555
C                     0.377841132840    -0.343172220177     0.062764655895
C                     1.473754435884     5.670941156832    -3.140514030075
C                    -3.352310080629     4.184164680522    -3.512395452749
C                    -0.821259678370    -0.093481159846     3.710327060384
N                     3.194183315076     2.813547528593    -2.110335130724
N                    -1.647044583905     2.736012150304    -2.611080396004
N                    -0.215760561548     1.202064521095    -1.680372217551
N                    -0.170540733738    -0.580320246001     2.486557616312
O                    -0.858359641722     1.268785559822     1.351670321741
H                    -1.213197462381     5.914622520918    -3.658418713095
H                     0.113773894060    -2.949571260571     0.879182140532
H                     1.755291497172    -3.203646178376     1.468189423125
H                    -4.126344418354    -0.896211142548     2.836735301366
H                    -3.187392071717     0.636319593512     2.479040077231
H                    -3.001301582062     1.098850977412     4.957077141393
H                    -3.918737281682    -0.436384822589     5.327164722116
H                     2.361866283094    -0.867966229552     0.752083082757
H                     1.799932405113    -1.815847065759    -0.621404331654
H                    -1.524893624097    -1.455809216446    -0.233456824276
H                    -0.352207471249    -1.590530309926    -1.554995663347
H                     0.066301099568    -2.505690753920     3.251539266576
H                     1.549964463390    -1.554405461420     3.185211745190
H                    -1.840485318558     0.090006037229    -2.456310085079
H                    -2.124225990170     0.810030151660    -0.863809436727
H                     1.179775857446     1.683433158458    -0.161294467962
H                     1.769794551149     0.522536121344    -1.362392912558
H                    -2.177961200067    -1.784552361620     4.136674126843
H                     2.016248062971     5.860211668142    -2.208774628116
H                     2.210017877055     5.309656820016    -3.866164446570
H                     1.063925879478     6.616008008553    -3.503879075808
H                    -3.672420006533     3.427930588847    -4.236201252740
H                    -4.003236468018     4.088860230012    -2.637183337238
H                    -3.492963282391     5.175721110185    -3.949643368661
H                    -0.156850257827    -0.312521662290     4.555106363847
H                    -0.915029922434     0.989938539134     3.626325406461
