34
0 1 C15H13N5S
C                    -2.112307231310    -3.632932088684   -13.012265877439
C                     2.671670255274     1.094200663336    -3.173643418063
C                     2.869150379496     2.182897788430    -4.040254763452
C                     2.093664328762    -0.091646068532    -3.628202683783
C                     2.489707125608     2.103480497227    -5.383813375356
C                    -1.847114162723    -3.855726743596   -10.497109079864
C                    -1.392498275041    -3.649817043371   -11.792118095738
C                    -0.723774181652    -3.744587575242    -9.632075587456
C                     1.706115508785    -0.192155315582    -4.971852144831
C                     1.912077571095     0.915777745085    -5.833000460492
C                     0.399233719551    -3.492763338074   -10.436940445654
C                     0.879197682467    -1.094229312991    -6.806223270520
C                    -0.737268015312    -3.926188954075    -8.170928719239
C                     1.843542645184    -3.390447416526   -10.059440235232
C                     0.850253588790    -3.246973075801   -12.897302504137
N                    -2.690151816983    -3.617813405815   -14.027168039272
N                     1.125558535359    -1.312454485646    -5.556263020630
N                    -0.229878115219    -3.149922144701    -7.272625580424
N                    -0.019222960148    -3.425392755488   -11.740618627805
N                     0.347080500801    -1.990281136156    -7.704949841064
S                     1.332318935576     0.515197475912    -7.447287128229
H                     2.973588375743     1.177830353306    -2.133110801452
H                     3.320122755079     3.097744361544    -3.666093528935
H                     1.936447044205    -0.938299278458    -2.966635373495
H                     2.641258837860     2.945811959207    -6.052794902875
H                    -2.874817486414    -4.039150592867   -10.213108529324
H                    -1.242233220135    -4.802196565813    -7.767825248457
H                     2.463533756180    -4.046891984492   -10.679312180812
H                     2.230458569217    -2.369765448903   -10.169533505996
H                     1.976472500265    -3.682570128152    -9.017254484891
H                     1.535396701624    -2.413883333965   -12.726010328176
H                     1.429824609820    -4.154905107267   -13.092068240315
H                     0.239570794890    -3.025536935208   -13.772609204783
H                     0.129664847567    -1.657170305163    -8.642905672928
