30   
torsion grid (-60,)
C       -5.6477429297    2.1213056938   -0.0860347118
C       -5.6611433391    0.9580064270    0.7232053280
C       -4.4975273169    2.4229467862   -0.8449789463
C       -4.5025499926    0.1712795146    0.6141425946
C       -3.2697596926    1.7708182827   -0.5741431289
C       -3.3016490676    0.9095155288    0.5375314045
C        1.5481015435   -0.0475409330    0.0716124288
C        0.1738448540   -0.5019860753   -1.7600133540
C       -0.9506097205   -0.6655058584   -0.7474122499
C        0.4019880160    0.3483080902    0.9860734664
C        0.7395761230    1.7105972207    1.6157433829
C       -2.0312571198    0.3602597615    1.1517654535
N        1.5006165352   -0.3997278420   -1.1503989844
N       -0.8715769228    0.3920552215    0.2623741430
H       -6.5345951724    2.7426685369   -0.1803230161
H       -6.5854586961    0.5747694630    1.1465171444
H       -4.5448076914    3.2050852614   -1.5988541449
H       -4.4660472109   -0.7800857381    1.1520869136
H       -2.3268357059    2.1145847675   -0.9884752547
H        2.5383171478    0.0108332338    0.5366018943
H        0.1874466315   -1.3528047194   -2.4501500988
H        0.0112319541    0.3968844220   -2.3678455550
H       -1.9202544452   -0.5997452497   -1.2489494886
H       -0.8883544686   -1.6685275144   -0.2820580138
H        0.3747134297   -0.4096260259    1.7964932920
H        0.8140055684    2.4737772986    0.8357175790
H        1.6928445021    1.6597215899    2.1522159371
H       -0.0236138546    2.0263043621    2.3316536455
H       -1.8109525904    0.9759818389    2.0308386649
H       -2.2207174844   -0.6583419928    1.5405095798
30   
torsion grid (-45,)
C       -5.6775310187    2.0643727184   -0.2096651201
C       -5.6743250488    0.8999932738    0.5785510705
C       -4.4841608679    2.4835076963   -0.8244877482
C       -4.4653498346    0.1910111631    0.6622696898
C       -3.2595773433    1.8970022347   -0.4633138796
C       -3.2781033561    0.9366980992    0.5644281939
C        1.5418810626   -0.1021250321    0.0034799942
C        0.1078022588   -0.5181600119   -1.7906491503
C       -0.9952332778   -0.6424813205   -0.7493983517
C        0.4317364472    0.3309828006    0.9452364649
C        0.8302165516    1.6803164915    1.5671950609
C       -1.9922401602    0.4216401344    1.1765438839
N        1.4524685043   -0.4556419067   -1.2157641213
N       -0.8573846507    0.4164515548    0.2529536459
H       -6.6016046621    2.6085343317   -0.3871309713
H       -6.6054942505    0.4639783229    0.9306015492
H       -4.5061420344    3.2952424383   -1.5476056271
H       -4.4399811398   -0.7482814521    1.2168229678
H       -2.3121391535    2.2959420635   -0.8137728026
H        2.5448871896   -0.0734948447    0.4432393550
H        0.0769208210   -1.3713380075   -2.4773352860
H       -0.0422925558    0.3833744122   -2.3976506134
H       -1.9742307789   -0.5478586655   -1.2270572353
H       -0.9528232488   -1.6452090960   -0.2808623509
H        0.3988283904   -0.4263397759    1.7561935409
H        0.9076353859    2.4425706093    0.7864913533
H        1.7962576961    1.5974026980    2.0761105931
H        0.0987632181    2.0186067533    2.3054537685
H       -1.7462162418    1.0758202443    2.0195422613
H       -2.1677399016   -0.5807988295    1.6107765018
30   
torsion grid (-30,)
C       -5.6836588799    2.0133645139   -0.2986057560
C       -5.6804751422    0.8619095440    0.4991460704
C       -4.4697301807    2.5047523853   -0.8015883766
C       -4.4619322972    0.2144717237    0.7480454422
C       -3.2562504661    1.9524577351   -0.3755536177
C       -3.2657025897    0.9280691399    0.5861407511
C        1.5391903149   -0.1245992629   -0.0303900771
C        0.0765395432   -0.5283676024   -1.8042739202
C       -1.0122115049   -0.6466524456   -0.7474626179
C        0.4455682466    0.3146855278    0.9277098525
C        0.8621712364    1.6603290554    1.5458461321
C       -1.9739910795    0.4217511687    1.1943870594
N        1.4297770208   -0.4757386117   -1.2486975482
N       -0.8525912412    0.4099233914    0.2541367353
H       -6.6202251245    2.5011694720   -0.5564099193
H       -6.6172734953    0.4041046252    0.8066361583
H       -4.4706328029    3.3371992020   -1.5011069050
H       -4.4533219953   -0.7061671026    1.3306463969
H       -2.3063319172    2.3785515264   -0.6857311720
H        2.5486079660   -0.1034122032    0.3949375635
H        0.0300633581   -1.3803336382   -2.4915909023
H       -0.0762731510    0.3751014243   -2.4076615267
H       -1.9973975009   -0.5442316681   -1.2105830826
H       -0.9701290439   -1.6504050456   -0.2809672056
H        0.4191887268   -0.4435781647    1.7380998996
H        0.9327598992    2.4233803623    0.7652466291
H        1.8353330210    1.5703857697    2.0397977370
H        0.1442571552    2.0019435361    2.2957566201
H       -1.7156763476    1.0812302197    2.0290555343
H       -2.1432015423   -0.5787668807    1.6351852557
30   
torsion grid (-15,)
C       -5.6730219762    1.9423137557   -0.3874162055
C       -5.6694238426    0.8014065822    0.4207693010
C       -4.4550857666    2.5154007602   -0.7761820400
C       -4.4522141215    0.2355046085    0.8202063099
C       -3.2499281900    2.0017440462   -0.2910882636
C       -3.2494823457    0.9186107578    0.6015334476
C        1.5310357720   -0.1736562328   -0.0733051279
C        0.0340092742   -0.5567899162   -1.8227965719
C       -1.0387179194   -0.6598564414   -0.7481440285
C        0.4593937166    0.2796097217    0.9030154353
C        0.9054642772    1.6174858772    1.5174281804
C       -1.9529884670    0.4228525243    1.2090283331
N        1.3968838914   -0.5227695063   -1.2897089078
N       -0.8475799928    0.3947327872    0.2501207138
H       -6.6127692572    2.3693469366   -0.7282295890
H       -6.6056606029    0.3142110214    0.6816472411
H       -4.4477912997    3.3719356185   -1.4459709657
H       -4.4508953817   -0.6688619067    1.4260154698
H       -2.3023193349    2.4611233924   -0.5584252847
H        2.5475352369   -0.1663512940    0.3353066464
H       -0.0355627761   -1.4080483964   -2.5090563500
H       -0.1163480219    0.3487757502   -2.4235981881
H       -2.0299047865   -0.5435202878   -1.1949051795
H       -1.0031308191   -1.6641078033   -0.2820677713
H        0.4347107974   -0.4800295666    1.7122870339
H        0.9719382456    2.3820537509    0.7379193834
H        1.8864452189    1.5128047613    1.9926441201
H        0.2066605499    1.9661247564    2.2819820368
H       -1.6798571722    1.0953044128    2.0282013423
H       -2.1168884713   -0.5712158992    1.6657798147
30   
torsion grid (0,)
C       -5.6588779627    1.8880420195   -0.4639965621
C       -5.6596155276    0.7650648237    0.3679590924
C       -4.4480787959    2.5292017445   -0.7544097861
C       -4.4580619051    0.2884696381    0.9052303417
C       -3.2508771439    2.0525935167   -0.2161987760
C       -3.2450848093    0.9256245844    0.6193668098
C        1.5251621228   -0.1670652880   -0.0857589417
C        0.0129937710   -0.5385526644   -1.8245803548
C       -1.0511622322   -0.6434397102   -0.7416075253
C        0.4630708503    0.2859147172    0.9010007238
C        0.9176307762    1.6210124301    1.5153681716
C       -1.9466816022    0.4334177387    1.2276346271
N        1.3802268645   -0.5109379967   -1.3024014098
N       -0.8490234108    0.4062034519    0.2597683165
H       -6.5899723916    2.2578414582   -0.8859452682
H       -6.5930908141    0.2561583414    0.5950776986
H       -4.4390837285    3.4014883154   -1.4035199310
H       -4.4644411241   -0.5924910242    1.5441621597
H       -2.3063774114    2.5352274602   -0.4520022491
H        2.5449519750   -0.1646438750    0.3146311980
H       -0.0645187138   -1.3863975804   -2.5141907551
H       -0.1396853047    0.3702884290   -2.4197925329
H       -2.0457227761   -0.5219851341   -1.1796205572
H       -1.0149456637   -1.6499248599   -0.2804534630
H        0.4435829589   -0.4759175063    1.7083672318
H        0.9805555027    2.3872727157    0.7372201246
H        1.9017966294    1.5124542599    1.9830781941
H        0.2253920662    1.9696808353    2.2858779739
H       -1.6680891398    1.1057821901    2.0448126913
H       -2.1070351331   -0.5616412807    1.6833421132
30   
torsion grid (15,)
C       -5.6296860299    1.8220818266   -0.5405693625
C       -5.6372606176    0.7186615199    0.3182023001
C       -4.4382400912    2.5313971816   -0.7406157956
C       -4.4621796753    0.3432221322    0.9811235554
C       -3.2511454096    2.0904404317   -0.1504294107
C       -3.2377020378    0.9237632015    0.6298275472
C        1.5140043730   -0.1966585961   -0.1140831388
C       -0.0200652919   -0.5456844644   -1.8385970069
C       -1.0737625730   -0.6454010216   -0.7449996200
C        0.4664578709    0.2613215033    0.8858884447
C        0.9402099017    1.5884326309    1.5029763430
C       -1.9382633976    0.4321293969    1.2380215814
N        1.3527770440   -0.5334078003   -1.3306675161
N       -0.8507654470    0.3978055494    0.2588355463
H       -6.5433245765    2.1339735212   -1.0401693440
H       -6.5649855563    0.1880146785    0.5173762258
H       -4.4331651479    3.4169870699   -1.3714764408
H       -4.4751686467   -0.5114706874    1.6551999530
H       -2.3105638300    2.5936949094   -0.3575778911
H        2.5379677572   -0.2056891084    0.2754604019
H       -0.1127911977   -1.3894858145   -2.5312708460
H       -0.1703731273    0.3674098980   -2.4278395999
H       -2.0716473211   -0.5119236676   -1.1720055453
H       -1.0429361924   -1.6543129320   -0.2888548285
H        0.4476618185   -0.5047234110    1.6893144641
H        1.0012396575    2.3588394147    0.7287701323
H        1.9286721531    1.4680428467    1.9585560643
H        0.2601830981    1.9385092933    2.2836772143
H       -1.6498432687    1.1073758370    2.0492568247
H       -2.0979787299   -0.5612117486    1.6976426506
30   
torsion grid (30,)
C       -5.6074337129    1.7301355275   -0.5773072090
C       -5.6143113048    0.6665948735    0.3361594192
C       -4.4442277553    2.4984565480   -0.7373300503
C       -4.4585595096    0.4257116415    1.0902372767
C       -3.2511323729    2.1126317833   -0.1121284203
C       -3.2308523960    0.9265371293    0.6385127654
C        1.5118444892   -0.1624191113   -0.1715485204
C       -0.0438967129   -0.4948529068   -1.8797098338
C       -1.0823283763   -0.6120314254   -0.7733375982
C        0.4768873796    0.2808726753    0.8477929729
C        0.9544960943    1.6031902182    1.4723374807
C       -1.9235368419    0.4356085590    1.2340060919
N        1.3355260396   -0.4848281214   -1.3899232939
N       -0.8492830146    0.4192365436    0.2406686051
H       -6.5043421267    1.9761331522   -1.1400934633
H       -6.5338401507    0.1266483924    0.5461344777
H       -4.4618976595    3.3778511019   -1.3766580027
H       -4.4668481822   -0.3799046408    1.8235924375
H       -2.3183642480    2.6252419059   -0.3299012252
H        2.5408878692   -0.1734484139    0.2042774185
H       -0.1433157364   -1.3299594585   -2.5818963587
H       -0.2048838651    0.4252879069   -2.4549907919
H       -2.0865000048   -0.4762399083   -1.1850470016
H       -1.0424028229   -1.6264640925   -0.3305300411
H        0.4720986277   -0.4936696527    1.6431951830
H        1.0054989632    2.3811100181    0.7049569481
H        1.9480223897    1.4808057400    1.9162322843
H        0.2818579931    1.9441422521    2.2634327537
H       -1.6293061631    1.1016217489    2.0508585515
H       -2.0733204000   -0.5650441661    1.6808447711
30   
torsion grid (45,)
C       -5.5675886795    1.6501720762   -0.6488253618
C       -5.5862857918    0.6425768591    0.3325274046
C       -4.4303054941    2.4669194893   -0.7745829642
C       -4.4660140163    0.5466662496    1.1726906909
C       -3.2426676818    2.1301017131   -0.1021109111
C       -3.2289058466    0.9292708449    0.6300021854
C        1.5090914456   -0.1837202628   -0.1506294396
C       -0.0372881586   -0.4677119066   -1.8761791139
C       -1.0852632839   -0.5929162860   -0.7797912840
C        0.4709498320    0.2501321918    0.8696004100
C        0.9591061247    1.5517687325    1.5282286057
C       -1.9299470249    0.4291586493    1.2382860551
N        1.3383929526   -0.4812253799   -1.3761050340
N       -0.8479932755    0.4180599671    0.2541060392
H       -6.4378905658    1.8276635810   -1.2753090588
H       -6.5007506538    0.0993761823    0.5553825615
H       -4.4569929282    3.3319010121   -1.4328352662
H       -4.4723081711   -0.1982511816    1.9701602073
H       -2.3090310678    2.6415039939   -0.3197435965
H        2.5351510435   -0.2127219281    0.2323179243
H       -0.1403354726   -1.2891504182   -2.5937728885
H       -0.1839808720    0.4641285939   -2.4362190027
H       -2.0847336758   -0.4385278163   -1.1966021571
H       -1.0601380454   -1.6151607898   -0.3544182555
H        0.4490819968   -0.5419980734    1.6472610290
H        1.0226316015    2.3473889845    0.7801862974
H        1.9488832153    1.4078202392    1.9739864328
H        0.2862141835    1.8807211135    2.3241751269
H       -1.6422925646    1.0868817380    2.0643178366
H       -2.0887298691   -0.5754708108    1.6731780481
30   
torsion grid (60,)
C       -5.5710966445    1.5852380996   -0.6224760958
C       -5.5836629860    0.7150413770    0.4976051632
C       -4.4301479997    2.3746256005   -0.8703487462
C       -4.4371248537    0.7966473493    1.3031238581
C       -3.2058943552    2.0866376349   -0.2153344310
C       -3.2313590408    0.9301248395    0.5835402918
C        1.5310576583   -0.1134725067   -0.1861928824
C        0.0191865937   -0.3496651365   -1.9497716229
C       -1.0432274302   -0.5461481828   -0.8780633953
C        0.4677533738    0.2502742538    0.8355672263
C        0.9168676817    1.5296633998    1.5619546573
C       -1.9437284023    0.3671247432    1.1647841710
N        1.3863378018   -0.3566291210   -1.4269500702
N       -0.8435670401    0.4208541972    0.2051085877
H       -6.4513176235    1.6953295370   -1.2505081724
H       -6.5042281474    0.2546886354    0.8454012026
H       -4.4775281210    3.1645167323   -1.6160574497
H       -4.4069849095    0.1979227109    2.2182590681
H       -2.2640048461    2.5170119346   -0.5427620199
H        2.5513609005   -0.1385300322    0.2120336078
H       -0.0540933774   -1.1402654393   -2.7046702037
H       -0.1384830656    0.6027925597   -2.4708653251
H       -2.0391241850   -0.3937170178   -1.3040461086
H       -1.0026693746   -1.5857524520   -0.4987803544
H        0.4499588188   -0.5779303913    1.5746840958
H        0.9784383161    2.3597160390    0.8521917791
H        1.9004941003    1.3847165323    2.0207826196
H        0.2218618803    1.8093231405    2.3578368693
H       -1.6704568573    0.9460315401    2.0526958644
H       -2.1233848283   -0.6685472787    1.5099933332
