36
0 1 C15H18N2O
C                    -6.500040457992     4.025410554218    -5.641336898709
C                    -7.232505184681     4.900035955081    -4.807825053378
C                    -5.419010708506     3.294426777580    -5.154809910690
C                    -6.900604915350     5.061589275368    -3.463679499279
C                    -4.193869197887     3.416909610876    -1.710558925155
C                    -5.057738294053     3.445733226778    -3.804240637388
C                    -4.013025865408     2.883637198316    -2.975186744925
C                    -5.812057901956     4.324623092153    -2.980417762196
C                    -3.058785229314     1.847304280219    -3.429774998972
C                     1.045306334812     1.554354835036    -2.079979890762
C                     0.288214748509     2.867084016573    -2.374185110508
C                     0.100431796673     0.338080027255    -2.183750769176
C                    -1.192976526931     2.762991154993    -1.996429074655
C                    -1.013200375550     0.572464917231    -3.203261032618
C                    -5.775193665884     5.008236464798    -0.556645228020
N                    -5.268437788882     4.279326253184    -1.702975429426
N                    -1.848728396637     1.710138991287    -2.783758407703
O                    -3.361545201933     1.089785600282    -4.363444453096
H                    -6.794647079819     3.917737459552    -6.682021235718
H                    -8.072575610026     5.453067781186    -5.219812573428
H                    -4.868424929973     2.604774773280    -5.785142435575
H                    -7.468368262401     5.731182537034    -2.823201631246
H                    -3.655174803876     3.222938704160    -0.792932488901
H                     1.490228230463     1.588802197076    -1.079373705280
H                     1.875961364053     1.448895622024    -2.786124105007
H                     0.738085869275     3.707010997852    -1.834029351296
H                     0.349418289298     3.109405786818    -3.440884894590
H                     0.657491619162    -0.562449651133    -2.461278233571
H                    -0.358518385745     0.132420781313    -1.209556956009
H                    -1.284157618032     2.560079661717    -0.918520158353
H                    -1.692767177691     3.712006864646    -2.192415416280
H                    -0.593981214991     0.754245369632    -4.202699816131
H                    -1.659230857720    -0.302412091520    -3.294887198795
H                    -5.736152040219     6.088580972130    -0.734351904916
H                    -6.811235303677     4.724073853738    -0.342345396661
H                    -5.162738848010     4.777009244032     0.316591976975
