35
0 1 C15H18N2
C                     6.136515579574    -1.244959546416    -3.325396080068
C                     6.857280737896    -1.679262506482    -4.467299301350
C                     4.757723184793    -1.300171679325    -3.306534219865
C                     6.183752413948    -2.181368953134    -5.561022197041
C                     2.833867896441    -2.847576480796    -6.639461301283
C                     4.034092119118    -1.783028744011    -4.430833599219
C                     1.989073596095    -2.372668970174    -5.594305813727
C                     4.764276176697    -2.253693343509    -5.565783151488
C                     2.598523724601    -1.836137042959    -4.463758058039
C                     0.449470337822    -0.208075035161    -1.108538772777
C                     1.612131302499     0.547460225089    -1.765926916627
C                     0.612497384889    -1.722277131143    -1.296940470358
C                     1.785927814901     0.125547171521    -3.227668717615
C                     0.768414041822    -2.065521070708    -2.782647595945
C                     0.494503429577    -2.411640559235    -5.815149455764
N                     4.148915540923    -2.793133057163    -6.660913849064
N                     1.905194589575    -1.333017428327    -3.336432033754
H                     6.676756811489    -0.879345439328    -2.455711903160
H                     7.943193872267    -1.629440292177    -4.470656507410
H                     4.205158336410    -0.997104461126    -2.424004737136
H                     6.708559710963    -2.539969170843    -6.441754017160
H                     2.360217853748    -3.270821610990    -7.527255996714
H                    -0.496466142560     0.112040754027    -1.567522505031
H                     0.383900735787     0.042655392712    -0.043920988805
H                     1.447250669373     1.630130968980    -1.716806613558
H                     2.541064525335     0.333721654955    -1.222938746979
H                     1.499797548342    -2.071790815217    -0.755659288805
H                    -0.254943297608    -2.256272188102    -0.891299547225
H                     0.924690481049     0.487750763236    -3.819516263634
H                     2.681476454040     0.581914667520    -3.655738102433
H                     0.952373757104    -3.135782815388    -2.910739480128
H                    -0.178453293023    -1.826302575546    -3.295325876119
H                     0.004341909597    -3.201546561957    -5.236303534515
H                     0.024232701968    -1.463768338034    -5.540044908605
H                     0.275512436954    -2.596711848290    -6.870621787511
