23
0 1 C7H10N4O2
C                     1.541937824082    -2.109559748524    -0.787527075988
C                     1.947690255438     0.002098849112    -0.810619522778
C                     0.629099907116    -0.132938014994    -0.370260812175
C                     2.751887635961     1.237063269914    -1.062184770036
C                    -0.542815578502     0.721104323871    -0.035263877184
C                     3.515619279693     3.381047916905    -0.135861073486
C                    -1.497283713170     2.962017968950     0.199093146320
N                     2.494214990470    -1.235425133065    -1.065516967181
N                     0.403523457567    -1.493046157319    -0.369242833975
N                     2.643822373356     2.206280594755    -0.069653474240
N                    -0.378470282209     2.066459984541    -0.063160337571
O                     3.416437960520     1.407267801495    -2.074077289401
O                    -1.622298262536     0.178654819580     0.243394258990
H                     1.632778442565    -3.185066401377    -0.868698282722
H                     4.569879710960     3.117107257314     0.005583354042
H                     3.209655107314     4.091646580865     0.635572442916
H                     3.412120557119     3.846513731316    -1.116795413668
H                    -2.257705316407     2.883560123655    -0.584750390606
H                    -1.122164773737     3.986754799283     0.232458176919
H                    -1.968699855435     2.717322960625     1.154830745366
H                    -0.501628763676    -1.888435891278    -0.132425115274
H                     2.457860071588     1.841010892072     0.858818808787
H                     0.538424069125     2.444911623837    -0.280570767826
