36
0 1 C15H18N2O
C                    -4.026701201560     0.365122374457    -8.198968110390
C                    -5.437063091622     0.420562656828    -8.157252610489
C                    -3.256480448197     0.710496336962    -7.091400954598
C                    -6.106315563164     0.836249077954    -7.007014292503
C                    -4.593154750346     1.898290001749    -3.898717460031
C                    -3.903951445987     1.116472679071    -5.909822867742
C                    -3.456534119947     1.565777241548    -4.609246516021
C                    -5.326838563742     1.185512778714    -5.897971817106
C                    -2.091270950198     1.796434183910    -4.079134868357
C                     0.350236042717    -1.031787561030    -2.853341877090
C                    -1.067676258914    -1.304173719566    -3.374103328574
C                     0.596935309727     0.476843637742    -2.709138451880
C                    -1.352597551341    -0.516723162603    -4.662196479855
C                     0.269876059356     1.204524205564    -4.018886566518
C                    -7.092320468794     1.874101247948    -4.238497929460
N                    -5.718958263003     1.659102331159    -4.653195757597
N                    -1.096684970420     0.917023751037    -4.471370849018
O                    -1.854016586214     2.769651299990    -3.352044068537
H                    -3.536048107702     0.051085085135    -9.116504120842
H                    -6.009872624928     0.143197771547    -9.038018340283
H                    -2.172131603994     0.677812574396    -7.139214518046
H                    -7.191276469604     0.891714744956    -6.981356235843
H                    -4.664952011427     2.299680113142    -2.896675738488
H                     1.080056111044    -1.452812644655    -3.559435205655
H                     0.509330059543    -1.541474926317    -1.896277884782
H                    -1.211981614238    -2.374052625702    -3.567400836122
H                    -1.804377356096    -1.009429897964    -2.615746045635
H                    -0.035980436045     0.890171563666    -1.915626688562
H                     1.639212226719     0.673184295260    -2.431173590769
H                    -0.702134807857    -0.876867170156    -5.470468387315
H                    -2.381835007393    -0.669382707345    -4.979288968511
H                     0.368791080682     2.283255008159    -3.903514784828
H                     0.954129747009     0.872464241135    -4.811381875666
H                    -7.584575059271     2.602951821290    -4.891300969743
H                    -7.658470423323     0.936729363135    -4.265348629843
H                    -7.101920325491     2.258809428782    -3.217598067829
