31
0 1 C11H15N3O2
C                     2.890889587864    -1.890861168644    -2.781480511482
C                     2.968818827459    -0.858334960897    -1.847348069633
C                     2.859548877058    -3.209262611285    -2.315390585469
C                     2.979747194126    -2.527579894067    -0.132733710256
C                     3.011312170234    -1.170260875482    -0.484104076075
C                     4.873807609433     1.636889472145     1.065713138464
C                     2.438485623880    -0.390375954516     1.900814790889
C                     3.778029796921     2.694275975449     1.042393304227
C                     0.331523172358    -1.159806037750     2.937606230456
C                     5.505601356641    -0.723068031707     0.966620768688
C                     3.136419447323    -0.060859893109     0.550319491269
N                     2.903424414832    -3.531968230784    -1.015467069089
N                     1.133093293866    -0.772252190590     1.782389169851
N                     4.522220143371     0.337484427721     0.743989534282
O                     6.031246902108     1.944789237176     1.342192234012
O                     3.005584546609    -0.236017793262     2.976904882784
H                     2.855802297115    -1.684968359756    -3.847415761497
H                     3.006799024183     0.179826285631    -2.170656358474
H                     2.797786181169    -4.041227015449    -3.015062539086
H                     3.021254976097    -2.821026448321     0.915395700306
H                     2.975516607539     2.458036377560     1.747292851338
H                     4.236903301562     3.638771437493     1.333073949745
H                     3.340848858969     2.812286758597     0.044952021807
H                     0.382206421486    -2.239506647544     3.122854883837
H                    -0.710553011842    -0.872512131672     2.774706974393
H                     0.717511850915    -0.638628727064     3.813870874148
H                     5.198445921691    -1.357294258383     1.804539585954
H                     6.455307758972    -0.250398490885     1.208213978333
H                     5.623802283744    -1.336006157712     0.068688434928
H                     2.595274026183     0.797790002313     0.148525310742
H                     0.790391168264    -1.013185442169     0.861059953651
