
  -OEChem-05262117483D

 34 36  0     1  0  0  0  0  0999 V2000
    3.3891   -4.4940    0.7280 C   0  0  0  0  0  0  0  0  0  0  0  0
    3.7704   -5.6431    1.3842 C   0  0  0  0  0  0  0  0  0  0  0  0
   -0.5423   -4.6989    1.8202 C   0  0  0  0  0  0  0  0  0  0  0  0
    1.9799   -4.3313    0.9697 C   0  0  0  0  0  0  0  0  0  0  0  0
    1.5629   -5.4126    1.7757 C   0  0  0  0  0  0  0  0  0  0  0  0
    0.9568   -3.4102    0.6246 C   0  0  0  0  0  0  0  0  0  0  0  0
   -0.3041    0.7281   -1.8464 C   0  0  0  0  0  0  0  0  0  0  0  0
    0.6417   -0.4624   -1.6503 C   0  0  0  0  0  0  0  0  0  0  0  0
   -0.3955    1.5743   -0.5750 C   0  0  0  0  0  0  0  0  0  0  0  0
    0.1349   -0.3245    0.8148 C   0  0  0  0  0  0  0  0  0  0  0  0
    0.2459   -1.2546   -0.4028 C   0  0  2  0  0  0  0  0  0  0  0  0
   -1.0287    1.5638    1.7577 C   0  0  0  0  0  0  0  0  0  0  0  0
    0.3147   -5.6379    2.2238 N   0  0  0  0  0  0  0  0  0  0  0  0
   -0.2984   -3.6113    1.0631 N   0  0  0  0  0  0  0  0  0  0  0  0
    2.6651   -6.1975    2.0179 N   0  0  0  0  0  0  0  0  0  0  0  0
   -0.8144    0.7570    0.5632 N   0  0  1  0  0  0  0  0  0  0  0  0
    1.2100   -2.3273   -0.1705 N   0  0  0  0  0  0  0  0  0  0  0  0
    4.0485   -3.8635    0.1452 H   0  0  0  0  0  0  0  0  0  0  0  0
    4.7408   -6.1159    1.4511 H   0  0  0  0  0  0  0  0  0  0  0  0
   -1.5744   -4.8185    2.1456 H   0  0  0  0  0  0  0  0  0  0  0  0
    0.0380    1.3511   -2.6804 H   0  0  0  0  0  0  0  0  0  0  0  0
   -1.3061    0.3626   -2.0985 H   0  0  0  0  0  0  0  0  0  0  0  0
    0.6371   -1.1188   -2.5272 H   0  0  0  0  0  0  0  0  0  0  0  0
    1.6705   -0.0900   -1.5291 H   0  0  0  0  0  0  0  0  0  0  0  0
    0.5850    2.0583   -0.3811 H   0  0  0  0  0  0  0  0  0  0  0  0
   -1.1277    2.3774   -0.7126 H   0  0  0  0  0  0  0  0  0  0  0  0
   -0.2093   -0.9090    1.6722 H   0  0  0  0  0  0  0  0  0  0  0  0
    1.1454    0.0680    1.0582 H   0  0  0  0  0  0  0  0  0  0  0  0
   -0.7289   -1.7218   -0.5563 H   0  0  0  0  0  0  0  0  0  0  0  0
   -1.3910    0.9280    2.5716 H   0  0  0  0  0  0  0  0  0  0  0  0
   -1.7887    2.3265    1.5583 H   0  0  0  0  0  0  0  0  0  0  0  0
   -0.1103    2.0763    2.1041 H   0  0  0  0  0  0  0  0  0  0  0  0
    2.6477   -7.0435    2.5710 H   0  0  0  0  0  0  0  0  0  0  0  0
    2.1850   -2.1051   -0.3238 H   0  0  0  0  0  0  0  0  0  0  0  0
  1  2  2  0  0  0  0
  1  4  1  0  0  0  0
  1 18  1  0  0  0  0
  2 15  1  0  0  0  0
  2 19  1  0  0  0  0
  3 13  1  0  0  0  0
  3 14  2  0  0  0  0
  3 20  1  0  0  0  0
  4  5  1  0  0  0  0
  4  6  2  0  0  0  0
  5 13  2  0  0  0  0
  5 15  1  0  0  0  0
  6 14  1  0  0  0  0
  6 17  1  0  0  0  0
  7  8  1  0  0  0  0
  7  9  1  0  0  0  0
  7 21  1  0  0  0  0
  7 22  1  0  0  0  0
  8 11  1  0  0  0  0
  8 23  1  0  0  0  0
  8 24  1  0  0  0  0
  9 16  1  0  0  0  0
  9 25  1  0  0  0  0
  9 26  1  0  0  0  0
 10 11  1  0  0  0  0
 10 16  1  0  0  0  0
 10 27  1  0  0  0  0
 10 28  1  0  0  0  0
 11 17  1  0  0  0  0
 11 29  1  0  0  0  0
 12 16  1  0  0  0  0
 12 30  1  0  0  0  0
 12 31  1  0  0  0  0
 12 32  1  0  0  0  0
 15 33  1  0  0  0  0
 17 34  1  0  0  0  0
M  END
$$$$
