21
0 1 C8H8N4O
C                    -1.524805156251    -0.283348593633     0.697642712475
C                    -0.182931936720    -0.517492591559     0.311537239216
C                    -2.517635754677    -1.224624086434     0.451955216417
C                     0.206874586075    -1.685526906301    -0.339028799660
C                    -2.137992789310    -2.405864886320    -0.203379439392
C                    -0.803744309579    -2.624277800466    -0.602424316764
C                     0.187344168676    -4.665074653537    -1.800572397323
C                     2.234169117484    -4.542151862308    -3.125961000602
N                    -2.893215962009    -3.514970958234    -0.557956629691
N                    -2.131248891436    -4.380636108311    -1.126299489289
N                    -0.842328958972    -3.877261641935    -1.181486084106
N                     1.156337476930    -3.893017872216    -2.382227185915
O                     0.178555360724    -5.878183854451    -1.765561667933
H                    -1.774413728438     0.644974620174     1.203216846806
H                     0.568902469790     0.233902751327     0.537012234910
H                    -3.548349228847    -1.067754868188     0.754877672898
H                     1.244518313166    -1.863623523301    -0.600009760528
H                     3.020011420235    -3.807975189133    -3.315557702036
H                     1.882908894609    -4.957989056605    -4.076980942481
H                     2.641110361318    -5.355688638505    -2.524301942878
H                     0.898420489154    -2.952492826784    -2.654878737407
