
  -OEChem-05262117483D

 31 31  0     1  0  0  0  0  0999 V2000
    2.8909   -1.8909   -2.7815 C   0  0  0  0  0  0  0  0  0  0  0  0
    2.9688   -0.8583   -1.8473 C   0  0  0  0  0  0  0  0  0  0  0  0
    2.8595   -3.2093   -2.3154 C   0  0  0  0  0  0  0  0  0  0  0  0
    2.9797   -2.5276   -0.1327 C   0  0  0  0  0  0  0  0  0  0  0  0
    3.0113   -1.1703   -0.4841 C   0  0  0  0  0  0  0  0  0  0  0  0
    4.8738    1.6369    1.0657 C   0  0  0  0  0  0  0  0  0  0  0  0
    2.4385   -0.3904    1.9008 C   0  0  0  0  0  0  0  0  0  0  0  0
    3.7780    2.6943    1.0424 C   0  0  0  0  0  0  0  0  0  0  0  0
    0.3315   -1.1598    2.9376 C   0  0  0  0  0  0  0  0  0  0  0  0
    5.5056   -0.7231    0.9666 C   0  0  0  0  0  0  0  0  0  0  0  0
    3.1364   -0.0609    0.5503 C   0  0  1  0  0  0  0  0  0  0  0  0
    2.9034   -3.5320   -1.0155 N   0  0  0  0  0  0  0  0  0  0  0  0
    1.1331   -0.7723    1.7824 N   0  0  0  0  0  0  0  0  0  0  0  0
    4.5222    0.3375    0.7440 N   0  0  0  0  0  0  0  0  0  0  0  0
    6.0312    1.9448    1.3422 O   0  0  0  0  0  0  0  0  0  0  0  0
    3.0056   -0.2360    2.9769 O   0  0  0  0  0  0  0  0  0  0  0  0
    2.8558   -1.6850   -3.8474 H   0  0  0  0  0  0  0  0  0  0  0  0
    3.0068    0.1798   -2.1707 H   0  0  0  0  0  0  0  0  0  0  0  0
    2.7978   -4.0412   -3.0151 H   0  0  0  0  0  0  0  0  0  0  0  0
    3.0213   -2.8210    0.9154 H   0  0  0  0  0  0  0  0  0  0  0  0
    2.9755    2.4580    1.7473 H   0  0  0  0  0  0  0  0  0  0  0  0
    4.2369    3.6388    1.3331 H   0  0  0  0  0  0  0  0  0  0  0  0
    3.3408    2.8123    0.0450 H   0  0  0  0  0  0  0  0  0  0  0  0
    0.3822   -2.2395    3.1229 H   0  0  0  0  0  0  0  0  0  0  0  0
   -0.7106   -0.8725    2.7747 H   0  0  0  0  0  0  0  0  0  0  0  0
    0.7175   -0.6386    3.8139 H   0  0  0  0  0  0  0  0  0  0  0  0
    5.1984   -1.3573    1.8045 H   0  0  0  0  0  0  0  0  0  0  0  0
    6.4553   -0.2504    1.2082 H   0  0  0  0  0  0  0  0  0  0  0  0
    5.6238   -1.3360    0.0687 H   0  0  0  0  0  0  0  0  0  0  0  0
    2.5953    0.7978    0.1485 H   0  0  0  0  0  0  0  0  0  0  0  0
    0.7904   -1.0132    0.8611 H   0  0  0  0  0  0  0  0  0  0  0  0
  1  2  1  0  0  0  0
  1  3  2  0  0  0  0
  1 17  1  0  0  0  0
  2  5  2  0  0  0  0
  2 18  1  0  0  0  0
  3 12  1  0  0  0  0
  3 19  1  0  0  0  0
  4  5  1  0  0  0  0
  4 12  2  0  0  0  0
  4 20  1  0  0  0  0
  5 11  1  0  0  0  0
  6  8  1  0  0  0  0
  6 14  1  0  0  0  0
  6 15  2  0  0  0  0
  7 11  1  0  0  0  0
  7 13  1  0  0  0  0
  7 16  2  0  0  0  0
  8 21  1  0  0  0  0
  8 22  1  0  0  0  0
  8 23  1  0  0  0  0
  9 13  1  0  0  0  0
  9 24  1  0  0  0  0
  9 25  1  0  0  0  0
  9 26  1  0  0  0  0
 10 14  1  0  0  0  0
 10 27  1  0  0  0  0
 10 28  1  0  0  0  0
 10 29  1  0  0  0  0
 11 14  1  0  0  0  0
 11 30  1  0  0  0  0
 13 31  1  0  0  0  0
M  END
$$$$
