
  -OEChem-05262117483D

 24 24  0     0  0  0  0  0  0999 V2000
    1.7115   -1.1286   -0.3949 C   0  0  0  0  0  0  0  0  0  0  0  0
    0.6273   -0.5118    0.2316 C   0  0  0  0  0  0  0  0  0  0  0  0
    2.7033   -1.7541    0.3614 C   0  0  0  0  0  0  0  0  0  0  0  0
    1.5236   -1.1319    2.4145 C   0  0  0  0  0  0  0  0  0  0  0  0
    0.5317   -0.5132    1.6296 C   0  0  0  0  0  0  0  0  0  0  0  0
    2.5958   -1.7548    1.7543 C   0  0  0  0  0  0  0  0  0  0  0  0
    1.4456   -1.0698    3.9220 C   0  0  0  0  0  0  0  0  0  0  0  0
    1.6182   -2.3642    6.0013 C   0  0  0  0  0  0  0  0  0  0  0  0
    4.5480   -1.5685    3.0885 C   0  0  0  0  0  0  0  0  0  0  0  0
    1.5088   -2.2825    4.5512 N   0  0  0  0  0  0  0  0  0  0  0  0
    1.3267   -0.0063    4.5277 O   0  0  0  0  0  0  0  0  0  0  0  0
   -0.5342    0.0458    2.2762 O   0  0  0  0  0  0  0  0  0  0  0  0
    3.5661   -2.4263    2.4834 O   0  0  0  0  0  0  0  0  0  0  0  0
    1.7774   -1.1239   -1.4795 H   0  0  0  0  0  0  0  0  0  0  0  0
   -0.1506   -0.0352   -0.3624 H   0  0  0  0  0  0  0  0  0  0  0  0
    3.5516   -2.2479   -0.1020 H   0  0  0  0  0  0  0  0  0  0  0  0
    2.6274   -2.1133    6.3536 H   0  0  0  0  0  0  0  0  0  0  0  0
    1.3683   -3.3785    6.3216 H   0  0  0  0  0  0  0  0  0  0  0  0
    0.9164   -1.6611    6.4518 H   0  0  0  0  0  0  0  0  0  0  0  0
    5.2460   -2.2237    3.6131 H   0  0  0  0  0  0  0  0  0  0  0  0
    4.0882   -0.8736    3.7996 H   0  0  0  0  0  0  0  0  0  0  0  0
    5.0824   -0.9991    2.3187 H   0  0  0  0  0  0  0  0  0  0  0  0
    1.8423   -3.0636    4.0005 H   0  0  0  0  0  0  0  0  0  0  0  0
   -1.1365    0.4260    1.6174 H   0  0  0  0  0  0  0  0  0  0  0  0
  1  2  1  0  0  0  0
  1  3  2  0  0  0  0
  1 14  1  0  0  0  0
  2  5  2  0  0  0  0
  2 15  1  0  0  0  0
  3  6  1  0  0  0  0
  3 16  1  0  0  0  0
  4  5  1  0  0  0  0
  4  6  2  0  0  0  0
  4  7  1  0  0  0  0
  5 12  1  0  0  0  0
  6 13  1  0  0  0  0
  7 10  1  0  0  0  0
  7 11  2  0  0  0  0
  8 10  1  0  0  0  0
  8 17  1  0  0  0  0
  8 18  1  0  0  0  0
  8 19  1  0  0  0  0
  9 13  1  0  0  0  0
  9 20  1  0  0  0  0
  9 21  1  0  0  0  0
  9 22  1  0  0  0  0
 10 23  1  0  0  0  0
 12 24  1  0  0  0  0
M  END
$$$$
