
  -OEChem-05262117483D

 33 33  0     1  0  0  0  0  0999 V2000
   -1.1525   -1.8213    0.3439 C   0  0  0  0  0  0  0  0  0  0  0  0
   -1.8079   -2.1685    1.6940 C   0  0  0  0  0  0  0  0  0  0  0  0
    0.2871   -2.3790    0.4296 C   0  0  0  0  0  0  0  0  0  0  0  0
   -1.1333   -3.4786    2.0948 C   0  0  2  0  0  0  0  0  0  0  0  0
   -1.3114   -3.9183    3.5504 C   0  0  0  0  0  0  0  0  0  0  0  0
    0.6845   -8.9539    2.7301 C   0  0  0  0  0  0  0  0  0  0  0  0
   -0.4272   -5.0721    4.0665 C   0  0  0  0  0  0  0  0  0  0  0  0
    0.4321   -7.8123    3.7181 C   0  0  0  0  0  0  0  0  0  0  0  0
    1.3218  -10.1346    3.4448 C   0  0  0  0  0  0  0  0  0  0  0  0
    0.3151   -3.2213    1.7026 N   0  3  0  0  0  0  0  0  0  0  0  0
    0.7465   -5.9255    1.8545 O   0  0  0  0  0  0  0  0  0  0  0  0
   -1.6199   -6.7392    2.3372 O   0  0  0  0  0  0  0  0  0  0  0  0
    2.5084   -9.7858    4.0032 F   0  0  0  0  0  0  0  0  0  0  0  0
    0.5284  -10.5941    4.4427 F   0  0  0  0  0  0  0  0  0  0  0  0
    1.5462  -11.1468    2.5903 F   0  0  0  0  0  0  0  0  0  0  0  0
   -0.2781   -6.4048    2.8305 S   0  0  0  0  0  0  0  0  0  0  0  0
   -1.6890   -2.3056   -0.4746 H   0  0  0  0  0  0  0  0  0  0  0  0
   -1.1525   -0.7479    0.1497 H   0  0  0  0  0  0  0  0  0  0  0  0
   -1.6087   -1.3954    2.4454 H   0  0  0  0  0  0  0  0  0  0  0  0
   -2.8903   -2.2858    1.6165 H   0  0  0  0  0  0  0  0  0  0  0  0
    0.5433   -3.0355   -0.4013 H   0  0  0  0  0  0  0  0  0  0  0  0
    1.0547   -1.6106    0.5193 H   0  0  0  0  0  0  0  0  0  0  0  0
   -1.4588   -4.2781    1.4243 H   0  0  0  0  0  0  0  0  0  0  0  0
   -2.3600   -4.2090    3.6485 H   0  0  0  0  0  0  0  0  0  0  0  0
   -1.1564   -3.0657    4.2215 H   0  0  0  0  0  0  0  0  0  0  0  0
    1.3641   -8.6411    1.9346 H   0  0  0  0  0  0  0  0  0  0  0  0
   -0.2498   -9.2975    2.2813 H   0  0  0  0  0  0  0  0  0  0  0  0
    0.5956   -4.7611    4.2962 H   0  0  0  0  0  0  0  0  0  0  0  0
   -0.8706   -5.5015    4.9685 H   0  0  0  0  0  0  0  0  0  0  0  0
   -0.2920   -8.0928    4.4868 H   0  0  0  0  0  0  0  0  0  0  0  0
    1.3583   -7.4613    4.1800 H   0  0  0  0  0  0  0  0  0  0  0  0
    0.7890   -4.1429    1.5857 H   0  0  0  0  0  0  0  0  0  0  0  0
    0.7959   -2.7116    2.4493 H   0  0  0  0  0  0  0  0  0  0  0  0
  1  2  1  0  0  0  0
  1  3  1  0  0  0  0
  1 17  1  0  0  0  0
  1 18  1  0  0  0  0
  2  4  1  0  0  0  0
  2 19  1  0  0  0  0
  2 20  1  0  0  0  0
  3 10  1  0  0  0  0
  3 21  1  0  0  0  0
  3 22  1  0  0  0  0
  4  5  1  0  0  0  0
  4 10  1  0  0  0  0
  4 23  1  0  0  0  0
  5  7  1  0  0  0  0
  5 24  1  0  0  0  0
  5 25  1  0  0  0  0
  6  8  1  0  0  0  0
  6  9  1  0  0  0  0
  6 26  1  0  0  0  0
  6 27  1  0  0  0  0
  7 16  1  0  0  0  0
  7 28  1  0  0  0  0
  7 29  1  0  0  0  0
  8 16  1  0  0  0  0
  8 30  1  0  0  0  0
  8 31  1  0  0  0  0
  9 13  1  0  0  0  0
  9 14  1  0  0  0  0
  9 15  1  0  0  0  0
 10 32  1  0  0  0  0
 10 33  1  0  0  0  0
 11 16  2  0  0  0  0
 12 16  2  0  0  0  0
M  CHG  1  10   1
M  END
$$$$
