
  -OEChem-05262117483D

 33 33  0     1  0  0  0  0  0999 V2000
   -0.4544   -1.3692   -0.5706 C   0  0  0  0  0  0  0  0  0  0  0  0
   -0.2500   -2.6227    0.2901 C   0  0  0  0  0  0  0  0  0  0  0  0
   -1.3869   -0.4889    0.2687 C   0  0  0  0  0  0  0  0  0  0  0  0
   -0.0801   -2.0614    1.6993 C   0  0  2  0  0  0  0  0  0  0  0  0
   -0.3488   -2.9898    2.8852 C   0  0  0  0  0  0  0  0  0  0  0  0
    4.7767   -4.6284    3.6173 C   0  0  0  0  0  0  0  0  0  0  0  0
    0.6044   -4.1907    2.9540 C   0  0  0  0  0  0  0  0  0  0  0  0
    3.2922   -4.9994    3.6129 C   0  0  0  0  0  0  0  0  0  0  0  0
    5.6132   -5.7992    4.1041 C   0  0  0  0  0  0  0  0  0  0  0  0
   -1.0704   -0.8766    1.7246 N   0  3  0  0  0  0  0  0  0  0  0  0
    2.3737   -2.5007    3.9971 O   0  0  0  0  0  0  0  0  0  0  0  0
    2.7204   -3.3080    1.6079 O   0  0  0  0  0  0  0  0  0  0  0  0
    5.2605   -6.1703    5.3602 F   0  0  0  0  0  0  0  0  0  0  0  0
    5.4532   -6.8851    3.3064 F   0  0  0  0  0  0  0  0  0  0  0  0
    6.9205   -5.4842    4.1169 F   0  0  0  0  0  0  0  0  0  0  0  0
    2.3304   -3.5899    3.0048 S   0  0  0  0  0  0  0  0  0  0  0  0
    0.5009   -0.8648   -0.7401 H   0  0  0  0  0  0  0  0  0  0  0  0
   -0.8974   -1.5860   -1.5441 H   0  0  0  0  0  0  0  0  0  0  0  0
   -1.1216   -3.2863    0.2367 H   0  0  0  0  0  0  0  0  0  0  0  0
    0.6386   -3.1864    0.0032 H   0  0  0  0  0  0  0  0  0  0  0  0
   -1.2348    0.5838    0.1522 H   0  0  0  0  0  0  0  0  0  0  0  0
   -2.4391   -0.7212    0.1024 H   0  0  0  0  0  0  0  0  0  0  0  0
    0.9047   -1.6005    1.7852 H   0  0  0  0  0  0  0  0  0  0  0  0
   -1.3698   -3.3869    2.8198 H   0  0  0  0  0  0  0  0  0  0  0  0
   -0.2601   -2.4297    3.8214 H   0  0  0  0  0  0  0  0  0  0  0  0
    4.9663   -3.7833    4.2826 H   0  0  0  0  0  0  0  0  0  0  0  0
    5.1177   -4.3684    2.6130 H   0  0  0  0  0  0  0  0  0  0  0  0
    0.4151   -4.7576    3.8690 H   0  0  0  0  0  0  0  0  0  0  0  0
    0.5203   -4.8524    2.0895 H   0  0  0  0  0  0  0  0  0  0  0  0
    3.0866   -5.8374    2.9419 H   0  0  0  0  0  0  0  0  0  0  0  0
    2.9270   -5.2211    4.6183 H   0  0  0  0  0  0  0  0  0  0  0  0
   -0.6703   -0.0917    2.2474 H   0  0  0  0  0  0  0  0  0  0  0  0
   -1.9297   -1.1400    2.2167 H   0  0  0  0  0  0  0  0  0  0  0  0
  1  2  1  0  0  0  0
  1  3  1  0  0  0  0
  1 17  1  0  0  0  0
  1 18  1  0  0  0  0
  2  4  1  0  0  0  0
  2 19  1  0  0  0  0
  2 20  1  0  0  0  0
  3 10  1  0  0  0  0
  3 21  1  0  0  0  0
  3 22  1  0  0  0  0
  4  5  1  0  0  0  0
  4 10  1  0  0  0  0
  4 23  1  0  0  0  0
  5  7  1  0  0  0  0
  5 24  1  0  0  0  0
  5 25  1  0  0  0  0
  6  8  1  0  0  0  0
  6  9  1  0  0  0  0
  6 26  1  0  0  0  0
  6 27  1  0  0  0  0
  7 16  1  0  0  0  0
  7 28  1  0  0  0  0
  7 29  1  0  0  0  0
  8 16  1  0  0  0  0
  8 30  1  0  0  0  0
  8 31  1  0  0  0  0
  9 13  1  0  0  0  0
  9 14  1  0  0  0  0
  9 15  1  0  0  0  0
 10 32  1  0  0  0  0
 10 33  1  0  0  0  0
 11 16  2  0  0  0  0
 12 16  2  0  0  0  0
M  CHG  1  10   1
M  END
$$$$
