68
1 1 C26H37N2O3
C                     2.032626071182    -0.431506464887    -4.494306389473
C                     3.566547654289     7.935263289207    -0.794540954783
C                     1.220145765536     0.646001567928    -4.129777471383
C                     3.423044039481    -0.333333201840    -4.369665862560
C                     3.515816625751     7.087561138922     0.316854491206
C                     4.189701588680     7.507875145962    -1.971670132410
C                     1.792081854814     1.817457129756    -3.627728149411
C                     3.995771047601     0.841456414545    -3.878240318144
C                     4.077372491283     5.811261135705     0.246969856485
C                     4.749756892854     6.230450059078    -2.040783025670
C                     3.183292017272     1.920817954041    -3.496114580307
C                     4.687529521165     5.366603124854    -0.936421276163
C                     0.257738099420     1.641582834787     0.394044676617
C                    -2.486793052544    -0.033150396323    -1.238558565958
C                    -1.943755209031     1.300296057136    -0.699564615312
C                    -0.723399577105    -0.688290214374     0.107136228511
C                    -1.702482029887     2.289814043266    -1.841996765090
C                    -2.869574054646     1.892585513752     0.372458749719
C                    -0.611789705622    -1.136536792854     1.562354697978
C                     0.303472012306    -1.372804818143    -0.801126718631
C                     2.687514112009     0.975091789851     2.898294353989
C                     3.811689325222     3.161179215085    -2.923436230031
C                     5.278989937012     3.987307784177    -1.014865352267
C                     3.514780369770     2.031584020711     0.746173141708
C                     3.106905869007     2.714884580832    -0.553510350473
C                     2.303166020391     1.758575301061     1.650700330581
N                    -0.685651599216     0.800572506047    -0.076901709746
N                     4.280249021821     2.922083748333    -1.487809467268
O                     0.221235857603     2.870375953915     0.340593428502
O                    -2.049474766647    -1.015172534346    -0.308754243348
O                     1.332524335710     0.964523628819     0.928904499098
H                     1.586155887681    -1.341808945667    -4.884008457979
H                     3.134118537185     8.930110555524    -0.739081399778
H                     0.142116577837     0.575411958035    -4.240396866005
H                     4.057382208304    -1.162660948802    -4.668518417113
H                     3.047288626866     7.422593952127     1.237495311355
H                     4.248681225199     8.171418202867    -2.829433079201
H                     1.156931690020     2.651550556717    -3.340061681409
H                     5.080796905252     0.922992912308    -3.818008611302
H                     4.050505153569     5.166954405964     1.122702391325
H                     5.251309724892     5.914904747000    -2.952959158909
H                    -3.577022357334    -0.063524691956    -1.272288162613
H                    -2.091166892791    -0.238563659531    -2.243841699004
H                    -1.350363693248     3.251408385176    -1.468619850576
H                    -2.640227990070     2.447523235082    -2.385036587727
H                    -0.966298928400     1.890493210562    -2.545425823985
H                    -2.385087362280     2.736332911071     0.869192920536
H                    -3.123972373811     1.136411774738     1.120332169556
H                    -3.797531760462     2.249924321161    -0.085298238633
H                    -1.283214745953    -0.545666568350     2.190086136951
H                     0.407949855598    -1.045816567478     1.933976622731
H                    -0.919262673357    -2.183834770766     1.619939841419
H                     0.141203307932    -1.092145264965    -1.844913076574
H                     0.200592659906    -2.457350415725    -0.710208274056
H                     1.319250264054    -1.087891055907    -0.519453394212
H                     3.110815054523     0.000732931604     2.635592016697
H                     1.807650650526     0.811815278062     3.525103140745
H                     3.427375847085     1.528514376283     3.485120823212
H                     4.700701223490     3.456772646575    -3.484537082539
H                     3.124458364870     4.005888751824    -2.887726536922
H                     6.107015611696     3.942119230740    -1.725696086892
H                     5.643754878721     3.646590956841    -0.045641132246
H                     4.222081852240     2.639908658082     1.318839897711
H                     4.007296765379     1.075582970790     0.523135049403
H                     2.405208754204     2.085080751606    -1.094703630400
H                     2.638394533913     3.684814813212    -0.397156561413
H                     1.833953779498     2.707168166372     1.919253801458
H                     4.795541072283     2.035116770727    -1.508414119697
