
  -OEChem-05262117483D

 29 31  0     0  0  0  0  0  0999 V2000
    1.3418    0.4738    1.7191 C   0  0  0  0  0  0  0  0  0  0  0  0
    0.0110    0.1451    1.4314 C   0  0  0  0  0  0  0  0  0  0  0  0
    1.6681    1.1366    2.9106 C   0  0  0  0  0  0  0  0  0  0  0  0
   -1.0114    0.4750    2.3322 C   0  0  0  0  0  0  0  0  0  0  0  0
    0.6505    1.4636    3.8064 C   0  0  0  0  0  0  0  0  0  0  0  0
   -0.6834    1.1324    3.5174 C   0  0  0  0  0  0  0  0  0  0  0  0
    0.1530    0.5464    7.7676 C   0  0  0  0  0  0  0  0  0  0  0  0
    0.7328    2.1797    5.1380 C   0  0  0  0  0  0  0  0  0  0  0  0
   -1.5889    1.6051    4.6374 C   0  0  0  0  0  0  0  0  0  0  0  0
    1.0881    1.0215    9.7045 C   0  0  0  0  0  0  0  0  0  0  0  0
    1.1458   -0.5123    9.4830 C   0  0  0  0  0  0  0  0  0  0  0  0
   -0.6119    1.8070    5.8196 C   0  0  0  0  0  0  0  0  0  0  0  0
    0.5417    1.5606    8.4516 N   0  0  0  0  0  0  0  0  0  0  0  0
   -0.5242    0.5568    6.5805 N   0  0  0  0  0  0  0  0  0  0  0  0
    0.3773   -0.7157    8.2668 O   0  0  0  0  0  0  0  0  0  0  0  0
    2.1267    0.2078    1.0155 H   0  0  0  0  0  0  0  0  0  0  0  0
   -0.2289   -0.3739    0.5067 H   0  0  0  0  0  0  0  0  0  0  0  0
    2.7036    1.3860    3.1324 H   0  0  0  0  0  0  0  0  0  0  0  0
   -2.0437    0.2146    2.1080 H   0  0  0  0  0  0  0  0  0  0  0  0
    1.5907    1.8981    5.7535 H   0  0  0  0  0  0  0  0  0  0  0  0
    0.7867    3.2660    4.9859 H   0  0  0  0  0  0  0  0  0  0  0  0
   -2.0533    2.5632    4.3714 H   0  0  0  0  0  0  0  0  0  0  0  0
   -2.3957    0.9089    4.8850 H   0  0  0  0  0  0  0  0  0  0  0  0
    0.4366    1.2888   10.5463 H   0  0  0  0  0  0  0  0  0  0  0  0
    2.0778    1.4434    9.9078 H   0  0  0  0  0  0  0  0  0  0  0  0
    2.1606   -0.8822    9.3049 H   0  0  0  0  0  0  0  0  0  0  0  0
    0.6795   -1.0996   10.2769 H   0  0  0  0  0  0  0  0  0  0  0  0
   -0.9398    2.5775    6.5172 H   0  0  0  0  0  0  0  0  0  0  0  0
   -0.4116   -0.2911    6.0346 H   0  0  0  0  0  0  0  0  0  0  0  0
  1  2  1  0  0  0  0
  1  3  2  0  0  0  0
  1 16  1  0  0  0  0
  2  4  2  0  0  0  0
  2 17  1  0  0  0  0
  3  5  1  0  0  0  0
  3 18  1  0  0  0  0
  4  6  1  0  0  0  0
  4 19  1  0  0  0  0
  5  6  2  0  0  0  0
  5  8  1  0  0  0  0
  6  9  1  0  0  0  0
  7 13  2  0  0  0  0
  7 14  1  0  0  0  0
  7 15  1  0  0  0  0
  8 12  1  0  0  0  0
  8 20  1  0  0  0  0
  8 21  1  0  0  0  0
  9 12  1  0  0  0  0
  9 22  1  0  0  0  0
  9 23  1  0  0  0  0
 10 11  1  0  0  0  0
 10 13  1  0  0  0  0
 10 24  1  0  0  0  0
 10 25  1  0  0  0  0
 11 15  1  0  0  0  0
 11 26  1  0  0  0  0
 11 27  1  0  0  0  0
 12 14  1  0  0  0  0
 12 28  1  0  0  0  0
 14 29  1  0  0  0  0
M  END
$$$$
