
  -OEChem-05262117483D

 32 32  0     1  0  0  0  0  0999 V2000
   -1.5376   -2.3180   -1.3191 C   0  0  0  0  0  0  0  0  0  0  0  0
   -0.5257   -3.1709   -2.1329 C   0  0  0  0  0  0  0  0  0  0  0  0
   -0.7695   -1.9232   -0.0416 C   0  0  0  0  0  0  0  0  0  0  0  0
    0.7488   -3.2067   -1.2643 C   0  0  2  0  0  0  0  0  0  0  0  0
    1.5387   -4.5150   -1.3344 C   0  0  0  0  0  0  0  0  0  0  0  0
    4.9464   -3.6429   -5.4928 C   0  0  0  0  0  0  0  0  0  0  0  0
    2.0171   -4.9063   -2.7352 C   0  0  0  0  0  0  0  0  0  0  0  0
    3.9869   -4.5938   -4.7783 C   0  0  0  0  0  0  0  0  0  0  0  0
    5.6638   -4.3314   -6.6340 C   0  0  0  0  0  0  0  0  0  0  0  0
    0.2249   -2.9993    0.0958 N   0  0  0  0  0  0  0  0  0  0  0  0
    4.2094   -3.3975   -2.4051 O   0  0  0  0  0  0  0  0  0  0  0  0
    2.4186   -2.5762   -4.0309 O   0  0  0  0  0  0  0  0  0  0  0  0
    6.3982   -5.3912   -6.2059 F   0  0  0  0  0  0  0  0  0  0  0  0
    4.7963   -4.8040   -7.5669 F   0  0  0  0  0  0  0  0  0  0  0  0
    6.5089   -3.4837   -7.2630 F   0  0  0  0  0  0  0  0  0  0  0  0
    3.1791   -3.6838   -3.4205 S   0  0  0  0  0  0  0  0  0  0  0  0
   -1.8789   -1.4374   -1.8693 H   0  0  0  0  0  0  0  0  0  0  0  0
   -2.4200   -2.9110   -1.0650 H   0  0  0  0  0  0  0  0  0  0  0  0
   -0.9141   -4.1856   -2.2750 H   0  0  0  0  0  0  0  0  0  0  0  0
   -0.3127   -2.7520   -3.1188 H   0  0  0  0  0  0  0  0  0  0  0  0
   -0.2998   -0.9342   -0.1784 H   0  0  0  0  0  0  0  0  0  0  0  0
   -1.4103   -1.8743    0.8442 H   0  0  0  0  0  0  0  0  0  0  0  0
    1.4006   -2.3734   -1.5721 H   0  0  0  0  0  0  0  0  0  0  0  0
    0.8960   -5.3237   -0.9684 H   0  0  0  0  0  0  0  0  0  0  0  0
    2.4072   -4.4637   -0.6695 H   0  0  0  0  0  0  0  0  0  0  0  0
    5.7048   -3.2699   -4.8004 H   0  0  0  0  0  0  0  0  0  0  0  0
    4.4049   -2.7881   -5.9043 H   0  0  0  0  0  0  0  0  0  0  0  0
    2.5621   -5.8548   -2.7040 H   0  0  0  0  0  0  0  0  0  0  0  0
    1.1987   -4.9812   -3.4554 H   0  0  0  0  0  0  0  0  0  0  0  0
    3.1983   -4.9500   -5.4456 H   0  0  0  0  0  0  0  0  0  0  0  0
    4.5135   -5.4402   -4.3321 H   0  0  0  0  0  0  0  0  0  0  0  0
    0.9707   -2.7312    0.7356 H   0  0  0  0  0  0  0  0  0  0  0  0
  1  2  1  0  0  0  0
  1  3  1  0  0  0  0
  1 17  1  0  0  0  0
  1 18  1  0  0  0  0
  2  4  1  0  0  0  0
  2 19  1  0  0  0  0
  2 20  1  0  0  0  0
  3 10  1  0  0  0  0
  3 21  1  0  0  0  0
  3 22  1  0  0  0  0
  4  5  1  0  0  0  0
  4 10  1  0  0  0  0
  4 23  1  0  0  0  0
  5  7  1  0  0  0  0
  5 24  1  0  0  0  0
  5 25  1  0  0  0  0
  6  8  1  0  0  0  0
  6  9  1  0  0  0  0
  6 26  1  0  0  0  0
  6 27  1  0  0  0  0
  7 16  1  0  0  0  0
  7 28  1  0  0  0  0
  7 29  1  0  0  0  0
  8 16  1  0  0  0  0
  8 30  1  0  0  0  0
  8 31  1  0  0  0  0
  9 13  1  0  0  0  0
  9 14  1  0  0  0  0
  9 15  1  0  0  0  0
 10 32  1  0  0  0  0
 11 16  2  0  0  0  0
 12 16  2  0  0  0  0
M  END
$$$$
