68
1 1 C26H37N2O3
C                     1.862762033386    -0.305054903054    -3.671691948652
C                     8.671049973461     3.746629527220    -2.187074425401
C                     0.992066466534     0.719167291859    -3.288742509444
C                     3.246485423126    -0.126994349481    -3.557991446179
C                     7.826208925601     4.806639622342    -2.529607870475
C                     8.298344230279     2.852254507882    -1.176679080658
C                     1.499820948559     1.916930914591    -2.779651357536
C                     3.755497542418     1.073491434908    -3.058751399015
C                     6.602687999023     4.966911958063    -1.872522304862
C                     7.080128850290     3.017569267408    -0.515080093823
C                     2.883706282401     2.099202512236    -2.659440964644
C                     6.220799385494     4.071831847134    -0.864437675911
C                    -0.088049647914     1.700708492465     1.166301867931
C                    -2.855925605988     0.058488231978    -0.462608305099
C                    -2.294342678334     1.385339978493     0.074295554318
C                    -1.089618782458    -0.618724916933     0.867281976960
C                    -2.044624640549     2.371280451507    -1.069515715940
C                    -3.209459279995     1.988331599686     1.149446690045
C                    -0.968143296192    -1.077949726449     2.318231430990
C                    -0.078082896782    -1.307115664394    -0.054915327995
C                     2.355482813110     0.949446623947     3.640803774321
C                     3.449923352475     3.362424477494    -2.073557912552
C                     4.892120548823     4.204687712657    -0.172578642803
C                     3.158955596570     2.096798460168     1.528042773553
C                     2.760696002304     2.920259547485     0.308201422499
C                     1.956490768790     1.783877581299     2.431099759965
N                    -1.039582489512     0.871087237364     0.692357745588
N                     3.923554085491     3.124272078616    -0.640442148572
O                    -0.116904845112     2.930834444943     1.127431076545
O                    -2.422888675940    -0.929415795410     0.462998837881
O                     0.986619063410     1.012047732333     1.684010564880
H                     1.466448975154    -1.236129743104    -4.066584599998
H                     9.622080456550     3.623313419738    -2.697024532465
H                    -0.081075970711     0.587334368218    -3.390932121684
H                     3.924765017578    -0.915453131909    -3.870863021607
H                     8.119338153449     5.508837142990    -3.304479451215
H                     8.961745012599     2.039164706508    -0.896689217116
H                     0.819327197281     2.710718580323    -2.481493326904
H                     4.833621944972     1.219663399341    -3.000660409786
H                     5.952069825608     5.797181550499    -2.138455438362
H                     6.812402710938     2.336744706289     0.292519303487
H                    -3.946613855589     0.040439616604    -0.488353988214
H                    -2.470305081309    -0.150201722978    -1.471002857267
H                    -1.673000995969     3.326321822681    -0.697892891585
H                    -2.983579897661     2.546776469439    -1.604848427052
H                    -1.322283058025     1.959224540595    -1.780404702393
H                    -2.714492576937     2.827038758701     1.644184629795
H                    -3.468822297417     1.234817531792     1.898356995584
H                    -4.135360809549     2.354923102374     0.694894446507
H                    -1.624871190928    -0.482789827430     2.957365104240
H                     0.056713017064    -1.004030438295     2.679156721069
H                    -1.289014221259    -2.121444285493     2.371636026842
H                    -0.250660348936    -1.022370169927    -1.095856956255
H                    -0.187190559116    -2.391258314696     0.033612711993
H                     0.942685437853    -1.029207504621     0.215176027109
H                     2.792544321057    -0.005540316059     3.333049845238
H                     1.479118229009     0.744226473378     4.260035293765
H                     3.087155202761     1.486921714288     4.251898231048
H                     4.324448050915     3.706408989982    -2.626788391782
H                     2.717243213620     4.169801435163    -2.021089235391
H                     4.986802443511     4.085551575962     0.907378575604
H                     4.406192044354     5.160945963869    -0.374304498663
H                     3.908627292863     2.615266563456     2.135089252165
H                     3.597556348729     1.145045930651     1.199967148388
H                     1.992234927211     2.400350764533    -0.256516250408
H                     2.377009488035     3.907520772732     0.569565941593
H                     1.483950410709     2.716997627768     2.744904354192
H                     4.453130936083     2.245854916660    -0.667049538565
