32
0 1 C9F3H16NO2S
C                    -1.078182347459    -1.706617586831    -1.288017923449
C                    -0.214570801841    -2.970878480415    -1.552517896893
C                    -0.313965199511    -0.947723681158    -0.186994017408
C                     0.943013914023    -2.886904777632    -0.529901966486
C                     1.390320753153    -4.231878568151     0.047299991674
C                     3.842473219891    -8.910279724222    -1.226540178905
C                     1.993901655504    -5.128376212533    -1.034782280700
C                     3.287567513782    -7.574840262386    -1.720389979375
C                     4.433519406401    -9.718295562830    -2.361613352262
N                     0.386042136039    -2.026833872063     0.522115578923
O                     1.422417028472    -7.447988759001     0.181532760424
O                     3.694647407337    -6.366572561982     0.622233795765
F                     3.507762733816   -10.008915151881    -3.312742066517
F                     5.443246405618    -9.055375072329    -2.984377547637
F                     4.936474849095   -10.892112043492    -1.917544987701
S                     2.584809075874    -6.678524908969    -0.296881316526
H                    -1.215157259597    -1.094127790343    -2.183035056998
H                    -2.069148442901    -1.993996489352    -0.928046057243
H                    -0.801527713246    -3.879209675542    -1.382615795380
H                     0.162941494988    -3.010250709542    -2.578217829750
H                     0.381386514316    -0.221386043387    -0.643922023201
H                    -0.974971253865    -0.402101145644     0.493126478724
H                     1.812016605936    -2.408183259306    -1.021737131105
H                     0.530106535812    -4.724731240003     0.508684532139
H                     2.136952104116    -4.066365462423     0.831222751720
H                     3.052931576845    -9.509549239918    -0.767225583892
H                     4.629117829379    -8.749561964168    -0.485830490266
H                     1.259519010684    -5.405725497670    -1.795856301229
H                     2.861285562579    -4.661540046109    -1.511774717782
H                     4.072076448716    -6.945412873953    -2.146568381181
H                     2.481957976246    -7.715039991029    -2.444757749688
H                     1.114645080905    -1.668714041425     1.136226144664
