51
0 1 C23H23NO4
C                    -5.486469700729    -9.252000617690   -12.793847512767
C                    -4.586067522298    -9.903902194010   -11.909382008754
C                    -5.639041708977    -7.882459595245   -12.744946516610
C                    -5.006773967158    -5.699270706431   -11.705592806281
C                    -1.729996540746    -0.703607052942    -7.103926790845
C                    -0.460622430030    -2.541118390283    -6.215331450294
C                    -3.853713954574    -9.179373040523   -10.992285003716
C                    -2.385900056765    -1.568543679461    -7.969141875705
C                    -1.111799049447    -3.427434035411    -7.084987665478
C                    -4.253327512236    -5.023146000958   -10.772117978243
C                    -4.897838377377    -7.109647752129   -11.810264958153
C                    -0.750496567145    -1.172420394761    -6.210159293404
C                    -3.989941552072    -7.766379361689   -10.918967506469
C                    -2.079052925750    -2.939747281450    -7.970059839412
C                    -3.381646268161    -5.770073950456    -9.935142525191
C                     1.180958187504     0.436693163566    -6.136327113110
C                    -0.285323535901    -0.711893639971    -1.710539726606
C                     1.201067963989    -0.319640783848    -1.741153945894
C                    -0.551786502791    -1.334740662163    -3.100491331028
C                     1.385190337762     0.202868936845    -3.172779128800
C                     0.571255789639    -0.788627431205    -4.035189156393
C                    -2.512035033039    -5.106784353559    -8.889112884509
C                    -0.001797011723    -0.165177813756    -5.336618393608
N                    -3.250017326459    -7.082258698602    -9.998719446937
O                     1.409055256277     1.629276686459    -6.131431768819
O                     1.979069940145    -0.424265013432    -6.798774021758
O                    -0.878094512028     0.904024735111    -5.013721524173
O                    -2.778847442101    -3.706945522756    -8.858335953812
H                    -6.054991406349    -9.839428803735   -13.509833502363
H                    -4.476396534948   -10.984118825669   -11.959308412760
H                    -6.327336331397    -7.378336877584   -13.419787586339
H                    -5.686046001717    -5.162948629731   -12.364811696901
H                    -1.981955479973     0.351241273039    -7.097640721219
H                     0.260757192993    -2.957657792155    -5.518843545370
H                    -3.160680555524    -9.660125038266   -10.308050911494
H                    -3.145594163048    -1.204987325583    -8.655138551380
H                    -0.862208998463    -4.481342235742    -7.046789564162
H                    -4.309879209627    -3.946906236581   -10.661538166076
H                    -0.534969245745    -1.390745010398    -0.889241783432
H                    -0.895030077224     0.190137742797    -1.588404853784
H                     1.468620443255     0.420510982673    -0.980454434661
H                     1.830688861944    -1.203889092367    -1.577310992236
H                    -0.505334094256    -2.427143996270    -3.055148183762
H                    -1.542547790778    -1.071158573050    -3.476031516688
H                     0.954263702928     1.206302092822    -3.248021931492
H                     2.431821568264     0.269511535634    -3.484432268409
H                     1.242989721291    -1.608978459386    -4.309264559713
H                    -2.720060256750    -5.559646473880    -7.911938390743
H                    -1.457346878418    -5.289879303319    -9.131440301075
H                     1.545582293991    -1.298966525853    -6.831053191304
H                    -0.364810085818     1.723577928104    -5.152145408182
