58
0 1 C26H26O6
C                    -3.763818256086    -2.130495358964    -4.186341440394
C                    -3.393464980777    -2.408856351550    -2.864713942973
C                    -2.872854588220    -1.448842868348    -5.018661869694
C                    -2.145465284827    -2.013404010636    -2.381283234315
C                    -1.620961349231    -1.057032377915    -4.531053777925
C                     1.718003305486     1.737012054699    -3.044491554884
C                    -0.321234443352     2.748807094330    -2.283805505919
C                     2.107479605827     2.936874463042    -3.644618877421
C                     0.050004060762     3.952843440840    -2.878227753073
C                    -2.119092939475     1.089865775921     1.042923031782
C                    -0.494232369134     0.993794145459     2.889465566698
C                    -1.238589681578    -1.335900639776    -3.212344967993
C                     0.504282264590     1.618501749432    -2.357733768919
C                     0.198228412548     0.410088027868     0.656150080848
C                    -1.083849015160     0.671470374943     0.207001519813
C                     1.267830278538     4.056821433922    -3.562625890230
C                    -1.792682201067     1.245283413452     2.398273664604
C                     0.498785372812     0.561285387184     2.007457503442
C                     0.995127984244    -1.993634907856    -2.048689980969
C                     0.127811314426    -0.896621821106    -2.728199991811
C                     1.039283414428    -1.686327816010    -0.548924834147
C                     0.102896402489     0.301606837267    -1.717728874185
C                     0.997848277905    -0.132083901809    -0.483858289136
C                     2.779521566241     5.427617812880    -4.810921814291
C                    -4.020968693630     1.936802085071     2.931059181212
C                     2.158501766499     0.418028914009     3.734855799959
O                    -1.227571952755     0.461153702783    -1.136232674711
O                    -0.090254417136    -2.217551196200     0.156663479438
O                     2.327416804345     0.360890332632    -0.600928274580
O                     1.547978953454     5.281387205028    -4.114333736121
O                    -2.688233427883     1.658117442410     3.348863962214
O                     1.795250176360     0.266271288321     2.363133027501
H                    -4.736894182394    -2.439482831875    -4.560300661511
H                    -4.085225343503    -2.929628386578    -2.206426361910
H                    -3.148385170660    -1.222682678126    -6.045869486634
H                    -1.874152366466    -2.204987550241    -1.348398419047
H                    -0.933998639391    -0.522610894084    -5.183983296853
H                     2.394157057496     0.889621034155    -3.098727504009
H                    -1.271161655458     2.683688086691    -1.766679020322
H                     3.060079416851     2.983956835880    -4.160466077112
H                    -0.594343246288     4.825704369087    -2.824474900408
H                    -3.106538006177     1.279716916341     0.642399903164
H                    -0.315707060384     1.146718680981     3.946502109237
H                     0.625135967633    -3.003190644160    -2.252249970333
H                     2.015517375078    -1.935647901949    -2.441170023451
H                     0.662963438523    -0.545361264850    -3.610042660731
H                     1.966781926719    -2.036982168020    -0.080530309631
H                     2.804535810032     6.460418351385    -5.162099310892
H                     2.836527541101     4.750724599219    -5.672919930343
H                     3.637914614920     5.248381999057    -4.151110605035
H                    -4.557540240342     2.242696062094     3.830326237484
H                    -4.500519961822     1.046738457680     2.505878632996
H                    -4.046991840231     2.751421981183     2.197013458230
H                     3.209967734626     0.135190817631     3.800884976525
H                     1.561046540162    -0.242079766923     4.373711200081
H                     2.037073556925     1.456943523672     4.062417176002
H                    -0.063401573586    -3.182055023208     0.056963810020
H                     2.670648033073     0.436337561772     0.305929431896
