32
0 1 C12H17NO2
C                     1.516025852321    -1.226120181536    -5.449961034700
C                     0.307751711830    -0.719031896578    -5.936794538035
C                     1.814035670999    -1.183494787880    -4.088410688680
C                    -0.316346952051    -0.108519211984    -3.691185477107
C                    -0.624238440750    -0.155444228686    -5.057624150528
C                     0.891274596520    -0.617650507275    -3.196170343751
C                     2.400694179375    -0.352802896154    -1.293277204075
C                    -1.754677921488     1.947414569986    -5.909126237695
C                    -0.646289498540     0.338486117847    -0.264513806136
C                    -1.910835020670     0.453646720787    -5.571136519822
C                     2.657609196562    -0.553161114681     0.209843042681
C                     0.024480505073    -0.902485194561    -0.866865736750
N                     1.145726960554    -0.618223600902    -1.782831614917
O                     3.351882849408     0.002403083674    -1.993882806212
O                     3.974751435571    -0.174588362597     0.525119569779
H                     2.233022416927    -1.670226541021    -6.135607490313
H                     0.087374253748    -0.763768008790    -7.001142208792
H                     2.752423173882    -1.579614363048    -3.722306849251
H                    -1.035950815109     0.341041424637    -3.014834924092
H                    -1.452362171971     2.518374226766    -5.024986018913
H                    -2.695924822845     2.365950075923    -6.281947955355
H                    -0.986912703844     2.094614387067    -6.675606507236
H                     0.065921584256     0.950543333132     0.294755516419
H                    -1.092885192292     0.973291481354    -1.033093252879
H                    -1.439479421570     0.029442594485     0.424658435521
H                    -2.240158763204    -0.087233317981    -6.465312568529
H                    -2.702659317240     0.332420715117    -4.822791798887
H                     1.954186217913     0.031255333355     0.812734882219
H                     2.497060302247    -1.615786456495     0.449644638211
H                    -0.704680769377    -1.488236809616    -1.429893799741
H                     0.382318310716    -1.553828356630    -0.065475567244
H                     4.387341381541     0.054034279690    -0.334257229918
