50
0 1 C22H25NO2
C                   -10.880810516931     2.122867719272     8.022008499421
C                    -6.794156283832     1.301265938420     1.143985607690
C                   -10.938458987009     1.096016804815     8.937383344853
C                    -7.683546395636     1.731392462602     2.134024558200
C                    -5.815630430223     0.352735960529     1.447261231750
C                   -10.126937291172     2.003473116552     6.829352479251
C                    -9.516267059939    -2.336637616697     9.276017537067
C                    -6.580488813948     0.290704754832     3.730826464757
C                    -8.780541146395    -2.367707113599     8.066863311374
C                   -10.228161853516    -0.113431315317     8.695899653723
C                    -7.577812073975     1.225445824558     3.433208612930
C                    -5.701975479325    -0.165219269498     2.744555240111
C                   -10.247521478970    -1.214305189036     9.609745028847
C                    -9.455605793496    -0.253835676788     7.499195480809
C                    -9.425874109501     0.839104020756     6.562660680259
C                   -11.038120354581    -1.149389041480    10.891433199090
C                    -7.640152848340    -4.650171975514     5.325433381285
C                    -8.521679534964     1.692478564440     4.515148578968
C                    -6.353805495011    -3.821211969671     5.401442369077
C                    -6.128505905687    -2.966061147428     4.149618600473
C                    -4.878959260706    -2.083882260476     4.255297347943
C                    -4.622191360075    -1.192162191997     3.036135381052
N                    -8.739548502563    -1.374465873657     7.200137743084
O                    -3.391916486548    -0.451915914425     3.189308418192
O                    -8.685810107019     0.623951811914     5.448078089890
H                   -11.422399923042     3.046891394701     8.207160149327
H                    -6.877870970245     1.692644445620     0.133332865861
H                   -11.524703017335     1.209744798044     9.842877218779
H                    -8.464846701595     2.448182050126     1.888014930807
H                    -5.133255533338     0.008736075444     0.673329654948
H                   -10.112302540862     2.831660867632     6.130668335441
H                    -9.496297917590    -3.201900110543     9.933918617679
H                    -6.529530260376    -0.098197208315     4.740715725581
H                    -8.204828499285    -3.256879728278     7.813451489656
H                   -10.697419608941    -0.324444718068    11.526871998302
H                   -12.103431080236    -0.987512309250    10.693324327674
H                   -10.936795883580    -2.077505659212    11.458986632126
H                    -7.630668309942    -5.318001256698     4.455786172697
H                    -7.771129457419    -5.273226773846     6.217749636685
H                    -8.515709923892    -3.997923370070     5.238646059149
H                    -8.112915661938     2.570119471055     5.036423919733
H                    -9.491638517542     1.974304752280     4.084900740910
H                    -6.398741789671    -3.157597066376     6.273542747962
H                    -5.491747962941    -4.484458544461     5.556100145176
H                    -7.012637128457    -2.341447445951     3.987902796324
H                    -6.044376518969    -3.617872292655     3.268555065620
H                    -3.998579417517    -2.730333359153     4.385745123777
H                    -4.929094832588    -1.459578688595     5.154369735794
H                    -4.535711082432    -1.840709911949     2.149712805085
H                    -2.688386778147    -1.094386203450     3.378061579401
