
  -OEChem-05262117483D

 32 32  0     0  0  0  0  0  0999 V2000
    1.5848   -1.0202   -5.4262 C   0  0  0  0  0  0  0  0  0  0  0  0
    0.3697   -0.5894   -5.9671 C   0  0  0  0  0  0  0  0  0  0  0  0
    1.7811   -1.0276   -4.0443 C   0  0  0  0  0  0  0  0  0  0  0  0
   -0.4728   -0.1896   -3.7478 C   0  0  0  0  0  0  0  0  0  0  0  0
   -0.6762   -0.1686   -5.1342 C   0  0  0  0  0  0  0  0  0  0  0  0
    0.7446   -0.6083   -3.2049 C   0  0  0  0  0  0  0  0  0  0  0  0
    1.2494   -1.7185   -1.1083 C   0  0  0  0  0  0  0  0  0  0  0  0
   -1.9729    1.8588   -5.9287 C   0  0  0  0  0  0  0  0  0  0  0  0
    2.2775    1.4894   -1.3706 C   0  0  0  0  0  0  0  0  0  0  0  0
   -1.9802    0.3347   -5.7127 C   0  0  0  0  0  0  0  0  0  0  0  0
    1.5000   -1.6346    0.4055 C   0  0  0  0  0  0  0  0  0  0  0  0
    0.9519    0.7576   -1.1458 C   0  0  0  0  0  0  0  0  0  0  0  0
    0.9254   -0.5715   -1.7783 N   0  0  0  0  0  0  0  0  0  0  0  0
    1.3331   -2.8224   -1.6535 O   0  0  0  0  0  0  0  0  0  0  0  0
    1.8625   -2.9004    0.9003 O   0  0  0  0  0  0  0  0  0  0  0  0
    2.3834   -1.3532   -6.0839 H   0  0  0  0  0  0  0  0  0  0  0  0
    0.2291   -0.5873   -7.0459 H   0  0  0  0  0  0  0  0  0  0  0  0
    2.7166   -1.3718   -3.6158 H   0  0  0  0  0  0  0  0  0  0  0  0
   -1.2785    0.1084   -3.0798 H   0  0  0  0  0  0  0  0  0  0  0  0
   -1.8085    2.3864   -4.9831 H   0  0  0  0  0  0  0  0  0  0  0  0
   -2.9252    2.2004   -6.3486 H   0  0  0  0  0  0  0  0  0  0  0  0
   -1.1717    2.1516   -6.6152 H   0  0  0  0  0  0  0  0  0  0  0  0
    3.1124    0.9330   -0.9329 H   0  0  0  0  0  0  0  0  0  0  0  0
    2.4729    1.6135   -2.4396 H   0  0  0  0  0  0  0  0  0  0  0  0
    2.2465    2.4821   -0.9093 H   0  0  0  0  0  0  0  0  0  0  0  0
   -2.1748   -0.1658   -6.6676 H   0  0  0  0  0  0  0  0  0  0  0  0
   -2.8071    0.0673   -5.0450 H   0  0  0  0  0  0  0  0  0  0  0  0
    2.2979   -0.9097    0.6149 H   0  0  0  0  0  0  0  0  0  0  0  0
    0.5866   -1.2791    0.9047 H   0  0  0  0  0  0  0  0  0  0  0  0
    0.1284    1.3416   -1.5648 H   0  0  0  0  0  0  0  0  0  0  0  0
    0.7434    0.6518   -0.0804 H   0  0  0  0  0  0  0  0  0  0  0  0
    1.7974   -3.5026    0.1291 H   0  0  0  0  0  0  0  0  0  0  0  0
  1  2  1  0  0  0  0
  1  3  2  0  0  0  0
  1 16  1  0  0  0  0
  2  5  2  0  0  0  0
  2 17  1  0  0  0  0
  3  6  1  0  0  0  0
  3 18  1  0  0  0  0
  4  5  1  0  0  0  0
  4  6  2  0  0  0  0
  4 19  1  0  0  0  0
  5 10  1  0  0  0  0
  6 13  1  0  0  0  0
  7 11  1  0  0  0  0
  7 13  1  0  0  0  0
  7 14  2  0  0  0  0
  8 10  1  0  0  0  0
  8 20  1  0  0  0  0
  8 21  1  0  0  0  0
  8 22  1  0  0  0  0
  9 12  1  0  0  0  0
  9 23  1  0  0  0  0
  9 24  1  0  0  0  0
  9 25  1  0  0  0  0
 10 26  1  0  0  0  0
 10 27  1  0  0  0  0
 11 15  1  0  0  0  0
 11 28  1  0  0  0  0
 11 29  1  0  0  0  0
 12 13  1  0  0  0  0
 12 30  1  0  0  0  0
 12 31  1  0  0  0  0
 15 32  1  0  0  0  0
M  END
$$$$
