
  -OEChem-05262117483D

 42 43  0     0  0  0  0  0  0999 V2000
    6.3255    1.6972    6.3039 C   0  0  0  0  0  0  0  0  0  0  0  0
    6.8566    1.8874    7.3802 C   0  0  0  0  0  0  0  0  0  0  0  0
   -2.3923   -1.6368   -5.9693 C   0  0  0  0  0  0  0  0  0  0  0  0
   -3.0681   -1.9586   -4.7835 C   0  0  0  0  0  0  0  0  0  0  0  0
   -1.1130   -1.0850   -5.8939 C   0  0  0  0  0  0  0  0  0  0  0  0
    4.4075    0.9335    4.9538 C   0  0  0  0  0  0  0  0  0  0  0  0
    6.3681    1.7998    3.8352 C   0  0  0  0  0  0  0  0  0  0  0  0
   -2.4723   -1.7318   -3.5450 C   0  0  0  0  0  0  0  0  0  0  0  0
   -0.5001   -0.8508   -4.6554 C   0  0  0  0  0  0  0  0  0  0  0  0
    3.7913    0.7129    3.7203 C   0  0  0  0  0  0  0  0  0  0  0  0
    5.7638    1.5838    2.6047 C   0  0  0  0  0  0  0  0  0  0  0  0
    5.7003    1.4774    5.0369 C   0  0  0  0  0  0  0  0  0  0  0  0
   -1.1841   -1.1765   -3.4759 C   0  0  0  0  0  0  0  0  0  0  0  0
    4.4703    1.0381    2.5367 C   0  0  0  0  0  0  0  0  0  0  0  0
    7.5132    2.0800    8.6734 C   0  0  0  0  0  0  0  0  0  0  0  0
    0.9399   -0.3518   -0.5925 C   0  0  0  0  0  0  0  0  0  0  0  0
    2.3352    0.2297   -0.3402 C   0  0  0  0  0  0  0  0  0  0  0  0
    0.6255   -0.4387   -2.0790 C   0  0  0  0  0  0  0  0  0  0  0  0
    2.6504    0.3142    1.1458 C   0  0  0  0  0  0  0  0  0  0  0  0
    7.2038    3.3827    9.1908 O   0  0  0  0  0  0  0  0  0  0  0  0
   -0.6842   -0.9921   -2.2130 O   0  0  0  0  0  0  0  0  0  0  0  0
    3.9642    0.8642    1.2796 O   0  0  0  0  0  0  0  0  0  0  0  0
   -2.8588   -1.8145   -6.9341 H   0  0  0  0  0  0  0  0  0  0  0  0
   -4.0654   -2.3891   -4.8247 H   0  0  0  0  0  0  0  0  0  0  0  0
   -0.5764   -0.8299   -6.8044 H   0  0  0  0  0  0  0  0  0  0  0  0
    3.8796    0.6829    5.8692 H   0  0  0  0  0  0  0  0  0  0  0  0
    7.3668    2.2239    3.8820 H   0  0  0  0  0  0  0  0  0  0  0  0
   -2.9832   -1.9761   -2.6180 H   0  0  0  0  0  0  0  0  0  0  0  0
    0.4945   -0.4207   -4.6268 H   0  0  0  0  0  0  0  0  0  0  0  0
    2.7925    0.2926    3.6962 H   0  0  0  0  0  0  0  0  0  0  0  0
    6.2720    1.8307    1.6771 H   0  0  0  0  0  0  0  0  0  0  0  0
    7.1728    1.2955    9.3656 H   0  0  0  0  0  0  0  0  0  0  0  0
    8.5990    1.9612    8.5417 H   0  0  0  0  0  0  0  0  0  0  0  0
    0.8603   -1.3555   -0.1590 H   0  0  0  0  0  0  0  0  0  0  0  0
    0.1750    0.2663   -0.1080 H   0  0  0  0  0  0  0  0  0  0  0  0
    2.4146    1.2338   -0.7727 H   0  0  0  0  0  0  0  0  0  0  0  0
    3.0996   -0.3881   -0.8256 H   0  0  0  0  0  0  0  0  0  0  0  0
    0.6609    0.5579   -2.5405 H   0  0  0  0  0  0  0  0  0  0  0  0
    1.3573   -1.0784   -2.5915 H   0  0  0  0  0  0  0  0  0  0  0  0
    2.6147   -0.6821    1.6070 H   0  0  0  0  0  0  0  0  0  0  0  0
    1.9232    0.9568    1.6604 H   0  0  0  0  0  0  0  0  0  0  0  0
    7.6579    3.4704   10.0444 H   0  0  0  0  0  0  0  0  0  0  0  0
  1  2  3  0  0  0  0
  1 12  1  0  0  0  0
  2 15  1  0  0  0  0
  3  4  1  0  0  0  0
  3  5  2  0  0  0  0
  3 23  1  0  0  0  0
  4  8  2  0  0  0  0
  4 24  1  0  0  0  0
  5  9  1  0  0  0  0
  5 25  1  0  0  0  0
  6 10  2  0  0  0  0
  6 12  1  0  0  0  0
  6 26  1  0  0  0  0
  7 11  1  0  0  0  0
  7 12  2  0  0  0  0
  7 27  1  0  0  0  0
  8 13  1  0  0  0  0
  8 28  1  0  0  0  0
  9 13  2  0  0  0  0
  9 29  1  0  0  0  0
 10 14  1  0  0  0  0
 10 30  1  0  0  0  0
 11 14  2  0  0  0  0
 11 31  1  0  0  0  0
 13 21  1  0  0  0  0
 14 22  1  0  0  0  0
 15 20  1  0  0  0  0
 15 32  1  0  0  0  0
 15 33  1  0  0  0  0
 16 17  1  0  0  0  0
 16 18  1  0  0  0  0
 16 34  1  0  0  0  0
 16 35  1  0  0  0  0
 17 19  1  0  0  0  0
 17 36  1  0  0  0  0
 17 37  1  0  0  0  0
 18 21  1  0  0  0  0
 18 38  1  0  0  0  0
 18 39  1  0  0  0  0
 19 22  1  0  0  0  0
 19 40  1  0  0  0  0
 19 41  1  0  0  0  0
 20 42  1  0  0  0  0
M  END
$$$$
