
  -OEChem-05262117483D

 69 73  0     1  0  0  0  0  0999 V2000
    5.5193    7.6915   -5.9280 C   0  0  0  0  0  0  0  0  0  0  0  0
    4.9105    8.2288   -4.7890 C   0  0  0  0  0  0  0  0  0  0  0  0
    5.7968    6.3208   -5.9926 C   0  0  0  0  0  0  0  0  0  0  0  0
  -10.5210   -6.1621   -1.2234 C   0  0  0  0  0  0  0  0  0  0  0  0
   -1.1785    0.5448   -0.2474 C   0  0  0  0  0  0  0  0  0  0  0  0
    0.3018    3.9106    0.2071 C   0  0  0  0  0  0  0  0  0  0  0  0
    1.4088    2.0111   -0.8077 C   0  0  0  0  0  0  0  0  0  0  0  0
    4.5925    7.4012   -3.7101 C   0  0  0  0  0  0  0  0  0  0  0  0
    5.4699    5.4900   -4.9214 C   0  0  0  0  0  0  0  0  0  0  0  0
   -9.6084   -5.1930   -1.6326 C   0  0  0  0  0  0  0  0  0  0  0  0
   -2.4016   -0.1088   -0.3612 C   0  0  0  0  0  0  0  0  0  0  0  0
    1.5251    4.5674    0.3264 C   0  0  0  0  0  0  0  0  0  0  0  0
    2.6400    2.6534   -0.6950 C   0  0  0  0  0  0  0  0  0  0  0  0
   -2.2415    2.6266   -0.8262 C   0  0  0  0  0  0  0  0  0  0  0  0
  -10.1242   -7.0883   -0.2490 C   0  0  0  0  0  0  0  0  0  0  0  0
   -8.0337   -6.1710   -0.1020 C   0  0  0  0  0  0  0  0  0  0  0  0
    0.2262    2.6264   -0.3612 C   0  0  0  0  0  0  0  0  0  0  0  0
   -1.0762    1.9285   -0.4819 C   0  0  0  0  0  0  0  0  0  0  0  0
    4.8759    6.0269   -3.7688 C   0  0  0  0  0  0  0  0  0  0  0  0
   -3.4854    1.9958   -0.9460 C   0  0  0  0  0  0  0  0  0  0  0  0
   -8.3296   -5.1900   -1.0569 C   0  0  0  0  0  0  0  0  0  0  0  0
   -3.5396    0.6177   -0.7120 C   0  0  0  0  0  0  0  0  0  0  0  0
    2.6793    3.9296   -0.1319 C   0  0  0  0  0  0  0  0  0  0  0  0
    4.5617    5.0772   -2.6582 C   0  0  0  0  0  0  0  0  0  0  0  0
   -4.7279    2.7725   -1.3295 C   0  0  0  0  0  0  0  0  0  0  0  0
   -5.9981    1.9897   -0.9792 C   0  0  0  0  0  0  0  0  0  0  0  0
   -5.8332    0.5485   -1.4477 C   0  0  2  0  0  0  0  0  0  0  0  0
   -7.0361   -0.3252   -1.1124 C   0  0  0  0  0  0  0  0  0  0  0  0
   -7.6341   -2.7926   -0.8308 C   0  0  0  0  0  0  0  0  0  0  0  0
   -7.2951   -4.1575   -1.4341 C   0  0  2  0  0  0  0  0  0  0  0  0
   -8.9051   -7.1003    0.3046 N   0  0  0  0  0  0  0  0  0  0  0  0
    4.3935    5.6566   -1.3990 N   0  0  0  0  0  0  0  0  0  0  0  0
   -6.6790   -1.7644   -1.3792 N   0  3  0  0  0  0  0  0  0  0  0  0
    4.4363    3.8709   -2.8242 O   0  0  0  0  0  0  0  0  0  0  0  0
    5.3035    3.7515    0.1336 O   0  0  0  0  0  0  0  0  0  0  0  0
    4.1231    5.8169    1.0586 O   0  0  0  0  0  0  0  0  0  0  0  0
   -4.7383   -0.1008   -0.7870 O   0  0  0  0  0  0  0  0  0  0  0  0
   -7.2205   -3.8931   -2.8439 O   0  0  0  0  0  0  0  0  0  0  0  0
    4.2536    4.7561    0.0583 S   0  0  0  0  0  0  0  0  0  0  0  0
    5.7727    8.3382   -6.7637 H   0  0  0  0  0  0  0  0  0  0  0  0
    4.6808    9.2897   -4.7427 H   0  0  0  0  0  0  0  0  0  0  0  0
    6.2680    5.9025   -6.8777 H   0  0  0  0  0  0  0  0  0  0  0  0
  -11.5198   -6.2085   -1.6465 H   0  0  0  0  0  0  0  0  0  0  0  0
   -0.3006   -0.0192    0.0523 H   0  0  0  0  0  0  0  0  0  0  0  0
   -0.5947    4.3850    0.5958 H   0  0  0  0  0  0  0  0  0  0  0  0
    1.3664    1.0309   -1.2738 H   0  0  0  0  0  0  0  0  0  0  0  0
    4.0908    7.8324   -2.8477 H   0  0  0  0  0  0  0  0  0  0  0  0
    5.6713    4.4239   -4.9550 H   0  0  0  0  0  0  0  0  0  0  0  0
   -9.8750   -4.4660   -2.3963 H   0  0  0  0  0  0  0  0  0  0  0  0
   -2.4836   -1.1747   -0.1672 H   0  0  0  0  0  0  0  0  0  0  0  0
    1.5937    5.5455    0.7920 H   0  0  0  0  0  0  0  0  0  0  0  0
    3.5531    2.1912   -1.0510 H   0  0  0  0  0  0  0  0  0  0  0  0
   -2.1823    3.6931   -1.0296 H   0  0  0  0  0  0  0  0  0  0  0  0
  -10.8148   -7.8557    0.0950 H   0  0  0  0  0  0  0  0  0  0  0  0
   -7.0439   -6.2134    0.3548 H   0  0  0  0  0  0  0  0  0  0  0  0
   -4.7363    3.7401   -0.8200 H   0  0  0  0  0  0  0  0  0  0  0  0
   -4.7129    2.9877   -2.4050 H   0  0  0  0  0  0  0  0  0  0  0  0
   -6.1605    1.9901    0.1044 H   0  0  0  0  0  0  0  0  0  0  0  0
   -6.8766    2.4399   -1.4528 H   0  0  0  0  0  0  0  0  0  0  0  0
   -5.6467    0.5325   -2.5331 H   0  0  0  0  0  0  0  0  0  0  0  0
   -7.9126   -0.0710   -1.7104 H   0  0  0  0  0  0  0  0  0  0  0  0
   -7.2802   -0.2503   -0.0508 H   0  0  0  0  0  0  0  0  0  0  0  0
   -7.5574   -2.7959    0.2570 H   0  0  0  0  0  0  0  0  0  0  0  0
   -8.6395   -2.4866   -1.1254 H   0  0  0  0  0  0  0  0  0  0  0  0
   -6.3123   -4.4819   -1.0616 H   0  0  0  0  0  0  0  0  0  0  0  0
    4.6852    6.6139   -1.2213 H   0  0  0  0  0  0  0  0  0  0  0  0
   -6.6056   -1.9473   -2.3912 H   0  0  0  0  0  0  0  0  0  0  0  0
   -5.7304   -1.8957   -0.9957 H   0  0  0  0  0  0  0  0  0  0  0  0
   -7.0752   -4.7258   -3.3240 H   0  0  0  0  0  0  0  0  0  0  0  0
  1  2  1  0  0  0  0
  1  3  2  0  0  0  0
  1 40  1  0  0  0  0
  2  8  2  0  0  0  0
  2 41  1  0  0  0  0
  3  9  1  0  0  0  0
  3 42  1  0  0  0  0
  4 10  2  0  0  0  0
  4 15  1  0  0  0  0
  4 43  1  0  0  0  0
  5 11  2  0  0  0  0
  5 18  1  0  0  0  0
  5 44  1  0  0  0  0
  6 12  2  0  0  0  0
  6 17  1  0  0  0  0
  6 45  1  0  0  0  0
  7 13  1  0  0  0  0
  7 17  2  0  0  0  0
  7 46  1  0  0  0  0
  8 19  1  0  0  0  0
  8 47  1  0  0  0  0
  9 19  2  0  0  0  0
  9 48  1  0  0  0  0
 10 21  1  0  0  0  0
 10 49  1  0  0  0  0
 11 22  1  0  0  0  0
 11 50  1  0  0  0  0
 12 23  1  0  0  0  0
 12 51  1  0  0  0  0
 13 23  2  0  0  0  0
 13 52  1  0  0  0  0
 14 18  2  0  0  0  0
 14 20  1  0  0  0  0
 14 53  1  0  0  0  0
 15 31  2  0  0  0  0
 15 54  1  0  0  0  0
 16 21  2  0  0  0  0
 16 31  1  0  0  0  0
 16 55  1  0  0  0  0
 17 18  1  0  0  0  0
 19 24  1  0  0  0  0
 20 22  2  0  0  0  0
 20 25  1  0  0  0  0
 21 30  1  0  0  0  0
 22 37  1  0  0  0  0
 23 39  1  0  0  0  0
 24 32  1  0  0  0  0
 24 34  2  0  0  0  0
 25 26  1  0  0  0  0
 25 56  1  0  0  0  0
 25 57  1  0  0  0  0
 26 27  1  0  0  0  0
 26 58  1  0  0  0  0
 26 59  1  0  0  0  0
 27 28  1  0  0  0  0
 27 37  1  0  0  0  0
 27 60  1  0  0  0  0
 28 33  1  0  0  0  0
 28 61  1  0  0  0  0
 28 62  1  0  0  0  0
 29 30  1  0  0  0  0
 29 33  1  0  0  0  0
 29 63  1  0  0  0  0
 29 64  1  0  0  0  0
 30 38  1  0  0  0  0
 30 65  1  0  0  0  0
 32 39  1  0  0  0  0
 32 66  1  0  0  0  0
 33 67  1  0  0  0  0
 33 68  1  0  0  0  0
 35 39  2  0  0  0  0
 36 39  2  0  0  0  0
 38 69  1  0  0  0  0
M  CHG  1  33   1
M  END
$$$$
