
  -OEChem-05262117483D

 35 37  0     0  0  0  0  0  0999 V2000
   -0.8530   -4.0926    2.5092 C   0  0  0  0  0  0  0  0  0  0  0  0
   -0.6866   -1.8608    1.0552 C   0  0  0  0  0  0  0  0  0  0  0  0
    0.4761    0.1355    3.4294 C   0  0  0  0  0  0  0  0  0  0  0  0
   -0.5249   -1.0452   -0.1226 C   0  0  0  0  0  0  0  0  0  0  0  0
    1.7096    0.4676    2.7723 C   0  0  0  0  0  0  0  0  0  0  0  0
    0.8798   -0.5494    4.5484 C   0  0  0  0  0  0  0  0  0  0  0  0
   -1.3321   -1.8377    2.3162 C   0  0  0  0  0  0  0  0  0  0  0  0
   -0.0992   -3.0803    0.6965 C   0  0  0  0  0  0  0  0  0  0  0  0
   -1.0842    0.3055   -0.4542 C   0  0  0  0  0  0  0  0  0  0  0  0
    1.9336    1.2020    1.4850 C   0  0  0  0  0  0  0  0  0  0  0  0
    0.1678   -1.2181    5.6753 C   0  0  0  0  0  0  0  0  0  0  0  0
   -2.8457   -0.8221    3.9317 C   0  0  0  0  0  0  0  0  0  0  0  0
   -0.9248    0.4765    2.9837 C   0  0  0  0  0  0  0  0  0  0  0  0
   -1.4425   -2.9886    3.0034 N   0  0  0  0  0  0  0  0  0  0  0  0
   -0.1288   -4.2156    1.3917 N   0  0  0  0  0  0  0  0  0  0  0  0
    0.1425   -1.6982   -1.0464 N   0  0  0  0  0  0  0  0  0  0  0  0
    2.7525    0.0277    3.4446 N   0  0  0  0  0  0  0  0  0  0  0  0
   -1.8464   -0.6815    2.8699 N   0  0  0  0  0  0  0  0  0  0  0  0
    2.2280   -0.6253    4.5695 O   0  0  0  0  0  0  0  0  0  0  0  0
    0.4466   -2.9861   -0.5322 O   0  0  0  0  0  0  0  0  0  0  0  0
   -0.9677   -4.9949    3.1067 H   0  0  0  0  0  0  0  0  0  0  0  0
   -0.4905    1.1130   -0.0197 H   0  0  0  0  0  0  0  0  0  0  0  0
   -1.0917    0.4393   -1.5377 H   0  0  0  0  0  0  0  0  0  0  0  0
   -2.1060    0.3930   -0.0742 H   0  0  0  0  0  0  0  0  0  0  0  0
    1.3404    2.1206    1.4391 H   0  0  0  0  0  0  0  0  0  0  0  0
    2.9891    1.4659    1.3934 H   0  0  0  0  0  0  0  0  0  0  0  0
    1.6676    0.5761    0.6282 H   0  0  0  0  0  0  0  0  0  0  0  0
   -0.3750   -2.0994    5.3197 H   0  0  0  0  0  0  0  0  0  0  0  0
    0.8897   -1.5304    6.4329 H   0  0  0  0  0  0  0  0  0  0  0  0
   -0.5529   -0.5388    6.1413 H   0  0  0  0  0  0  0  0  0  0  0  0
   -3.4008    0.1173    4.0046 H   0  0  0  0  0  0  0  0  0  0  0  0
   -2.4178   -1.0613    4.9103 H   0  0  0  0  0  0  0  0  0  0  0  0
   -3.5409   -1.6186    3.6663 H   0  0  0  0  0  0  0  0  0  0  0  0
   -1.3947    1.1642    3.6925 H   0  0  0  0  0  0  0  0  0  0  0  0
   -0.8759    1.0122    2.0351 H   0  0  0  0  0  0  0  0  0  0  0  0
  1 14  1  0  0  0  0
  1 15  2  0  0  0  0
  1 21  1  0  0  0  0
  2  4  1  0  0  0  0
  2  7  1  0  0  0  0
  2  8  2  0  0  0  0
  3  5  1  0  0  0  0
  3  6  2  0  0  0  0
  3 13  1  0  0  0  0
  4  9  1  0  0  0  0
  4 16  2  0  0  0  0
  5 10  1  0  0  0  0
  5 17  2  0  0  0  0
  6 11  1  0  0  0  0
  6 19  1  0  0  0  0
  7 14  2  0  0  0  0
  7 18  1  0  0  0  0
  8 15  1  0  0  0  0
  8 20  1  0  0  0  0
  9 22  1  0  0  0  0
  9 23  1  0  0  0  0
  9 24  1  0  0  0  0
 10 25  1  0  0  0  0
 10 26  1  0  0  0  0
 10 27  1  0  0  0  0
 11 28  1  0  0  0  0
 11 29  1  0  0  0  0
 11 30  1  0  0  0  0
 12 18  1  0  0  0  0
 12 31  1  0  0  0  0
 12 32  1  0  0  0  0
 12 33  1  0  0  0  0
 13 18  1  0  0  0  0
 13 34  1  0  0  0  0
 13 35  1  0  0  0  0
 16 20  1  0  0  0  0
 17 19  1  0  0  0  0
M  END
$$$$
