
  -OEChem-05262117483D

 35 37  0     0  0  0  0  0  0999 V2000
   -1.4077   -4.1042    2.4283 C   0  0  0  0  0  0  0  0  0  0  0  0
   -0.4453   -2.0160    1.0517 C   0  0  0  0  0  0  0  0  0  0  0  0
   -1.4607    1.0694    3.5788 C   0  0  0  0  0  0  0  0  0  0  0  0
    0.3249   -1.3246    0.0421 C   0  0  0  0  0  0  0  0  0  0  0  0
   -0.7293    0.4562    4.6542 C   0  0  0  0  0  0  0  0  0  0  0  0
   -2.0375    2.1673    4.1546 C   0  0  0  0  0  0  0  0  0  0  0  0
   -1.6057   -1.8630    1.8678 C   0  0  0  0  0  0  0  0  0  0  0  0
    0.1490   -3.2859    1.0967 C   0  0  0  0  0  0  0  0  0  0  0  0
    0.1526    0.0281   -0.5850 C   0  0  0  0  0  0  0  0  0  0  0  0
    0.0837   -0.8013    4.6181 C   0  0  0  0  0  0  0  0  0  0  0  0
   -2.9320    3.2464    3.6479 C   0  0  0  0  0  0  0  0  0  0  0  0
   -3.5829   -0.7307    2.7203 C   0  0  0  0  0  0  0  0  0  0  0  0
   -1.5572    0.5870    2.1609 C   0  0  0  0  0  0  0  0  0  0  0  0
   -2.0845   -2.9486    2.5080 N   0  0  0  0  0  0  0  0  0  0  0  0
   -0.2647   -4.3514    1.7802 N   0  0  0  0  0  0  0  0  0  0  0  0
    1.2889   -2.0921   -0.4116 N   0  0  0  0  0  0  0  0  0  0  0  0
   -0.8545    1.1379    5.7708 N   0  0  0  0  0  0  0  0  0  0  0  0
   -2.2887   -0.6856    2.0360 N   0  0  0  0  0  0  0  0  0  0  0  0
   -1.6876    2.2319    5.4589 O   0  0  0  0  0  0  0  0  0  0  0  0
    1.2074   -3.3334    0.2645 O   0  0  0  0  0  0  0  0  0  0  0  0
   -1.8401   -4.9407    2.9742 H   0  0  0  0  0  0  0  0  0  0  0  0
    0.5755    0.8232    0.0367 H   0  0  0  0  0  0  0  0  0  0  0  0
    0.6693    0.0447   -1.5466 H   0  0  0  0  0  0  0  0  0  0  0  0
   -0.9062    0.2482   -0.7453 H   0  0  0  0  0  0  0  0  0  0  0  0
    0.7913   -0.7875    3.7829 H   0  0  0  0  0  0  0  0  0  0  0  0
    0.6406   -0.9154    5.5501 H   0  0  0  0  0  0  0  0  0  0  0  0
   -0.5624   -1.6747    4.4875 H   0  0  0  0  0  0  0  0  0  0  0  0
   -3.8680    3.2692    4.2152 H   0  0  0  0  0  0  0  0  0  0  0  0
   -2.4561    4.2269    3.7504 H   0  0  0  0  0  0  0  0  0  0  0  0
   -3.1689    3.0857    2.5941 H   0  0  0  0  0  0  0  0  0  0  0  0
   -4.0922    0.2203    2.5420 H   0  0  0  0  0  0  0  0  0  0  0  0
   -3.4818   -0.8831    3.8001 H   0  0  0  0  0  0  0  0  0  0  0  0
   -4.1827   -1.5434    2.3123 H   0  0  0  0  0  0  0  0  0  0  0  0
   -2.0414    1.3458    1.5371 H   0  0  0  0  0  0  0  0  0  0  0  0
   -0.5553    0.4394    1.7678 H   0  0  0  0  0  0  0  0  0  0  0  0
  1 14  1  0  0  0  0
  1 15  2  0  0  0  0
  1 21  1  0  0  0  0
  2  4  1  0  0  0  0
  2  7  1  0  0  0  0
  2  8  2  0  0  0  0
  3  5  1  0  0  0  0
  3  6  2  0  0  0  0
  3 13  1  0  0  0  0
  4  9  1  0  0  0  0
  4 16  2  0  0  0  0
  5 10  1  0  0  0  0
  5 17  2  0  0  0  0
  6 11  1  0  0  0  0
  6 19  1  0  0  0  0
  7 14  2  0  0  0  0
  7 18  1  0  0  0  0
  8 15  1  0  0  0  0
  8 20  1  0  0  0  0
  9 22  1  0  0  0  0
  9 23  1  0  0  0  0
  9 24  1  0  0  0  0
 10 25  1  0  0  0  0
 10 26  1  0  0  0  0
 10 27  1  0  0  0  0
 11 28  1  0  0  0  0
 11 29  1  0  0  0  0
 11 30  1  0  0  0  0
 12 18  1  0  0  0  0
 12 31  1  0  0  0  0
 12 32  1  0  0  0  0
 12 33  1  0  0  0  0
 13 18  1  0  0  0  0
 13 34  1  0  0  0  0
 13 35  1  0  0  0  0
 16 20  1  0  0  0  0
 17 19  1  0  0  0  0
M  END
$$$$
