
  -OEChem-05262117483D

 29 31  0     0  0  0  0  0  0999 V2000
    0.6201   -5.5827  -10.5329 C   0  0  0  0  0  0  0  0  0  0  0  0
    2.4210    1.4939   -4.3282 C   0  0  0  0  0  0  0  0  0  0  0  0
    2.0825    0.7676   -3.1719 C   0  0  0  0  0  0  0  0  0  0  0  0
   -0.5060   -5.8805  -11.3069 C   0  0  0  0  0  0  0  0  0  0  0  0
    0.4781   -5.3299   -9.1690 C   0  0  0  0  0  0  0  0  0  0  0  0
    2.1958    0.9831   -5.6129 C   0  0  0  0  0  0  0  0  0  0  0  0
    1.5009   -0.5077   -3.2547 C   0  0  0  0  0  0  0  0  0  0  0  0
   -1.7694   -5.9326  -10.7127 C   0  0  0  0  0  0  0  0  0  0  0  0
   -0.7850   -5.3655   -8.5439 C   0  0  0  0  0  0  0  0  0  0  0  0
    1.6185   -0.2861   -5.7084 C   0  0  0  0  0  0  0  0  0  0  0  0
    1.2919   -0.9880   -4.5360 C   0  0  0  0  0  0  0  0  0  0  0  0
   -1.8961   -5.6794   -9.3463 C   0  0  0  0  0  0  0  0  0  0  0  0
    0.7692   -2.1466   -6.2824 C   0  0  0  0  0  0  0  0  0  0  0  0
   -0.9145   -5.1481   -7.0836 C   0  0  0  0  0  0  0  0  0  0  0  0
    1.2633   -1.0665   -6.8175 N   0  0  0  0  0  0  0  0  0  0  0  0
   -0.3970   -4.2084   -6.3695 N   0  0  0  0  0  0  0  0  0  0  0  0
    0.3293   -3.2359   -6.9869 N   0  0  0  0  0  0  0  0  0  0  0  0
    0.7389   -2.2057   -4.9193 O   0  0  0  0  0  0  0  0  0  0  0  0
   -3.6521   -5.7482   -8.5738 Br  0  0  0  0  0  0  0  0  0  0  0  0
    1.6061   -5.5541  -10.9879 H   0  0  0  0  0  0  0  0  0  0  0  0
    2.8686    2.4781   -4.2196 H   0  0  0  0  0  0  0  0  0  0  0  0
    2.2737    1.2000   -2.1940 H   0  0  0  0  0  0  0  0  0  0  0  0
   -0.4061   -6.0764  -12.3708 H   0  0  0  0  0  0  0  0  0  0  0  0
    1.3574   -5.1290   -8.5634 H   0  0  0  0  0  0  0  0  0  0  0  0
    2.4562    1.5466   -6.5038 H   0  0  0  0  0  0  0  0  0  0  0  0
    1.2332   -1.0799   -2.3720 H   0  0  0  0  0  0  0  0  0  0  0  0
   -2.6491   -6.1644  -11.3042 H   0  0  0  0  0  0  0  0  0  0  0  0
   -1.5161   -5.8557   -6.5187 H   0  0  0  0  0  0  0  0  0  0  0  0
    0.2871   -3.0990   -7.9960 H   0  0  0  0  0  0  0  0  0  0  0  0
  1  4  1  0  0  0  0
  1  5  2  0  0  0  0
  1 20  1  0  0  0  0
  2  3  1  0  0  0  0
  2  6  2  0  0  0  0
  2 21  1  0  0  0  0
  3  7  2  0  0  0  0
  3 22  1  0  0  0  0
  4  8  2  0  0  0  0
  4 23  1  0  0  0  0
  5  9  1  0  0  0  0
  5 24  1  0  0  0  0
  6 10  1  0  0  0  0
  6 25  1  0  0  0  0
  7 11  1  0  0  0  0
  7 26  1  0  0  0  0
  8 12  1  0  0  0  0
  8 27  1  0  0  0  0
  9 12  2  0  0  0  0
  9 14  1  0  0  0  0
 10 11  2  0  0  0  0
 10 15  1  0  0  0  0
 11 18  1  0  0  0  0
 12 19  1  0  0  0  0
 13 15  2  0  0  0  0
 13 17  1  0  0  0  0
 13 18  1  0  0  0  0
 14 16  2  0  0  0  0
 14 28  1  0  0  0  0
 16 17  1  0  0  0  0
 17 29  1  0  0  0  0
M  END
$$$$
