29
0 1 BrC14H10N3O
C                    -3.119583314525    -1.411285383671    -7.806058222551
C                     1.649311669036     1.705217706729    -4.835055962295
C                     2.600898682506     1.753491114591    -5.869447789591
C                    -3.879982602359    -0.882879565205    -6.757295069362
C                    -2.262661304407    -2.484160173667    -7.570913100719
C                     0.816946010960     0.593323331299    -4.650772051887
C                     2.760463116705     0.685104890364    -6.767058404774
C                    -3.787192701411    -1.435111074280    -5.477564346787
C                    -2.147752383440    -3.053646505841    -6.290357983552
C                     0.966566284602    -0.474651764569    -5.537473625955
C                     1.924741162754    -0.399358377827    -6.561702980635
C                    -2.931404860933    -2.514360544626    -5.260069465141
C                     0.854657597332    -2.290361381839    -6.639367880338
C                    -1.295446296170    -4.243214903989    -6.077907753547
N                     0.302339477823    -1.707551171849    -5.621587576573
N                    -0.116692205833    -4.514614580953    -6.516287918185
N                     0.587555670127    -3.517076570230    -7.208987517543
O                     1.852257474163    -1.585308029371    -7.284711315861
Br                   -2.792901055290    -3.213776646353    -3.479945406590
H                    -3.193811065367    -0.986608770913    -8.803230259607
H                     1.559054881186     2.553310754928    -4.161793184764
H                     3.227084463640     2.634344137457    -5.978650497443
H                    -4.545605928964    -0.041605976094    -6.930184619651
H                    -1.666965994470    -2.894509017107    -8.380020737748
H                     0.082648965845     0.554531778909    -3.851914545679
H                     3.491392573303     0.710094183449    -7.569200159380
H                    -4.368573323290    -1.029441739622    -4.656020812470
H                    -1.734886101131    -5.062264521364    -5.510325041136
H                     1.410296499634    -3.920981299978    -7.644393526337
