30
0 1 C13ClH11N2O3
C                    -1.144803620406    -0.693753143558     3.186624023913
C                    -0.889503630899    -0.382329434020     1.848592260507
C                    -2.416983137646    -1.069543815250     3.621603865133
C                    -3.221882053689    -0.813153059218     1.336201265349
C                     3.260329619726     1.060091223280    -2.750095127536
C                     1.409357284170     1.455687606231    -1.196285826578
C                    -1.932118581001    -0.443070648556     0.911793569866
C                     1.979883354311     0.703680354569    -2.226192125582
C                    -3.441494226273    -1.126546789675     2.673388541303
C                     3.904058567329     2.140285417825    -2.236356550861
C                     2.117191187708     2.596291321744    -0.654018824924
C                     0.120564936332     1.135227597851    -0.623770187711
C                     5.238453221681     2.651231505193    -2.673763791447
N                    -0.549398087910     0.110226570503    -1.055364104424
N                    -1.785928497539    -0.152477179692    -0.470367821043
O                     1.751580345643     3.326736364232     0.244603682922
O                     3.372263331786     2.883837555392    -1.237887479295
O                     1.373567870514    -0.356311097640    -2.755897079392
Cl                   -5.058560672481    -1.593329710288     3.179674889950
H                    -0.330190788810    -0.646468503315     3.904165349999
H                     0.115326822794    -0.111449207990     1.549517033475
H                    -2.612210707943    -1.308589687514     4.661306583707
H                    -4.042996224201    -0.845167878289     0.625854177527
H                     3.698074528290     0.474308000469    -3.548927302032
H                    -0.251501380860     1.783308027868     0.170462844145
H                     5.148672772698     3.684838361597    -3.024003702449
H                     5.646739120683     2.034741425331    -3.476209717114
H                     5.935690684957     2.651797507846    -1.829431902024
H                    -2.277977989513    -0.822985071248    -1.049459825571
H                     0.499533608221    -0.475743557698    -2.268355192984
