
  -OEChem-05262117483D

 48 51  0     1  0  0  0  0  0999 V2000
   -4.0078    3.5314    7.6420 C   0  0  0  0  0  0  0  0  0  0  0  0
   -3.3333    4.4038    6.8325 C   0  0  0  0  0  0  0  0  0  0  0  0
   -3.1590    2.0448    6.2385 C   0  0  0  0  0  0  0  0  0  0  0  0
    0.6821   -0.0782    2.5206 C   0  0  0  0  0  0  0  0  0  0  0  0
    2.0302   -2.2917    3.8363 C   0  0  0  0  0  0  0  0  0  0  0  0
    0.5653   -2.0371    4.1699 C   0  0  0  0  0  0  0  0  0  0  0  0
    0.7426    0.3802    4.9956 C   0  0  0  0  0  0  0  0  0  0  0  0
    1.1673   -0.3931   -0.5161 C   0  0  0  0  0  0  0  0  0  0  0  0
    2.7983    1.1589    0.6059 C   0  0  0  0  0  0  0  0  0  0  0  0
    2.2820   -2.0096    2.3627 C   0  0  0  0  0  0  0  0  0  0  0  0
   -0.4509    0.5984    5.9236 C   0  0  0  0  0  0  0  0  0  0  0  0
   -1.3550   -0.3800    4.0049 C   0  0  0  0  0  0  0  0  0  0  0  0
    1.7851    0.0433   -1.8482 C   0  0  0  0  0  0  0  0  0  0  0  0
    3.3173    1.4998   -0.7942 C   0  0  0  0  0  0  0  0  0  0  0  0
    2.2162   -0.2613    0.5984 C   0  0  0  0  0  0  0  0  0  0  0  0
    0.1840   -0.5753    3.8899 C   0  0  1  0  0  0  0  0  0  0  0  0
   -2.8826    0.7304    5.5623 C   0  0  0  0  0  0  0  0  0  0  0  0
   -3.9011    2.1973    7.3008 N   0  0  0  0  0  0  0  0  0  0  0  0
    1.7432   -0.7143    1.9252 N   0  0  0  0  0  0  0  0  0  0  0  0
   -1.5565    0.7023    4.9741 N   0  0  1  0  0  0  0  0  0  0  0  0
    0.1586    0.9172    2.0124 O   0  0  0  0  0  0  0  0  0  0  0  0
    2.3039    1.3697   -1.7893 O   0  0  0  0  0  0  0  0  0  0  0  0
   -2.5151    3.5359    5.5719 S   0  0  0  0  0  0  0  0  0  0  0  0
   -4.5942    3.8112    8.5108 H   0  0  0  0  0  0  0  0  0  0  0  0
   -3.2634    5.4807    6.9165 H   0  0  0  0  0  0  0  0  0  0  0  0
    2.6771   -1.6529    4.4474 H   0  0  0  0  0  0  0  0  0  0  0  0
    2.3086   -3.3293    4.0492 H   0  0  0  0  0  0  0  0  0  0  0  0
   -0.0640   -2.7033    3.5645 H   0  0  0  0  0  0  0  0  0  0  0  0
    0.3529   -2.2746    5.2187 H   0  0  0  0  0  0  0  0  0  0  0  0
    1.0315    1.3359    4.5530 H   0  0  0  0  0  0  0  0  0  0  0  0
    1.6092   -0.0416    5.5111 H   0  0  0  0  0  0  0  0  0  0  0  0
    0.3077    0.2377   -0.2833 H   0  0  0  0  0  0  0  0  0  0  0  0
    0.8230   -1.4322   -0.5943 H   0  0  0  0  0  0  0  0  0  0  0  0
    3.6194    1.2257    1.3303 H   0  0  0  0  0  0  0  0  0  0  0  0
    2.0242    1.8701    0.8972 H   0  0  0  0  0  0  0  0  0  0  0  0
    3.3590   -2.0105    2.1649 H   0  0  0  0  0  0  0  0  0  0  0  0
    1.8437   -2.8121    1.7495 H   0  0  0  0  0  0  0  0  0  0  0  0
   -0.5796   -0.2570    6.6159 H   0  0  0  0  0  0  0  0  0  0  0  0
   -0.3635    1.5056    6.5279 H   0  0  0  0  0  0  0  0  0  0  0  0
   -1.8122   -0.1161    3.0490 H   0  0  0  0  0  0  0  0  0  0  0  0
   -1.8057   -1.3233    4.3630 H   0  0  0  0  0  0  0  0  0  0  0  0
    2.5897   -0.6540   -2.1410 H   0  0  0  0  0  0  0  0  0  0  0  0
    1.0356    0.0466   -2.6438 H   0  0  0  0  0  0  0  0  0  0  0  0
    3.6563    2.5378   -0.8423 H   0  0  0  0  0  0  0  0  0  0  0  0
    4.1716    0.8499   -1.0532 H   0  0  0  0  0  0  0  0  0  0  0  0
    3.0386   -0.9427    0.3477 H   0  0  0  0  0  0  0  0  0  0  0  0
   -3.0551   -0.0736    6.2998 H   0  0  0  0  0  0  0  0  0  0  0  0
   -3.6147    0.5916    4.7573 H   0  0  0  0  0  0  0  0  0  0  0  0
  1  2  2  0  0  0  0
  1 18  1  0  0  0  0
  1 24  1  0  0  0  0
  2 23  1  0  0  0  0
  2 25  1  0  0  0  0
  3 17  1  0  0  0  0
  3 18  2  0  0  0  0
  3 23  1  0  0  0  0
  4 16  1  0  0  0  0
  4 19  1  0  0  0  0
  4 21  2  0  0  0  0
  5  6  1  0  0  0  0
  5 10  1  0  0  0  0
  5 26  1  0  0  0  0
  5 27  1  0  0  0  0
  6 16  1  0  0  0  0
  6 28  1  0  0  0  0
  6 29  1  0  0  0  0
  7 11  1  0  0  0  0
  7 16  1  0  0  0  0
  7 30  1  0  0  0  0
  7 31  1  0  0  0  0
  8 13  1  0  0  0  0
  8 15  1  0  0  0  0
  8 32  1  0  0  0  0
  8 33  1  0  0  0  0
  9 14  1  0  0  0  0
  9 15  1  0  0  0  0
  9 34  1  0  0  0  0
  9 35  1  0  0  0  0
 10 19  1  0  0  0  0
 10 36  1  0  0  0  0
 10 37  1  0  0  0  0
 11 20  1  0  0  0  0
 11 38  1  0  0  0  0
 11 39  1  0  0  0  0
 12 16  1  0  0  0  0
 12 20  1  0  0  0  0
 12 40  1  0  0  0  0
 12 41  1  0  0  0  0
 13 22  1  0  0  0  0
 13 42  1  0  0  0  0
 13 43  1  0  0  0  0
 14 22  1  0  0  0  0
 14 44  1  0  0  0  0
 14 45  1  0  0  0  0
 15 19  1  0  0  0  0
 15 46  1  0  0  0  0
 17 20  1  0  0  0  0
 17 47  1  0  0  0  0
 17 48  1  0  0  0  0
M  END
$$$$
