29
0 1 BrC14H10N3O
C                     4.488050874539    -4.496448043730    -4.809775775205
C                     2.675403330615     1.197818863541    -5.246489163925
C                     3.103118817590     0.366442100086    -4.194321004098
C                     5.095368662307    -3.818773060700    -5.872551752605
C                     3.226154445276    -5.059884435732    -4.982824808922
C                     1.833850727528     0.728795263740    -6.262825602378
C                     2.701498487652    -0.975896266213    -4.115312962674
C                     4.453140328978    -3.740737091354    -7.109166597750
C                     2.534003877858    -4.948232759249    -6.202009477517
C                     1.425185625429    -0.606433209851    -6.194509046735
C                     1.861124282836    -1.408763600257    -5.126519716000
C                     3.189497747214    -4.315162551941    -7.270210500303
C                     0.624781731117    -2.556816331694    -6.490927613666
C                     1.163308180156    -5.512281832626    -6.276573546935
N                     0.642352113170    -1.384506926561    -7.057848166632
N                     0.036132050608    -4.976393601862    -6.601691325497
N                    -0.071793911389    -3.651432981236    -6.937097848940
O                     1.311265419162    -2.668784302687    -5.306233366261
Br                    2.410510855850    -4.270899090229    -9.021231389215
H                     4.992966929382    -4.577718587610    -3.851238029657
H                     3.011688235310     2.230822145711    -5.271047844347
H                     3.758065697631     0.770148134374    -3.427410926242
H                     6.073488160735    -3.362656347073    -5.748003112022
H                     2.735649738000    -5.562274378491    -4.152858313317
H                     1.513329318717     1.369644222584    -7.078617800640
H                     3.027545422019    -1.633012492354    -3.315544112765
H                     4.929597810235    -3.245388105387    -7.948677270026
H                     1.061917297415    -6.560089535195    -5.994554182954
H                    -0.912671966993    -3.439292510403    -7.456874543969
