29   
torsion grid (-165,)
C       -2.5415829438    1.9682766083   -2.0440839203
C       -1.2738631361    1.7574750637   -2.5931248946
C       -2.8361758856    1.4644843481   -0.7713548979
C       -0.3103509153    1.0449480853   -1.8710092753
C       -1.8719275807    0.7536205332   -0.0547176845
C       -0.5994246895    0.5318994767   -0.5999698833
C        0.9755713537    0.4955311994    1.3991702367
C        0.0893487828   -1.6922819858    0.4793678521
C        1.1536629426   -1.3780829607   -0.5271948916
C        0.4484810230   -0.2256035260    0.1706682670
C        2.3568835968    0.4255967377    3.3780244091
C        3.3993012095    0.0092976951    1.2082218225
N        2.1531761646    0.0271064944    1.9842699410
O        0.2582353662    1.3054067059    1.9811755670
H       -3.2943276781    2.5203413471   -2.6013677953
H       -1.0341536902    2.1471675438   -3.5794330869
H       -3.8187405972    1.6294152831   -0.3361520176
H        0.6767200632    0.8856569251   -2.2996806505
H       -2.0970056110    0.3768040991    0.9381536279
H       -0.8809439660   -2.0305735195    0.1302839442
H        0.4077307380   -2.0839967902    1.4399506978
H        2.1728899614   -1.6334468372   -0.2698651902
H        0.9109117510   -1.5105364809   -1.5768281192
H        3.1505022436   -0.1980934554    3.8008566443
H        2.6438770512    1.4817848824    3.4699308962
H        1.4372414956    0.2724073332    3.9429967160
H        4.0360604644    0.8531168146    1.5067341346
H        3.9579814149   -0.9188334186    1.3771166257
H        3.1981145494    0.1160380441    0.1441335183
29   
torsion grid (-150,)
C       -2.4280478093    2.0274871012   -2.0605353597
C       -1.1460525786    1.7754356349   -2.5571716326
C       -2.7997041928    1.5112232121   -0.8134060862
C       -0.2453447748    1.0105865724   -1.8082735256
C       -1.8985426600    0.7465532493   -0.0697268168
C       -0.6118156779    0.4844184871   -0.5621961668
C        0.8655676269    0.3556982857    1.5090101589
C       -0.0262389236   -1.7824346379    0.5023625954
C        1.1012559851   -1.4679660573   -0.4374624846
C        0.3716854493   -0.3224465094    0.2411729406
C        2.4364734820    0.4249140725    3.3427148218
C        3.3003449959    0.1865292755    1.0644338465
N        2.1451779958    0.0544035006    1.9575211685
O        0.0758777955    0.9871533797    2.2081348394
H       -3.1321205748    2.6203818943   -2.6390745377
H       -0.8468080649    2.1736881149   -3.5236068852
H       -3.7939027797    1.7070066132   -0.4193153712
H        0.7524983060    0.8188500065   -2.1968369618
H       -2.1808184000    0.3596986968    0.9040510212
H       -0.9796556987   -2.1018171911    0.0936293572
H        0.2288930994   -2.2019079330    1.4706872760
H        2.0995561432   -1.7364241480   -0.1151617905
H        0.9239011595   -1.5877370162   -1.5018202782
H        3.3391124870   -0.1060127653    3.6600432578
H        2.5988092130    1.5053735098    3.4542701394
H        1.6020682037    0.1383743162    3.9827024049
H        3.8433371028    1.1138443620    1.2920813133
H        3.9916778500   -0.6552113089    1.1885130938
H        2.9839177434    0.2364831894    0.0246266791
29   
torsion grid (-135,)
C       -2.2802859808    2.0917318500   -2.0306859260
C       -1.0036964537    1.7793056066   -2.5061936823
C       -2.7025285681    1.5804960481   -0.7974874216
C       -0.1580441973    0.9600469506   -1.7504178312
C       -1.8578806113    0.7601965225   -0.0467556549
C       -0.5762217734    0.4381501846   -0.5187016927
C        0.8085732471    0.2067822848    1.6034845920
C       -0.0797077103   -1.8838148958    0.4822639349
C        1.1095377355   -1.5481936337   -0.3761434829
C        0.3448475457   -0.4266033399    0.2986704122
C        2.5059033166    0.4934647281    3.3026325213
C        3.2045085233    0.3539098040    0.9545061635
N        2.1470883070    0.1128049230    1.9372536265
O       -0.0227230657    0.6450623695    2.3978185637
H       -2.9412206757    2.7272363785   -2.6148187562
H       -0.6653953353    2.1730274705   -3.4615529908
H       -3.6931584657    1.8224240759   -0.4203610617
H        0.8357292571    0.7226009702   -2.1235349228
H       -2.1763575529    0.3756128968    0.9166334403
H       -1.0056573120   -2.1822616412    0.0006437604
H        0.1056547162   -2.3419869415    1.4491290552
H        2.0853833810   -1.8242608327    0.0067534559
H        1.0039339501   -1.6401419034   -1.4529424425
H        3.4817936107    0.0593276738    3.5405372357
H        2.5621672590    1.5839494327    3.4208062875
H        1.7569522312    0.1137172922    3.9969254150
H        3.6474219382    1.3453802142    1.1188490624
H        3.9993516801   -0.3959920415    1.0432008230
H        2.8062357745    0.3298565763   -0.0573003454
29   
torsion grid (-120,)
C       -2.1408697220    2.1574935913   -1.9770641311
C       -0.8903861271    1.7613585858   -2.4586898578
C       -2.5887921479    1.6727807873   -0.7418869789
C       -0.0958527701    0.8864848428   -1.7092047262
C       -1.7973372030    0.7963064028    0.0027975003
C       -0.5416401155    0.3901315148   -0.4766825827
C        0.7505155701    0.0429784898    1.6809708694
C       -0.1429401255   -1.9894622941    0.4392164491
C        1.1056831058   -1.6406140418   -0.3310128312
C        0.3135054918   -0.5399219183    0.3417930518
C        2.4988893844    0.5857799450    3.2697514761
C        3.0655372117    0.5038000304    0.8797972976
N        2.1002442525    0.1741140566    1.9256298985
O       -0.0888966533    0.2798633554    2.5507176760
H       -2.7611303077    2.8364805619   -2.5568304440
H       -0.5314422206    2.1334739126   -3.4151680111
H       -3.5593660550    1.9786931951   -0.3591459106
H        0.8774482795    0.5861650337   -2.0901542645
H       -2.1347249073    0.4293433586    0.9670263241
H       -1.0364390127   -2.2566088848   -0.1166094172
H       -0.0324115439   -2.4877864065    1.3974869379
H        2.0552523872   -1.9314719461    0.1064558908
H        1.0708158592   -1.6990587984   -1.4149258894
H        3.5271504876    0.2562825170    3.4480607294
H        2.4495311370    1.6764101886    3.3902985147
H        1.8336809948    0.1303045799    4.0022641787
H        3.3833237485    1.5503172633    0.9789671701
H        3.9540937025   -0.1338616667    0.9575490373
H        2.6263751267    0.3777017699   -0.1065336332
29   
torsion grid (-105,)
C       -1.9954608898    2.2208588120   -1.9032503808
C       -0.7943809023    1.7292202960   -2.4208210413
C       -2.4457453447    1.7758407110   -0.6539261825
C       -0.0486896928    0.7967568829   -1.6907051543
C       -1.7028929572    0.8417445782    0.0698573480
C       -0.4962064215    0.3382511687   -0.4443373709
C        0.7109284010   -0.1314363511    1.7293861857
C       -0.2003374814   -2.0955437437    0.3758152871
C        1.0973809679   -1.7484415706   -0.3140189789
C        0.2924266475   -0.6597286816    0.3615233936
C        2.4334554617    0.6871279273    3.2318516992
C        2.9027029768    0.6460618165    0.8177849533
N        2.0255438403    0.2307747326    1.9061579284
O       -0.1010196161   -0.0997516178    2.6566375901
H       -2.5773880630    2.9451390106   -2.4675557608
H       -0.4356441303    2.0710635419   -3.3886430009
H       -3.3787286247    2.1561515704   -0.2452200306
H        0.8869795972    0.4236996998   -2.0996479603
H       -2.0422529121    0.4988661145    1.0428753735
H       -1.0642024819   -2.3210116741   -0.2418901683
H       -0.1590012920   -2.6277772043    1.3208643332
H        2.0196533451   -2.0654727344    0.1640189950
H        1.1223005884   -1.7725627549   -1.3996294646
H        3.4947158903    0.4605495794    3.3750331940
H        2.2850020669    1.7694956323    3.3470106752
H        1.8404143517    0.1761868634    3.9889453252
H        3.0273503700    1.7373865564    0.8227979355
H        3.8916135450    0.1865022852    0.9310513119
H        2.4906447550    0.3566539355   -0.1447228844
29   
torsion grid (-90,)
C       -1.8479037434    2.2867553429   -1.8198090676
C       -0.7242862351    1.6878584813   -2.3949527525
C       -2.2627897267    1.8891101194   -0.5426829177
C       -0.0202771334    0.6995798560   -1.6975434126
C       -1.5636142930    0.8985061654    0.1486646276
C       -0.4340257783    0.2884000656   -0.4236553509
C        0.7116392321   -0.3092986476    1.7476538336
C       -0.2418198204   -2.1893650437    0.2958258173
C        1.0938394160   -1.8603351506   -0.3301008145
C        0.2934780770   -0.7742127514    0.3567737777
C        2.3356231379    0.7963683542    3.1817344673
C        2.7224721247    0.7893790786    0.7503593853
N        1.9468083879    0.2789685155    1.8733861125
O       -0.0296696514   -0.4860266912    2.7176529580
H       -2.3951660436    3.0556351043   -2.3591862046
H       -0.3913072694    1.9910882505   -3.3845613302
H       -3.1358223440    2.3498375055   -0.0870544230
H        0.8575725789    0.2493583817   -2.1534822985
H       -1.8848716038    0.5873982638    1.1389355450
H       -1.0827661067   -2.3652897106   -0.3677422198
H       -0.2595014570   -2.7509898931    1.2240862636
H        1.9884448083   -2.2157112332    0.1736026669
H        1.1633631434   -1.8503127373   -1.4139637171
H        3.4106484394    0.6460796182    3.3258038513
H        2.1177196753    1.8700996878    3.2640368796
H        1.7810874433    0.2675895000    3.9550446010
H        2.5662844393    1.8690929970    0.6210607053
H        3.7885796338    0.6143967165    0.9326933659
H        2.4441819312    0.2898566417   -0.1731817923
29   
torsion grid (-75,)
C       -1.6943269512    2.3484470713   -1.7534100525
C       -0.6958202050    1.6214476816   -2.4067613816
C       -2.0198808701    2.0315057246   -0.4291014542
C       -0.0265560662    0.5884881154   -1.7412381244
C       -1.3566107016    0.9950427432    0.2299050981
C       -0.3510886028    0.2574139003   -0.4190516253
C        0.7649239590   -0.4569743971    1.7426406702
C       -0.2455218547   -2.2487968207    0.2175511931
C        1.1149735306   -1.9447201911   -0.3617478105
C        0.3269954929   -0.8525639780    0.3367218102
C        2.2424213806    0.8875151710    3.1429653897
C        2.5495042083    0.9438826904    0.6952382097
N        1.8742719885    0.3456907863    1.8395235034
O        0.1490966872   -0.8498556138    2.7372072775
H       -2.2123952596    3.1534518115   -2.2682007864
H       -0.4309404960    1.8612161324   -3.4336472584
H       -2.7957124663    2.5899563589    0.0888067215
H        0.7592539527    0.0458965232   -2.2594657723
H       -1.6190802604    0.7446387824    1.2546861610
H       -1.0709548694   -2.3775810221   -0.4754312291
H       -0.3080296637   -2.8284262595    1.1323595827
H        1.9856593265   -2.3347150738    0.1580719541
H        1.2187270935   -1.9076791513   -1.4419840965
H        3.3184668489    0.7625240798    3.3083410177
H        2.0029736129    1.9579876647    3.2008468726
H        1.6895923134    0.3560807443    3.9155458759
H        2.1451537336    1.9370930964    0.4591459266
H        3.6144838673    1.0486067761    0.9271358840
H        2.4538821257    0.3135975821   -0.1858438867
29   
torsion grid (-60,)
C       -1.6141390986    2.3407089937   -1.7217810320
C       -0.7324870553    1.5069771101   -2.4148183248
C       -1.8463442570    2.1118983674   -0.3604666316
C       -0.0851278523    0.4579873865   -1.7532393782
C       -1.2054371848    1.0589893739    0.2944387979
C       -0.3137641021    0.2165571448   -0.3919087995
C        0.8078284360   -0.5619937945    1.7718178583
C       -0.2658633325   -2.2939032143    0.2250239244
C        1.1053923289   -2.0187925639   -0.3331916364
C        0.3336536870   -0.9083719666    0.3651331763
C        2.1157463163    0.9328302612    3.1936173218
C        2.3704667920    1.1024512564    0.7423183147
N        1.7435849975    0.4349636927    1.8753052781
O        0.3634489792   -1.1493698181    2.7626985375
H       -2.1135497444    3.1587634274   -2.2343036057
H       -0.5404591012    1.6761930660   -3.4715173552
H       -2.5317761474    2.7516506386    0.1899128557
H        0.6110219548   -0.1651464421   -2.3073041277
H       -1.3992184581    0.8810213909    1.3495066784
H       -1.0855463039   -2.3902356830   -0.4797520368
H       -0.3524555568   -2.8737965769    1.1373419581
H        1.9595594992   -2.4275165162    0.1992415433
H        1.2307842441   -1.9745359153   -1.4104757499
H        3.1830212913    0.7634647838    3.3834850191
H        1.9180210336    2.0102624293    3.2595875487
H        1.5314835175    0.4077653364    3.9473298353
H        1.8751380843    2.0519043611    0.5027143483
H        3.4175885316    1.3078834952    0.9896587078
H        2.3511879275    0.4694413346   -0.1424546977
29   
torsion grid (-45,)
C       -1.5639263124    2.3533680932   -1.7304358528
C       -0.7003095374    1.5085240746   -2.4323973354
C       -1.7942404391    2.1195715053   -0.3694083209
C       -0.0684206979    0.4443037325   -1.7800180956
C       -1.1682250273    1.0519302330    0.2753940015
C       -0.2923411255    0.1995112706   -0.4187125459
C        0.9149691181   -0.6422944374    1.7070181663
C       -0.3353494004   -2.2997337017    0.2206913240
C        1.0178102963   -2.0968434240   -0.3994324553
C        0.3367450287   -0.9413512285    0.3291704990
C        2.1155627620    0.8924446227    3.1683286675
C        2.2607702980    1.2310526793    0.7251279899
N        1.6776958231    0.4895067447    1.8372552990
O        0.6837030386   -1.3801816119    2.6703241080
H       -2.0514399255    3.1830953306   -2.2355955550
H       -0.5104635705    1.6803538138   -3.4890591045
H       -2.4662163736    2.7673698887    0.1881454776
H        0.6153464743   -0.1867657163   -2.3404715974
H       -1.3574416217    0.8731921334    1.3311399565
H       -1.1914160225   -2.3509814884   -0.4443460840
H       -0.4030665498   -2.8713737043    1.1394778314
H        1.8722975908   -2.5458926836    0.0979525072
H        1.0956619932   -2.0567518822   -1.4809812976
H        3.1558109303    0.5933772823    3.3546976186
H        2.0437689605    1.9820173378    3.2585009875
H        1.4800254580    0.4182919498    3.9146413216
H        1.7241550034    2.1678650505    0.5326089424
H        3.3033347086    1.4667515796    0.9668193158
H        2.2560929200    0.6365542797   -0.1860157956
29   
torsion grid (-30,)
C       -1.4988548893    2.3780302225   -1.7616779354
C       -0.6308356081    1.5355206777   -2.4609672575
C       -1.7400868600    2.1396756118   -0.4031328512
C       -0.0045458749    0.4682414660   -1.8080327565
C       -1.1184072895    1.0694983010    0.2413011850
C       -0.2362487223    0.2202196042   -0.4485266209
C        1.0810817031   -0.6580039406    1.6274850543
C       -0.3590174483   -2.2516920123    0.2576416374
C        0.9553465668   -2.1314299974   -0.4521575444
C        0.3898285236   -0.9236833473    0.2968238483
C        2.1731383026    0.8637916348    3.1666131723
C        2.1766594340    1.4297168010    0.7665062274
N        1.6664684760    0.5679000467    1.8300305228
O        1.0699142236   -1.5120216308    2.5204814018
H       -1.9827238446    3.2095277680   -2.2674302803
H       -0.4342192181    1.7106599177   -3.5158446834
H       -2.4164473358    2.7853480186    0.1516657852
H        0.6834799907   -0.1620613655   -2.3642031694
H       -1.3123291242    0.8877666961    1.2955230725
H       -1.2599337176   -2.2605432023   -0.3474356696
H       -0.3898912813   -2.8080203958    1.1873689446
H        1.8147523252   -2.6149505584    0.0011031848
H        0.9610730407   -2.1083576734   -1.5366485795
H        3.2115008998    0.5274296973    3.2906242072
H        2.1314659292    1.9457104788    3.3277401247
H        1.5590532476    0.3578564926    3.9104947876
H        1.6014747935    2.3594046412    0.6862693778
H        3.2219218998    1.6793479835    0.9839534165
H        2.1499928046    0.9250292872   -0.1958586309
29   
torsion grid (-15,)
C       -1.4194102628    2.3444083506   -1.8091564421
C       -0.5219955230    1.5004630811   -2.4688906742
C       -1.7106906344    2.1163168861   -0.4585414254
C        0.0845022288    0.4418970255   -1.7837825326
C       -1.1076606589    1.0556824928    0.2185916965
C       -0.1948215762    0.2074067845   -0.4307390508
C        1.2242867471   -0.6526951277    1.6111211540
C       -0.4040687048   -2.2051351338    0.4299391975
C        0.8512627691   -2.1948337618   -0.3847742125
C        0.4234437577   -0.9204583442    0.3446974140
C        2.2189925016    0.8468351080    3.2219062854
C        2.0632493425    1.6093706162    0.8920780157
N        1.6525629483    0.6251596011    1.8931149575
O        1.4077824593   -1.5680308329    2.4212207841
H       -1.8891646173    3.1682937301   -2.3401133969
H       -0.2887458234    1.6669632284   -3.5176700012
H       -2.4115665180    2.7627860978    0.0639930886
H        0.7957501688   -0.1925012015   -2.3054033701
H       -1.3370763877    0.8811484880    1.2668836864
H       -1.3519829732   -2.1822380534   -0.0983551421
H       -0.3857785116   -2.7219299645    1.3823218581
H        1.7134530014   -2.7101065646    0.0248948337
H        0.7660819761   -2.2136343409   -1.4659443956
H        3.2771022240    0.5556194816    3.2679947850
H        2.1341360263    1.9110920348    3.4620485133
H        1.6718970537    0.2599729849    3.9587751126
H        1.4607031556    2.5223895272    0.9583301711
H        3.1161809266    1.8694733127    1.0581324555
H        1.9741570415    1.2139860189   -0.1151007049
29   
torsion grid (0,)
C       -1.3589137054    2.3213737039   -1.8968560457
C       -0.4156951812    1.4955159299   -2.5156831345
C       -1.7274996443    2.0739342473   -0.5688097029
C        0.1606516379    0.4361909667   -1.8068466511
C       -1.1519439478    1.0128597735    0.1319527558
C       -0.1911843054    0.1865566050   -0.4732599601
C        1.3488215232   -0.6770063432    1.4992649117
C       -0.4723128368   -2.1574156712    0.5459911670
C        0.6910430003   -2.2567943804   -0.3904847488
C        0.4221746836   -0.9317185543    0.3186543575
C        2.3177468464    0.7450140228    3.1871096004
C        1.8984173933    1.7388441547    0.9872135861
N        1.6609229965    0.6088887951    1.8871544481
O        1.7087861603   -1.6376131939    2.1896223358
H       -1.8073862488    3.1459187890   -2.4449279424
H       -0.1264463950    1.6762158566   -3.5480442133
H       -2.4662966878    2.7062485347   -0.0824473380
H        0.9056818720   -0.1907951050   -2.2895581698
H       -1.4377293853    0.8219437831    1.1635530480
H       -1.4686303312   -2.0941762825    0.1195321104
H       -0.3832966622   -2.6433248367    1.5106271602
H        1.5555125783   -2.8142577774   -0.0473373361
H        0.4892073096   -2.3004374598   -1.4556073471
H        3.3961827072    0.5473466440    3.1224270179
H        2.1661439108    1.7682529197    3.5438727553
H        1.8847468500    0.0413404978    3.8969881495
H        1.2306313893    2.5768666946    1.2167698993
H        2.9361641094    2.0757821390    1.1049567563
H        1.7555909033    1.4631907422   -0.0521438563
29   
torsion grid (15,)
C       -1.9688266100    2.1943495468   -1.1822400341
C       -2.5026352448    0.9085248213   -1.3047438127
C       -0.7232132413    2.3657089155   -0.5659554592
C       -1.8008875653   -0.1957699766   -0.8094236362
C       -0.0245708397    1.2602414469   -0.0787164824
C       -0.5562822292   -0.0357905243   -0.1855710676
C        0.6417413434   -1.2446601462    1.8217726898
C        0.0946966473   -2.5701671972   -0.2881220343
C        1.3150322312   -1.7525650299   -0.5750293542
C        0.2372206831   -1.1907351305    0.3553557023
C        0.6205912342   -0.3517235502    4.0674304889
C       -1.3587733920    0.0333184903    2.6608318934
N        0.0342701386   -0.4078217095    2.7302186107
O        1.5738710369   -1.9782659536    2.1695783581
H       -2.5143001796    3.0531462916   -1.5647273436
H       -3.4684585694    0.7631869167   -1.7823851706
H       -0.2955122336    3.3607156282   -0.4699943289
H       -2.2379998611   -1.1869317400   -0.8937487611
H        0.9429138223    1.3969070601    0.3982205849
H       -0.6442731033   -2.6888910331   -1.0733041679
H        0.2108648130   -3.4203593711    0.3755743527
H        2.2444334432   -2.0483648946   -0.1026450504
H        1.3881586994   -1.2717318190   -1.5453595579
H        0.3596543943    0.6091455751    4.5217916546
H        0.2478663315   -1.1608006534    4.7101694563
H        1.7038217899   -0.4427453754    3.9986382800
H       -1.8731451212   -0.2732161250    3.5797076863
H       -1.4330745235    1.1222656274    2.5623674660
H       -1.8789337618   -0.4221518683    1.8233384120
29   
torsion grid (30,)
C       -1.8994965235    2.2527817187   -1.1913947061
C       -2.4405720189    0.9742122606   -1.3490354787
C       -0.6679890454    2.4003491574   -0.5415357125
C       -1.7609403174   -0.1453624782   -0.8568469014
C        0.0094566133    1.2799149852   -0.0589406665
C       -0.5288846239   -0.0102085921   -0.2034688762
C        0.7574489917   -1.1481481555    1.7630543615
C        0.0061875399   -2.5900902861   -0.2058452024
C        1.2272463619   -1.8391756981   -0.6433344470
C        0.2539503016   -1.1777272910    0.3260977548
C        0.6166615179   -0.2888814262    4.0257681883
C       -1.4038495015   -0.1953674933    2.6132076202
N        0.0317968725   -0.4521517884    2.6984404232
O        1.8217634495   -1.6989396730    2.0647260981
H       -2.4284913290    3.1234625150   -1.5701003030
H       -3.3966086330    0.8456894188   -1.8505989785
H       -0.2340450634    3.3892768317   -0.4157146490
H       -2.2086545543   -1.1286415592   -0.9701315853
H        0.9668843431    1.4011472263    0.4418606192
H       -0.7976326360   -2.7367145535   -0.9193915013
H        0.1438892860   -3.4001732310    0.5031452039
H        2.1844215598   -2.1332718008   -0.2283592231
H        1.2352749268   -1.4301739417   -1.6485701849
H        0.2468787580    0.6446068312    4.4619150059
H        0.3494738234   -1.1205542703    4.6918253364
H        1.7021511198   -0.2514526601    3.9442626536
H       -1.8769006537   -0.5231471487    3.5462209199
H       -1.6192697811    0.8689612598    2.4636640368
H       -1.8559682613   -0.7557134937    1.7986492993
29   
torsion grid (45,)
C       -1.8404720271    2.2872705437   -1.2077074206
C       -2.3785369128    1.0094017797   -1.3805901118
C       -0.6215589938    2.4317912009   -0.5342974265
C       -1.7084848855   -0.1123775683   -0.8805130641
C        0.0473786772    1.3092770269   -0.0443838988
C       -0.4873028396    0.0195239052   -0.2063031589
C        0.8721441055   -1.0197922937    1.7320105152
C       -0.0306828399   -2.5820281521   -0.0864747086
C        1.1836093357   -1.8966651001   -0.6455961996
C        0.2900806076   -1.1488271858    0.3296132333
C        0.6248675891   -0.2182922847    4.0186901836
C       -1.3931988940   -0.3923717270    2.6037103536
N        0.0572000598   -0.5039984248    2.7064568805
O        2.0392495694   -1.3461414251    1.9713941185
H       -2.3627318131    3.1596326289   -1.5918035299
H       -3.3257131672    0.8831400804   -1.8992657717
H       -0.1901589234    3.4200660355   -0.3954803842
H       -2.1557156819   -1.0940536828   -1.0077497220
H        0.9968477671    1.4294047282    0.4717881310
H       -0.8789217204   -2.7566845744   -0.7402338628
H        0.1254781022   -3.3502255065    0.6649623155
H        2.1591639578   -2.1855962673   -0.2710070805
H        1.1418326309   -1.5608134661   -1.6767081078
H        0.2128956222    0.7251854634    4.3936961431
H        0.3890581145   -1.0139425631    4.7381307123
H        1.7074491851   -0.1391080722    3.9324009296
H       -1.8408142491   -0.7445880116    3.5399075065
H       -1.7121573206    0.6422311750    2.4290364754
H       -1.7766391702   -1.0131757481    1.7967212691
29   
torsion grid (60,)
C       -1.7988665262    2.3420940289   -1.2520229532
C       -2.3432147932    1.0691767450   -1.4416823438
C       -0.5841678276    2.4725061149   -0.5687170809
C       -1.6834443341   -0.0618197874   -0.9489812612
C        0.0759075383    1.3413743779   -0.0859481680
C       -0.4647054690    0.0564941451   -0.2674422170
C        0.9471482646   -0.9243963223    1.6276141026
C       -0.0783824915   -2.5572317528   -0.0804172495
C        1.1313031682   -1.9274179220   -0.7188312142
C        0.3006759576   -1.1232339695    0.2617379015
C        0.6635075348   -0.2673315204    3.9635139340
C       -1.3495811668   -0.5984168254    2.5715051874
N        0.1034964650   -0.6344633950    2.6688755830
O        2.1689443303   -1.0161985277    1.7800810088
H       -2.3136987271    3.2213934808   -1.6302797952
H       -3.2878174350    0.9539834279   -1.9675794978
H       -0.1482632654    3.4567990257   -0.4164960350
H       -2.1354622513   -1.0392019719   -1.0913236151
H        1.0245354159    1.4506759769    0.4341278106
H       -0.9572290678   -2.7370990593   -0.6915009601
H        0.0884730751   -3.3023486219    0.6922629375
H        2.1167003000   -2.2271781769   -0.3791822694
H        1.0564302333   -1.6351808812   -1.7613483605
H        0.3010076766    0.7240795709    4.2633376647
H        0.3678586656   -0.9921793031    4.7323486242
H        1.7493688153   -0.2516082883    3.8872435645
H       -1.7749209927   -0.9982011203    3.4984092772
H       -1.7234809598    0.4231734332    2.4273019962
H       -1.7004641439   -1.2147375929    1.7463420118
29   
torsion grid (75,)
C       -1.7661501107    2.3355116311   -1.3102589894
C       -2.3887384430    1.0845971641   -1.3049958775
C       -0.4907576411    2.4735802951   -0.7493484497
C       -1.7412448492   -0.0196528693   -0.7400593950
C        0.1553641697    1.3677583445   -0.1942957096
C       -0.4611919573    0.1043842947   -0.1840178477
C        0.9014464836   -0.7403709066    1.7804638018
C       -0.0918760838   -2.4958890443    0.1383495255
C        1.1456757358   -1.9008881670   -0.4890001101
C        0.2835440481   -1.0536273099    0.4221339705
C        0.5498398163   -0.2225391525    4.1386768159
C       -1.4087307191   -0.7467876968    2.7326558390
N        0.0420371738   -0.6775625677    2.8490304848
O        2.1161131588   -0.5604222718    1.9026773030
H       -2.2690268437    3.1952578047   -1.7453725778
H       -3.3809659206    0.9671331247   -1.7338207099
H        0.0022638344    3.4425953436   -0.7494223835
H       -2.2468995637   -0.9812336713   -0.7284851796
H        1.1499406374    1.4747811185    0.2312784804
H       -0.9464102733   -2.6993882031   -0.4999399277
H        0.0429501321   -3.2092944163    0.9465891250
H        2.1184855322   -2.1909749956   -0.1065637825
H        1.1106412754   -1.6656810480   -1.5480641690
H        0.1998965628    0.7954752386    4.3572316389
H        0.1982585751   -0.8893039910    4.9340830750
H        1.6380273448   -0.2276094559    4.1117196756
H       -1.8152543410   -1.2099057033    3.6377628902
H       -1.8547971344    0.2503505942    2.6211242449
H       -1.7018302792   -1.3538122615    1.8792633445
29   
torsion grid (90,)
C       -1.7095047235    2.3599187046   -1.4778343677
C       -2.3972290487    1.1577563957   -1.2938529085
C       -0.3855581121    2.4709638789   -1.0349675865
C       -1.7658941845    0.0753203854   -0.6706118229
C        0.2449042566    1.3883043390   -0.4197506645
C       -0.4384037090    0.1741816274   -0.2334469463
C        0.8607467535   -0.5897151709    1.7942592353
C       -0.0989223058   -2.4108095334    0.1718352441
C        1.1724554114   -1.8429795180   -0.4152795756
C        0.2768796051   -0.9685336455    0.4372715408
C        0.5747575874   -0.3418145226    4.1972862566
C       -1.3805559220   -0.9605174406    2.8354980564
N        0.0622448959   -0.7664600114    2.8982131659
O        2.0161641499   -0.1672028494    1.8844288525
H       -2.1985290373    3.2023467973   -1.9603001306
H       -3.4264450528    1.0613476201   -1.6308519009
H        0.1573498105    3.4026752354   -1.1735873598
H       -2.3162936937   -0.8505708974   -0.5256904491
H        1.2725731093    1.4719287702   -0.0769301323
H       -0.9259084885   -2.6181154455   -0.5011397624
H       -0.0055874763   -3.1117471505    0.9966501140
H        2.1240426676   -2.1402052204    0.0130998314
H        1.1892619213   -1.6333861757   -1.4802878951
H        0.2253654389    0.6687449173    4.4499740434
H        0.2251062715   -1.0353798396    4.9691613934
H        1.6629933351   -0.3378728892    4.1687535070
H       -1.6898874944   -1.6601596017    3.6198910002
H       -1.9133434688   -0.0119995309    2.9882537195
H       -1.6763951333   -1.3686543955    1.8733165374
29   
torsion grid (105,)
C       -1.6661898948    2.3730327342   -1.6540570488
C       -2.4007449186    1.2249965960   -1.3464660211
C       -0.3229501583    2.4609245249   -1.2672758878
C       -1.7927019685    0.1708584259   -0.6553068607
C        0.2826820393    1.4059983490   -0.5827620663
C       -0.4465519625    0.2457297556   -0.2729609817
C        0.7630914964   -0.4466522545    1.8388531691
C       -0.1425878544   -2.3183254664    0.2213908100
C        1.1649668839   -1.7755118720   -0.3042680869
C        0.2266468541   -0.8732900159    0.4767033756
C        0.6155026411   -0.4775262130    4.2620934801
C       -1.3521292835   -1.1652013135    2.9563914840
N        0.0703539207   -0.8442785009    2.9580864154
O        1.8229891345    0.1779530149    1.9197370195
H       -2.1350669746    3.1937907313   -2.1908736679
H       -3.4448289154    1.1490494882   -1.6403168533
H        0.2532383310    3.3525037263   -1.5022769369
H       -2.3738612171   -0.7162862126   -0.4163369192
H        1.3214796056    1.4712886325   -0.2727060550
H       -0.9329662773   -2.5296642180   -0.4930101189
H       -0.0987510143   -3.0068827458    1.0601897267
H        2.0860553462   -2.0792454759    0.1829685948
H        1.2485702843   -1.5864183975   -1.3700672420
H        0.2556902017    0.5091173822    4.5844116350
H        0.3045251605   -1.2235821852    5.0002060176
H        1.7024715163   -0.4450653209    4.2039061972
H       -1.5383271425   -2.0671439565    3.5512022294
H       -1.9305632712   -0.3394739460    3.3924343457
H       -1.7109350202   -1.3329767727    1.9449223846
29   
torsion grid (120,)
C       -1.6030603866    2.3845243679   -1.8280813237
C       -2.3838796295    1.2906407759   -1.4455027180
C       -0.2556492519    2.4376725906   -1.4501268774
C       -1.8181466444    0.2573441303   -0.6901096082
C        0.3080649946    1.4034676707   -0.7006180165
C       -0.4681466372    0.2982368799   -0.3159306860
C        0.6260105497   -0.3514697080    1.8821678665
C       -0.2169317050   -2.2482912733    0.2395254050
C        1.1276317968   -1.7260439664   -0.1991469074
C        0.1443552422   -0.8027822455    0.5082797687
C        0.6580673827   -0.6126863507    4.2898886860
C       -1.3254990966   -1.3706169068    3.0513425872
N        0.0716441074   -0.9474169722    2.9940784732
O        1.5632130922    0.4424388704    1.9756388837
H       -2.0389119070    3.1889354795   -2.4152613324
H       -3.4317199566    1.2412096273   -1.7314677571
H        0.3569425394    3.2872071812   -1.7419469155
H       -2.4337597001   -0.5884166997   -0.3930237085
H        1.3482260308    1.4464481117   -0.3934260971
H       -0.9613941488   -2.4509258937   -0.5247646255
H       -0.2308593041   -2.9386778407    1.0767017468
H        2.0065074157   -2.0416070235    0.3548028324
H        1.2925224278   -1.5418219293   -1.2562474225
H        0.2631057164    0.3348362905    4.6805376296
H        0.4239336126   -1.4129001030    4.9986661134
H        1.7382484415   -0.5161357625    4.1870204993
H       -1.4102602961   -2.3662967015    3.5025178037
H       -1.9067877784   -0.6659563960    3.6610057386
H       -1.7637023147   -1.3957760247    2.0568471558
29   
torsion grid (135,)
C       -1.5567111590    2.4033304260   -1.9729759637
C       -2.3831099642    1.3669868435   -1.5297506714
C       -0.2077603178    2.4192239232   -1.5981577240
C       -1.8599427382    0.3548771759   -0.7176640024
C        0.3125044514    1.4058777137   -0.7904346727
C       -0.5090258635    0.3593530957   -0.3443676843
C        0.4618500596   -0.2441995896    1.9290919981
C       -0.2896599980   -2.1712069687    0.2523092869
C        1.0815299796   -1.6512436760   -0.0840840851
C        0.0434512402   -0.7215272471    0.5449352573
C        0.7243223670   -0.6655461754    4.2962279237
C       -1.2626228361   -1.5478347425    3.1583012448
N        0.0889246485   -1.0027899501    3.0232885789
O        1.2409708135    0.7019710336    2.0382263701
H       -1.9585557444    3.1914822946   -2.6048433582
H       -3.4325900654    1.3464047175   -1.8131992610
H        0.4399687987    3.2241859973   -1.9366698994
H       -2.5084676932   -0.4474347694   -0.3728853212
H        1.3536612794    1.4243334926   -0.4853628462
H       -0.9769434170   -2.3649379361   -0.5657414077
H       -0.3608494267   -2.8713562486    1.0768113476
H        1.9119227505   -1.9700103525    0.5387662057
H        1.3303234148   -1.4650497974   -1.1242006228
H        0.2630136371    0.2158428145    4.7616695984
H        0.6229512375   -1.5191285267    4.9733986512
H        1.7799772026   -0.4511305180    4.1325342045
H       -1.2326534842   -2.5846854376    3.5133386212
H       -1.8340920337   -0.9526935568    3.8831704641
H       -1.7910608183   -1.5139207143    2.2082813194
29   
torsion grid (150,)
C       -1.4808622263    2.4223726310   -2.1023710728
C       -2.3530786741    1.4253573423   -1.6565084284
C       -0.1470577487    2.4131139895   -1.6771182116
C       -1.8915934115    0.4269689870   -0.7919236243
C        0.3113436874    1.4141692268   -0.8158894723
C       -0.5563617187    0.4075284462   -0.3670984244
C        0.2857212129   -0.1715776063    1.9694352476
C       -0.3881811974   -2.1116707236    0.2532199722
C        1.0030298554   -1.6011795640    0.0143201369
C       -0.0738925077   -0.6617086118    0.5754827086
C        0.8142895413   -0.6801679832    4.2705881876
C       -1.1607680937   -1.7185912178    3.2624595824
N        0.1232420021   -1.0481717958    3.0345955893
O        0.8858470417    0.8928478203    2.1042353437
H       -1.8355558964    3.1993654158   -2.7750165173
H       -3.3913294361    1.4248087198   -1.9792138646
H        0.5364768497    3.1874214920   -2.0167006655
H       -2.5751295303   -0.3449836913   -0.4450520306
H        1.3410304755    1.4154979037   -0.4738172749
H       -1.0204502460   -2.2859811989   -0.6119662717
H       -0.5190342972   -2.8260573139    1.0562295507
H        1.7822777705   -1.9267442062    0.6966793100
H        1.3264867487   -1.4082181790   -1.0035821765
H        0.2974581350    0.1275992039    4.8059967882
H        0.8615308978   -1.5624276111    4.9162220396
H        1.8247908974   -0.3434610048    4.0398443243
H       -1.0133142316   -2.7709790994    3.5321235297
H       -1.6973443101   -1.2253415852    4.0841315962
H       -1.7907070855   -1.6632592184    2.3770244148
29   
torsion grid (165,)
C       -1.3786290814    2.4439786688   -2.1977701575
C       -2.3030592692    1.4843203475   -1.7764679889
C       -0.0670195889    2.4023611644   -1.7095739410
C       -1.9127452063    0.4894599990   -0.8734107742
C        0.3160729330    1.4067258161   -0.8091820476
C       -0.6012245161    0.4352389926   -0.3843665388
C        0.0934302687   -0.1336939661    1.9980425260
C       -0.5020556815   -2.0810465644    0.2359292465
C        0.9050724037   -1.5878990560    0.0891872537
C       -0.1961992571   -0.6350602028    0.5937257968
C        0.8849189051   -0.6264970352    4.2250553240
C       -1.0092671796   -1.8962212083    3.3488589688
N        0.1616110509   -1.0691876730    3.0318520463
O        0.4844933841    1.0193668175    2.1614347578
H       -1.6760629793    3.2186571609   -2.9001541189
H       -3.3247312030    1.5099485904   -2.1475330348
H        0.6559551551    3.1489067999   -2.0290658522
H       -2.6358037295   -0.2538671833   -0.5447546565
H        1.3291059744    1.3846352024   -0.4198123645
H       -1.0826124207   -2.2279794317   -0.6693767179
H       -0.6958546226   -2.8086360304    1.0126484295
H        1.6335598245   -1.9264361399    0.8187386284
H        1.2913941747   -1.3882684040   -0.9051240250
H        0.3064578026    0.0956278368    4.8168865952
H        1.0984570844   -1.5044492042    4.8424763690
H        1.8226459036   -0.1535184319    3.9328876011
H       -0.7194714282   -2.9359283597    3.5414752331
H       -1.5085456165   -1.5064996384    4.2463193194
H       -1.7350451403   -1.8724092000    2.5384108299
29   
torsion grid (180,)
C       -1.0981945923    2.6425466177   -2.3246419918
C       -2.1333167716    1.9386282407   -1.7003781752
C        0.2309658832    2.3202110611   -2.0307469826
C       -1.8377325136    0.9188097124   -0.7918603440
C        0.5193921004    1.3007717296   -1.1197663562
C       -0.5104391777    0.5882978587   -0.4945590072
C       -0.0656111497    0.0411811677    1.9112328410
C       -0.7724170475   -1.8783213352    0.1392641273
C        0.7050326578   -1.6289386977   -0.0037616087
C       -0.1991668821   -0.5087092744    0.4947133924
C        0.2997227171   -0.0500693652    4.2938081249
C       -0.0273087451   -2.1899927467    3.1406725495
N        0.2182200598   -0.7559612553    3.0107712641
O       -0.1522390710    1.2628916852    2.0556444645
H       -1.3252099047    3.4350012337   -3.0334338323
H       -3.1691901913    2.1849607938   -1.9205133084
H        1.0414310013    2.8653541046   -2.5083605381
H       -2.6443605475    0.3765061243   -0.3036330084
H        1.5532789652    1.0605487380   -0.8834297156
H       -1.3590649460   -1.9057906328   -0.7732406153
H       -1.1392834280   -2.5344411813    0.9164916427
H        1.3945614333   -2.0831315076    0.6996579485
H        1.1026850677   -1.5143676532   -1.0069477861
H       -0.6906373695    0.0687330892    4.7547947870
H        0.9384900365   -0.6231027095    4.9716983694
H        0.7229455021    0.9402981640    4.1400753982
H        0.3567652883   -2.7570384379    2.2966753632
H        0.5006195329   -2.5477294302    4.0280503738
H       -1.0939388738   -2.4209986846    3.2722139645
