46   
torsion grid (-165,)
C       -2.0708148383   -5.4308581237   11.3560695907
C       -0.8820512588   -4.6728213306   11.3969661940
C       -3.0401390839   -5.2220898655   10.3743321526
C       -0.6150358198   -3.6805634523   10.4533782635
C       -7.6265595942   -1.3642041275    8.4441585325
C       -7.7041728136   -1.7937498790    7.1154756173
C       -6.4348831874   -0.9240621954    9.0416309939
C       -6.5270087771   -1.8312245644    6.3494407146
C       -5.2391732082   -0.9812046956    8.3115947909
C       -5.2978236692   -1.5032721666    6.9870343469
C       -2.7740583112   -4.2244916944    9.4346896679
C       -1.5802707254   -3.4806117923    9.4649305495
C       -2.8181375130   -2.7528444516    7.7490948563
C       -9.0341372343   -2.1963021055    6.5241586591
C       -6.4679450417   -0.3667587653   10.4462160097
C       -6.5582333374   -2.3027243939    4.9176785061
C       -3.9925189235   -0.3566194297    8.8962586912
C       -4.7598036132   -4.3577979146    7.8646564832
C       -0.7344176177   -1.4490948470    8.2244185254
N       -4.1769323708   -1.6667290831    6.1580560326
N       -3.0560767512   -2.1102740386    6.5432605261
N       -3.5247118429   -3.7417937429    8.3543438411
N       -1.6262054987   -2.6008641747    8.3794861221
H       -2.2393763094   -6.1917348552   12.1116199262
H       -0.1573147363   -4.8667120514   12.1813814253
H       -3.9577395231   -5.8010445078   10.3599080436
H        0.3019000305   -3.1015143883   10.4889307081
H       -8.5402193919   -1.3332803024    9.0333153852
H       -9.3439423114   -1.5006490088    5.7366206872
H       -8.9923681811   -3.1929567521    6.0732215933
H       -9.8162388905   -2.2028109766    7.2862133289
H       -5.6775992401   -0.7890584422   11.0745196761
H       -6.3340455708    0.7213144043   10.4453759729
H       -7.4263061395   -0.5764945444   10.9257676124
H       -7.4361961777   -1.9085137862    4.4009074277
H       -5.6623940566   -2.0004012269    4.3752139666
H       -6.6251161007   -3.3973765584    4.8627285001
H       -3.5244973419   -0.9924599735    9.6575225371
H       -3.2496406731   -0.1196483567    8.1339353598
H       -4.2467670217    0.5826609208    9.3935204905
H       -5.6296123312   -3.8804115011    8.3200477543
H       -4.8127139404   -4.2599061002    6.7814772534
H       -4.7376209667   -5.4183567937    8.1162563478
H        0.2997326648   -1.7908545946    8.2877531287
H       -0.9019763677   -1.0040433551    7.2441462764
H       -0.9315573683   -0.7157228666    9.0095872612
46   
torsion grid (-150,)
C       -2.0090840096   -5.4520391751   11.3450779027
C       -0.7922447363   -4.7403022660   11.3263690103
C       -3.0105787188   -5.2129144954   10.4029668813
C       -0.5275018359   -3.7687175278   10.3599327673
C       -7.6588436114   -1.3264282046    8.4077256753
C       -7.7285539037   -1.7743108303    7.0848617409
C       -6.4664397656   -0.8983772578    9.0133229024
C       -6.5436003704   -1.8392426392    6.3326957940
C       -5.2639643290   -0.9869592207    8.2986957002
C       -5.3140271158   -1.5229387908    6.9788212274
C       -2.7447291756   -4.2351623071    9.4432486741
C       -1.5227934828   -3.5425609681    9.4084983617
C       -2.8026130379   -2.7880673002    7.7362195987
C       -9.0582621125   -2.1645757770    6.4846287554
C       -6.5066995421   -0.3238419575   10.4108688161
C       -6.5686506872   -2.3273390609    4.9066917692
C       -4.0113067842   -0.3875714677    8.8932775867
C       -4.7826865960   -4.3336430976    7.9434147313
C       -0.7897160668   -1.4196651547    8.3250080900
N       -4.1940849802   -1.7124879289    6.1573888413
N       -3.0680865722   -2.1494631946    6.5387403178
N       -3.5293906681   -3.7236746664    8.3980338979
N       -1.5735983899   -2.6647758836    8.3129186199
H       -2.1743723093   -6.1991683720   12.1149391110
H       -0.0418457251   -4.9548404793   12.0807004309
H       -3.9507176263   -5.7538321890   10.4343996850
H        0.4134809157   -3.2287107434   10.3500605970
H       -8.5784254332   -1.2723648033    8.9858947556
H       -9.3500561935   -1.4738165427    5.6859977032
H       -9.0263016303   -3.1669701530    6.0459322006
H       -9.8479378325   -2.1508290154    7.2387281807
H       -5.7322346725   -0.7528809445   11.0541717615
H       -6.3532754310    0.7615634758   10.3990276043
H       -7.4745858562   -0.5105970365   10.8806643382
H       -7.4396403528   -1.9322439496    4.3790643166
H       -5.6659759777   -2.0398650738    4.3677260522
H       -6.6442001218   -3.4220375692    4.8650941643
H       -3.5561437941   -1.0404174073    9.6480485512
H       -3.2643882414   -0.1552920472    8.1339804378
H       -4.2501699925    0.5502814621    9.4003275631
H       -5.6367761312   -3.8257132757    8.3949796230
H       -4.8494875499   -4.2683633382    6.8585465354
H       -4.7769314023   -5.3857796133    8.2282523449
H        0.2694842609   -1.6698131049    8.3940127595
H       -0.9603009974   -0.8825268529    7.3923134770
H       -1.0839136628   -0.8054415103    9.1778957654
46   
torsion grid (-135,)
C       -1.9309415939   -5.4982540698   11.2804739247
C       -0.6896024544   -4.8392061720   11.1829108528
C       -2.9812693756   -5.2067490645   10.4082000599
C       -0.4493609269   -3.8700372057   10.2063297135
C       -7.7553073423   -1.2410989150    8.3705879932
C       -7.8186449000   -1.7189675880    7.0577961854
C       -6.5612775633   -0.8234183808    8.9807695707
C       -6.6282247578   -1.8230968405    6.3194504061
C       -5.3533667358   -0.9540666109    8.2830039147
C       -5.3973385231   -1.5172483543    6.9730484678
C       -2.7354183321   -4.2340652106    9.4388330935
C       -1.4925450997   -3.5943869014    9.3230526566
C       -2.8404754933   -2.7925500434    7.7288915952
C       -9.1495675560   -2.0972641105    6.4527182034
C       -6.6060820052   -0.2176014133   10.3649409462
C       -6.6497583104   -2.3401779990    4.9038895222
C       -4.0950448855   -0.3755353382    8.8819763594
C       -4.8506227610   -4.2741037480    8.0522588123
C       -0.8936529250   -1.3861046234    8.4453835964
N       -4.2818381569   -1.7475954034    6.1619270746
N       -3.1472059558   -2.1668776253    6.5414007438
N       -3.5701164789   -3.6782912539    8.4517024346
N       -1.5713273839   -2.6869543860    8.2404203558
H       -2.0767539951   -6.2450836062   12.0545447129
H        0.1012462210   -5.0933690880   11.8815769328
H       -3.9400928159   -5.7065891709   10.4994097658
H        0.5125191173   -3.3730335021   10.1364567241
H       -8.6802113955   -1.1554734776    8.9363597455
H       -9.4209283083   -1.4181149663    5.6371301827
H       -9.1317988903   -3.1090460894    6.0354745583
H       -9.9458334286   -2.0532501895    7.1986593359
H       -5.8492066470   -0.6490256926   11.0272578273
H       -6.4289075221    0.8637003830   10.3314645753
H       -7.5834462951   -0.3731551040   10.8263630418
H       -7.5109565370   -1.9434682170    4.3617204914
H       -5.7385649317   -2.0783526984    4.3665224858
H       -6.7415136542   -3.4342906534    4.8852526397
H       -3.6613763214   -1.0337093725    9.6443798005
H       -3.3379707166   -0.1676848627    8.1263311385
H       -4.3164968052    0.5714142839    9.3797040830
H       -5.6792835464   -3.7262748861    8.5041989524
H       -4.9447146045   -4.2491822435    6.9676157644
H       -4.8649168207   -5.3136388777    8.3785878909
H        0.1800560722   -1.5594386739    8.5165405848
H       -1.0791550833   -0.7430741952    7.5851512249
H       -1.2589503544   -0.9193061915    9.3607686896
46   
torsion grid (-120,)
C       -1.7246063228   -5.6277626500   11.2010430661
C       -0.4705263200   -5.0143516157   11.0224062647
C       -2.8296540448   -5.2631867331   10.4281398017
C       -0.2750625999   -4.0156853687   10.0638430806
C       -7.8110834896   -1.1533479039    8.2828447353
C       -7.8471963620   -1.6894488484    6.9915175695
C       -6.6273670556   -0.7332000989    8.9126779025
C       -6.6385631708   -1.8501393018    6.2958890852
C       -5.4022056180   -0.9216124761    8.2624103886
C       -5.4160570489   -1.5424838395    6.9745182510
C       -2.6220631741   -4.2661480671    9.4757069698
C       -1.3720361078   -3.6670937146    9.2794007278
C       -2.7967418583   -2.7959554062    7.7915550380
C       -9.1687727764   -2.0665224388    6.3652887828
C       -6.7041568671   -0.0655417913   10.2666236744
C       -6.6338668114   -2.4257996685    4.9036968284
C       -4.1507488471   -0.3495712946    8.8766970550
C       -4.8201567201   -4.2236608901    8.2308946538
C       -0.9490218481   -1.3694059459    8.6786819991
N       -4.2969372215   -1.8437179616    6.2071186455
N       -3.1500460524   -2.2049719775    6.6155481063
N       -3.5116990558   -3.6503367305    8.5688766028
N       -1.4915946743   -2.6891655256    8.2477109823
H       -1.8376597810   -6.3986490044   11.9567691457
H        0.3660356892   -5.3273495774   11.6392069147
H       -3.7967158923   -5.7313661095   10.5804529822
H        0.6977898092   -3.5542236354    9.9294972999
H       -8.7505216272   -1.0228632817    8.8151768863
H       -9.4021853240   -1.4187604286    5.5132980596
H       -9.1613393566   -3.0960156126    5.9938588650
H       -9.9843470716   -1.9729626323    7.0852995573
H       -5.9799896376   -0.4834850084   10.9725785417
H       -6.5009244099    1.0090408054   10.1917565793
H       -7.6995996580   -0.1792003724   10.7006987360
H       -7.4723964198   -2.0344214064    4.3234446376
H       -5.7033662285   -2.2080382880    4.3809157022
H       -6.7505358540   -3.5173421695    4.9304159284
H       -3.7504537532   -0.9979573644    9.6647270980
H       -3.3711104699   -0.1796458616    8.1351269014
H       -4.3654465557    0.6139672933    9.3441949390
H       -5.6199775988   -3.6260668756    8.6721896006
H       -4.9421352418   -4.2507947588    7.1485845618
H       -4.8618055190   -5.2435617204    8.6105184218
H        0.1262394561   -1.4715688538    8.8189323350
H       -1.1186587326   -0.6315400482    7.8942093924
H       -1.4185728923   -1.0570380655    9.6120551154
46   
torsion grid (-105,)
C       -1.4530341419   -5.8415185316   11.0038830036
C       -0.2139473678   -5.2237079743   10.7633941900
C       -2.6189871313   -5.4042772621   10.3670806236
C       -0.0967449850   -4.1436903381    9.8800615061
C       -7.9016146748   -1.0194717469    8.1525264893
C       -7.9063804365   -1.6575543413    6.9071371268
C       -6.7316900129   -0.5786405394    8.7965637523
C       -6.6795243142   -1.9027747746    6.2735411580
C       -5.4896513663   -0.8460128792    8.2127418604
C       -5.4710966226   -1.5688463520    6.9744570541
C       -2.4858437272   -4.3326468049    9.4866226126
C       -1.2524792313   -3.7226715334    9.2326346577
C       -2.7779886198   -2.7672523419    7.9053194224
C       -9.2148544513   -2.0517418418    6.2645840187
C       -6.8454324873    0.1917489795   10.0921200424
C       -6.6428382291   -2.5855155702    4.9322191946
C       -4.2446051487   -0.2656477293    8.8281146099
C       -4.7832630163   -4.1826381716    8.4329347949
C       -1.0615423105   -1.3687901876    9.0389522958
N       -4.3453399246   -1.9699633464    6.2851762251
N       -3.1914963516   -2.2290023007    6.7472946842
N       -3.4492128529   -3.6421868013    8.7074307466
N       -1.4447589870   -2.6265509103    8.3187554668
H       -1.5085327597   -6.6760108361   11.6957756670
H        0.6727987749   -5.5957875430   11.2669296634
H       -3.5721780199   -5.8834473844   10.5656207543
H        0.8648825264   -3.6760803623    9.6936558994
H       -8.8565051728   -0.8244805696    8.6355563165
H       -9.4008487506   -1.4687474921    5.3560533954
H       -9.2213906332   -3.1074998040    5.9765113813
H      -10.0523046052   -1.8819193237    6.9443184840
H       -6.1586496511   -0.1857551428   10.8555211733
H       -6.6160424279    1.2533408238    9.9442387084
H       -7.8590011082    0.1303696745   10.4934626129
H       -7.4390738528   -2.2050039498    4.2882089721
H       -5.6836641441   -2.4513030736    4.4349207470
H       -6.8138160397   -3.6647172986    5.0402688322
H       -3.8602501120   -0.8965599332    9.6371671595
H       -3.4524318456   -0.1289750693    8.0921157335
H       -4.4563846238    0.7122807357    9.2646987838
H       -5.5520762012   -3.4903085601    8.7816220115
H       -4.9053450923   -4.3484263696    7.3606367703
H       -4.8877051875   -5.1361906334    8.9463539199
H        0.0071724327   -1.4138166023    9.2411758320
H       -1.2479876403   -0.5051530363    8.4000837411
H       -1.6118541690   -1.2802333734    9.9782383926
46   
torsion grid (-90,)
C       -1.1150425823   -6.0616984256   10.7705511795
C        0.0897220242   -5.4120503938   10.4655072206
C       -2.3447239360   -5.5708644567   10.3101610466
C        0.1096738386   -4.2417309159    9.6909611550
C       -7.9615826854   -0.8715665073    8.0208170774
C       -7.9355698993   -1.6070166142    6.8301384045
C       -6.8085017239   -0.4244847467    8.6948999664
C       -6.6920009764   -1.9537661923    6.2854957039
C       -5.5525769507   -0.7794039147    8.1994133633
C       -5.5041982971   -1.6048537106    7.0219137744
C       -2.3069332313   -4.4135152356    9.5395535852
C       -1.1053604463   -3.7687600975    9.2210811668
C       -2.7455365817   -2.7581459259    8.0968394461
C       -9.2270687711   -1.9986319983    6.1532759485
C       -6.9623449542    0.4426490603    9.9235960279
C       -6.6211751912   -2.7425070575    5.0064739876
C       -4.3120532274   -0.2098854981    8.8320111002
C       -4.7089931779   -4.1725091369    8.7531859037
C       -1.1736389170   -1.4397905216    9.4542925858
N       -4.3758108652   -2.1278215690    6.4495536488
N       -3.2318891504   -2.2688049578    6.9772624140
N       -3.3544856673   -3.6554397993    8.9368869715
N       -1.3898389134   -2.5559012370    8.4684286288
H       -1.0981647388   -6.9668608174   11.3694718902
H        1.0259292048   -5.8269092673   10.8257942858
H       -3.2699350964   -6.0836179536   10.5528997460
H        1.0433768398   -3.7426402709    9.4501000438
H       -8.9303038375   -0.6027248327    8.4363038726
H       -9.3391782145   -1.4884478638    5.1904884303
H       -9.2677359134   -3.0739925988    5.9545580523
H      -10.0889901902   -1.7364512252    6.7700010699
H       -6.3337911795    0.0972910301   10.7494765380
H       -6.6845639165    1.4818064958    9.7135053659
H       -7.9977808210    0.4457639679   10.2698501549
H       -7.3372919912   -2.3501640946    4.2798919384
H       -5.6243404852   -2.7283135599    4.5706018877
H       -6.8965772812   -3.7901419888    5.1841074851
H       -3.9468245372   -0.8409795394    9.6497458935
H       -3.5045447648   -0.0952044312    8.1071617545
H       -4.5170844401    0.7739314311    9.2565210776
H       -5.4422670678   -3.3915032077    8.9616964723
H       -4.8477585082   -4.5384464194    7.7307941660
H       -4.8644687659   -4.9979053155    9.4451551617
H       -0.1165379864   -1.4352575533    9.7146424282
H       -1.4130443119   -0.4822678699    8.9900334661
H       -1.7721644479   -1.5884260795   10.3589175202
46   
torsion grid (75,)
C       -2.2365122865   -4.9598315550   11.4139946542
C       -1.3000035388   -3.9595537023   11.7089154327
C       -2.9504211687   -4.9603282448   10.2048466284
C       -1.0311977069   -2.9179060371   10.8040202578
C       -7.6949635799   -1.6052347519    8.5328400465
C       -7.7611117980   -1.8844354397    7.1628888980
C       -6.5481198973   -1.0992885291    9.1688140540
C       -6.6068195762   -1.7045258264    6.3843743713
C       -5.3713194933   -0.9311266190    8.4276622144
C       -5.4041922608   -1.3218938824    7.0510043690
C       -2.6799814492   -3.9176334643    9.3299891366
C       -1.7498212103   -2.9071769358    9.6218877656
C       -2.8290808066   -2.3426307524    7.7810179033
C       -9.0541054879   -2.3597709112    6.5449030041
C       -6.6191606237   -0.6973369105   10.6233547995
C       -6.6237720009   -2.0049158930    4.9076628246
C       -4.2158895581   -0.1773773409    9.0537683814
C       -4.4011216037   -4.2765593079    7.4774575636
C       -0.4427419572   -2.7466606348    7.7376479717
N       -4.2822898435   -1.3472577940    6.2264161487
N       -3.1365686450   -1.6356688017    6.6683072413
N       -3.2449149415   -3.5966364422    8.0539907054
N       -1.6054160674   -2.0444260606    8.4402017427
H       -2.4229799565   -5.7473035737   12.1375075704
H       -0.7730138763   -3.9871312316   12.6575882646
H       -3.6834974329   -5.7307681225    9.9876465663
H       -0.2981187483   -2.1485999911   11.0271343396
H       -8.5930060766   -1.7435125868    9.1307699241
H       -9.4547776531   -1.6168459619    5.8466842135
H       -8.9162435655   -3.2879689370    5.9812282352
H       -9.8125673765   -2.5385284511    7.3097301064
H       -5.7656570672   -1.0757368921   11.1937463935
H       -6.6221284395    0.3933080526   10.7327663636
H       -7.5316881030   -1.0753235212   11.0889288570
H       -7.5335400105   -1.6083653626    4.4502200324
H       -5.7585670077   -1.5836253617    4.3973413161
H       -6.6266274007   -3.0872704934    4.7250939808
H       -3.6954627995   -0.7631779195    9.8190756014
H       -3.4747444493    0.1596486629    8.3296229280
H       -4.6032237562    0.7113142777    9.5599726878
H       -5.3252390382   -3.9572387863    7.9682462059
H       -4.4537808151   -4.0543529360    6.4117692278
H       -4.2618452231   -5.3505756102    7.6063061097
H       -0.6456457469   -3.8148655487    7.6259892199
H       -0.2938007987   -2.2801615126    6.7617203188
H        0.4432495160   -2.5894246148    8.3493138435
46   
torsion grid (90,)
C       -2.1414705142   -5.1095995204   11.3886072633
C       -1.1529349452   -4.1467644931   11.6496122222
C       -2.9398902414   -5.0449931953   10.2392787505
C       -0.9210096607   -3.0785228378   10.7712575085
C       -7.7175246043   -1.5449556819    8.4947871093
C       -7.7587540623   -1.8687450236    7.1337684510
C       -6.5774305749   -1.0312112078    9.1341135903
C       -6.5870333752   -1.7260141041    6.3731810737
C       -5.3842438803   -0.9008494680    8.4091682759
C       -5.3954545903   -1.3318564295    7.0470818518
C       -2.6992325284   -3.9765216830    9.3822750933
C       -1.7233690740   -3.0043687305    9.6421224990
C       -2.8605183878   -2.3815047950    7.8397652607
C       -9.0439518252   -2.3518942259    6.5053664799
C       -6.6686962300   -0.5803762438   10.5732454815
C       -6.5760758153   -2.0772260339    4.9071101501
C       -4.2291792146   -0.1467504459    9.0346187928
C       -4.5009791319   -4.2659259668    7.6018549341
C       -0.4446930610   -2.5290127118    7.7324933303
N       -4.2555826275   -1.3706113171    6.2379313625
N       -3.1230672287   -1.6994098223    6.6846587074
N       -3.3251441653   -3.6029801213    8.1611138127
N       -1.6654004860   -2.0854940370    8.5208407724
H       -2.2978636344   -5.9182130096   12.0957044849
H       -0.5585207451   -4.2279881100   12.5542857533
H       -3.7102639089   -5.7854051296   10.0490924104
H       -0.1549496101   -2.3362397173   10.9736979364
H       -8.6283190567   -1.6539627701    9.0792323920
H       -9.4230221955   -1.6287545793    5.7749946923
H       -8.9048243672   -3.2996136214    5.9753459200
H       -9.8194512720   -2.4977196355    7.2600920291
H       -5.8319007595   -0.9519288026   11.1723808898
H       -6.6567685526    0.5132698330   10.6467732966
H       -7.5954156055   -0.9290732668   11.0336831264
H       -7.4757248997   -1.6971643049    4.4170999663
H       -5.7004171632   -1.6727143592    4.4002860213
H       -6.5745175610   -3.1652150492    4.7604796433
H       -3.7300664383   -0.7180858599    9.8247564721
H       -3.4712626700    0.1574341197    8.3133893410
H       -4.6102372513    0.7626831182    9.5076227567
H       -5.4119175224   -3.9166404615    8.0952326165
H       -4.5569297018   -4.0591881187    6.5336791097
H       -4.3839900828   -5.3402940384    7.7466877279
H       -0.5109002397   -3.5995981633    7.5175202078
H       -0.3941287945   -1.9532775025    6.8080140483
H        0.4337789470   -2.3181952117    8.3392079090
46   
torsion grid (105,)
C       -2.1087897263   -5.2422034935   11.3490926373
C       -1.0787457687   -4.3139381076   11.5832076207
C       -2.9613979369   -5.1236863430   10.2465461881
C       -0.8636064227   -3.2274775054   10.7271364168
C       -7.7280741661   -1.5009499294    8.4752769879
C       -7.7602729393   -1.8679608066    7.1250020556
C       -6.5884345632   -0.9760019047    9.1044964106
C       -6.5817829653   -1.7591610924    6.3692083348
C       -5.3883941767   -0.8789358908    8.3838590419
C       -5.3932479147   -1.3521523405    7.0378061727
C       -2.7345411200   -4.0390258224    9.4030436502
C       -1.7202801786   -3.1003927103    9.6397064085
C       -2.8896997097   -2.4327418741    7.8664196477
C       -9.0440797672   -2.3613960446    6.5017323434
C       -6.6848585370   -0.4774640098   10.5274942299
C       -6.5619657864   -2.1593222447    4.9154284642
C       -4.2301487713   -0.1173342057    8.9931611099
C       -4.5879148702   -4.2721270517    7.6729097208
C       -0.4424593070   -2.2726817793    7.7958943183
N       -4.2452912303   -1.4103997564    6.2354733471
N       -3.1213614364   -1.7678997616    6.6818338647
N       -3.3941081378   -3.6295543938    8.2189343367
N       -1.7278494103   -2.1400362008    8.5715052051
H       -2.2506341965   -6.0660435726   12.0415223761
H       -0.4394665146   -4.4388851796   12.4515230362
H       -3.7601284465   -5.8382449045   10.0762206301
H       -0.0695792289   -2.5118106403   10.9160059050
H       -8.6439756925   -1.5841249617    9.0559674374
H       -9.4114993908   -1.6594186173    5.7451760001
H       -8.9083447030   -3.3268026054    6.0036036960
H       -9.8268946416   -2.4767329111    7.2542228435
H       -5.8542456305   -0.8342366750   11.1440134022
H       -6.6662885112    0.6179737781   10.5650242818
H       -7.6166112902   -0.8048709491   10.9934538005
H       -7.4543950277   -1.7895013522    4.4047611281
H       -5.6792118069   -1.7775858292    4.4028881242
H       -6.5667879762   -3.2515788656    4.8041265098
H       -3.7407964175   -0.6695178000    9.8026116670
H       -3.4660994105    0.1555888031    8.2656859829
H       -4.6035370971    0.8111342117    9.4341408082
H       -5.4874460122   -3.8977948168    8.1678664613
H       -4.6457212527   -4.0763183808    6.6030793497
H       -4.4927507820   -5.3470615299    7.8280795886
H       -0.3212531632   -3.3101999824    7.4729606340
H       -0.4728874929   -1.6057277306    6.9352743281
H        0.3773371251   -1.9809003857    8.4495640573
46   
torsion grid (120,)
C       -2.1029246170   -5.3417468662   11.3422370600
C       -1.0360581720   -4.4466875219   11.5470767950
C       -2.9890204148   -5.1893348619   10.2724370077
C       -0.8210603008   -3.3593627884   10.6948791649
C       -7.7071299290   -1.4591873157    8.4610356738
C       -7.7408148269   -1.8598034744    7.1203225381
C       -6.5611855236   -0.9360435699    9.0795095267
C       -6.5590414146   -1.7889896842    6.3652129827
C       -5.3578720081   -0.8765859309    8.3598076010
C       -5.3668416593   -1.3834506909    7.0268097790
C       -2.7614101215   -4.1048473683    9.4268064570
C       -1.7131328845   -3.1976689633    9.6379269970
C       -2.8917105216   -2.5024830648    7.8780559785
C       -9.0303686323   -2.3496773202    6.5061632044
C       -6.6523860421   -0.4000985558   10.4892154473
C       -6.5398873691   -2.2278822813    4.9225170749
C       -4.1891398563   -0.1183172538    8.9523298994
C       -4.6397176165   -4.3011717130    7.7248737159
C       -0.4581846649   -2.0641069945    7.8700989507
N       -4.2175196172   -1.4716943478    6.2275463228
N       -3.1001795320   -1.8526246634    6.6736813536
N       -3.4347051447   -3.6746744952    8.2651930275
N       -1.7511118004   -2.2235515703    8.6004452152
H       -2.2437576175   -6.1677108770   12.0323133111
H       -0.3683404362   -4.6008150045   12.3888723709
H       -3.8123406547   -5.8803143975   10.1239112174
H        0.0012396986   -2.6710199225   10.8615422068
H       -8.6256521383   -1.5137545822    9.0409569693
H       -9.3847554062   -1.6626209321    5.7299443856
H       -8.9082999324   -3.3300776230    6.0344234994
H       -9.8169900274   -2.4326988276    7.2589567213
H       -5.8317554530   -0.7587491789   11.1180229948
H       -6.6109556976    0.6953104776   10.4997874984
H       -7.5924583965   -0.6962971153   10.9593105913
H       -7.4280883117   -1.8650970667    4.3997187415
H       -5.6528199509   -1.8665878392    4.4023345854
H       -6.5522647231   -3.3226774392    4.8396922913
H       -3.7124183020   -0.6567820469    9.7783008814
H       -3.4191299430    0.1205459760    8.2188957342
H       -4.5470235150    0.8292424905    9.3646610763
H       -5.5333664963   -3.9002688659    8.2089468777
H       -4.6893193292   -4.1236966803    6.6515299191
H       -4.5674825186   -5.3750787310    7.8981383667
H       -0.1392516964   -3.0392400430    7.4937497805
H       -0.5941174804   -1.3661897854    7.0460208361
H        0.2832344636   -1.6638623922    8.5601464526
46   
torsion grid (135,)
C       -2.0950925861   -5.4027941021   11.3144988736
C       -1.0103893360   -4.5235458644   11.5003590031
C       -3.0077053427   -5.2291644766   10.2717700389
C       -0.8031381647   -3.4286933100   10.6580019560
C       -7.6981287364   -1.4145921585    8.4555455188
C       -7.7408752646   -1.8507056197    7.1261983952
C       -6.5449943415   -0.8870410184    9.0558325668
C       -6.5607741485   -1.8113370470    6.3661257296
C       -5.3434532774   -0.8589306219    8.3304276284
C       -5.3634052323   -1.3990434433    7.0119616595
C       -2.7909792651   -4.1381646685    9.4301082671
C       -1.7231052449   -3.2472875166    9.6266286901
C       -2.9102848881   -2.5409956103    7.8732403587
C       -9.0369518219   -2.3447813392    6.5293177538
C       -6.6247217870   -0.3136705603   10.4514662207
C       -6.5494447144   -2.2889820778    4.9356252881
C       -4.1637936743   -0.0997947758    8.8996116454
C       -4.6873346419   -4.3157159996    7.7462380081
C       -0.5244267063   -1.8179949366    7.9952651856
N       -4.2161100259   -1.5076833327    6.2090324869
N       -3.1031174264   -1.9052504132    6.6506283401
N       -3.4791513576   -3.6948025979    8.2864640935
N       -1.7945709242   -2.2665128282    8.6124466639
H       -2.2261518452   -6.2355376133   11.9983031093
H       -0.3208620298   -4.6987753768   12.3201146056
H       -3.8414459122   -5.9104447058   10.1376104933
H        0.0334797806   -2.7542248390   10.8086340374
H       -8.6149256063   -1.4447602528    9.0399104067
H       -9.3883559363   -1.6746000677    5.7371239866
H       -8.9252125799   -3.3378766316    6.0821774501
H       -9.8214584419   -2.4018063201    7.2867385301
H       -5.8075631929   -0.6675887790   11.0875280713
H       -6.5680524418    0.7809884366   10.4338267565
H       -7.5674692603   -0.5845349176   10.9313539045
H       -7.4362758892   -1.9341320764    4.4051473251
H       -5.6613062540   -1.9477799481    4.4035078374
H       -6.5693844803   -3.3854970965    4.8819835764
H       -3.6935725177   -0.6223288179    9.7394527646
H       -3.3932259236    0.1083419452    8.1570639229
H       -4.5069716693    0.8643858258    9.2850481753
H       -5.5802035457   -3.8915879475    8.2109598363
H       -4.7227728488   -4.1620982646    6.6684820164
H       -4.6333589209   -5.3864196705    7.9433285542
H        0.0309247189   -2.6947570291    7.6540667189
H       -0.7454083280   -1.1641666802    7.1538550417
H        0.0573260380   -1.2667579830    8.7341129040
46   
torsion grid (150,)
C       -2.1512057868   -5.4724077426   11.2950273856
C       -1.0437534218   -4.6170931452   11.4651288493
C       -3.0639112727   -5.2917568996   10.2542291554
C       -0.8128429035   -3.5407082924   10.6067833367
C       -7.6744362341   -1.4370190866    8.3627926518
C       -7.7163154205   -1.8808429945    7.0362551872
C       -6.5148034212   -0.9257768578    8.9648110697
C       -6.5313032965   -1.8668924779    6.2825257393
C       -5.3093431031   -0.9239163561    8.2458019273
C       -5.3297639774   -1.4710862386    6.9305342384
C       -2.8260821531   -4.2190153467    9.3938105975
C       -1.7309713524   -3.3557733312    9.5731736538
C       -2.8988273548   -2.6473861949    7.8056504542
C       -9.0172569335   -2.3565165752    6.4350736370
C       -6.5912923773   -0.3435042752   10.3569831309
C       -6.5213142120   -2.3542449819    4.8553782260
C       -4.1178208832   -0.1872431172    8.8195638887
C       -4.7180620475   -4.3851644377    7.7064049650
C       -0.5839443372   -1.7186627017    8.0520837054
N       -4.1806791887   -1.6006738944    6.1324488929
N       -3.0747162401   -2.0177438516    6.5759250207
N       -3.5096942752   -3.7703604932    8.2533749658
N       -1.7918305435   -2.3954202727    8.5520252354
H       -2.2994008586   -6.2919280048   11.9911943224
H       -0.3560263660   -4.7979171639   12.2851884121
H       -3.9146030883   -5.9544032461   10.1339015258
H        0.0399054111   -2.8833332617   10.7423869655
H       -8.5945933861   -1.4477221423    8.9425488376
H       -9.3520493871   -1.6863180829    5.6357436640
H       -8.9203323281   -3.3548223196    5.9961506661
H       -9.8071803971   -2.3939469616    7.1880960932
H       -5.7839340810   -0.7086216805   10.9992631770
H       -6.5154873337    0.7499192274   10.3341089947
H       -7.5410682959   -0.5952261293   10.8334254550
H       -7.4011621001   -1.9909920866    4.3190552680
H       -5.6263727250   -2.0289908748    4.3246099101
H       -6.5557245501   -3.4507420374    4.8091826940
H       -3.6584487942   -0.7217573548    9.6582440791
H       -3.3442753208    0.0114309834    8.0771117994
H       -4.4436241203    0.7813417871    9.2087620587
H       -5.6113528415   -3.9475691939    8.1573832309
H       -4.7415993444   -4.2425360969    6.6268910384
H       -4.6773399043   -5.4545755035    7.9139101579
H        0.1949062554   -2.4672778903    7.8911696083
H       -0.8207092541   -1.2225629532    7.1126192797
H       -0.2452105946   -0.9776641805    8.7785002859
46   
torsion grid (165,)
C       -2.1172530173   -5.5003126048   11.3289316822
C       -0.9815590168   -4.6747527694   11.4619912258
C       -3.0523497646   -5.3023720221   10.3121475168
C       -0.7413160538   -3.6159078767   10.5858896836
C       -7.6267904229   -1.3955614146    8.5001754066
C       -7.7044861222   -1.8256790396    7.1710415047
C       -6.4447258042   -0.9162401916    9.0848848668
C       -6.5337853767   -1.8300042045    6.3947828162
C       -5.2542778971   -0.9342621991    8.3422611902
C       -5.3112875600   -1.4662091566    7.0219601665
C       -2.8092772263   -4.2446306018    9.4339116851
C       -1.6784429012   -3.4183249783    9.5706380909
C       -2.8740239653   -2.6896918725    7.8283791154
C       -9.0269776971   -2.2672673172    6.5911419538
C       -6.4813332092   -0.3488274199   10.4849179226
C       -6.5619345650   -2.3042997540    4.9635518541
C       -4.0328418120   -0.2383851783    8.9032698839
C       -4.7398984484   -4.3829617073    7.7903321004
C       -0.6393617354   -1.6048227435    8.1218669156
N       -4.1823994991   -1.6090247527    6.1973810050
N       -3.0719917575   -2.0497966128    6.6076218419
N       -3.5178834869   -3.7783419916    8.3189212604
N       -1.7400049207   -2.4778969588    8.5392750834
H       -2.2702217428   -6.3084176580   12.0372985659
H       -0.2792340636   -4.8663083928   12.2670947267
H       -3.9261569956   -5.9393926297   10.2231593031
H        0.1314789603   -2.9800030749   10.6936071026
H       -8.5354176647   -1.3922373324    9.0978659279
H       -9.3621596103   -1.5828611112    5.8041214569
H       -8.9606010921   -3.2635485309    6.1420821492
H       -9.8029259131   -2.2939648233    7.3590101741
H       -5.6705081698   -0.7395747729   11.1074962885
H       -6.3816959717    0.7428729253   10.4732125338
H       -7.4272234721   -0.5849996265   10.9767844764
H       -7.4456231209   -1.9205374660    4.4483374944
H       -5.6718881717   -1.9907758014    4.4176937261
H       -6.6169460576   -3.3995709988    4.9089005423
H       -3.5659711166   -0.8039165442    9.7176401075
H       -3.2752550202   -0.0375806217    8.1449539508
H       -4.3252436249    0.7274415386    9.3242980802
H       -5.6217315063   -3.9325625610    8.2507768111
H       -4.7766638761   -4.2452539677    6.7105711666
H       -4.7095761660   -5.4519254091    8.0021423805
H        0.2862564366   -2.1835988970    8.1260617309
H       -0.8429945744   -1.2457848942    7.1141069684
H       -0.5477448808   -0.7559082253    8.8035252609
46   
torsion grid (180,)
C       -2.1043900033   -5.4568890681   11.3859564454
C       -0.9421629805   -4.6622554981   11.4739051679
C       -3.0552919733   -5.2575936297   10.3845695416
C       -0.6866021149   -3.6376807475   10.5626378428
C       -7.6226648756   -1.3776678010    8.5147217725
C       -7.7042210562   -1.8070499965    7.1858803914
C       -6.4336253765   -0.9183023309    9.1020856860
C       -6.5325307823   -1.8291659334    6.4111731691
C       -5.2427483426   -0.9561237474    8.3619802860
C       -5.3047403303   -1.4841016809    7.0401288137
C       -2.8003341894   -4.2303439071    9.4738893064
C       -1.6365572815   -3.4425959777    9.5582876072
C       -2.8499737637   -2.7213003854    7.8234632837
C       -9.0326335208   -2.2276749319    6.6039483536
C       -6.4638372216   -0.3557822449   10.5044577071
C       -6.5667324598   -2.3018719749    4.9796723346
C       -4.0065156552   -0.2951406840    8.9309283221
C       -4.7561070865   -4.3716266751    7.8632163948
C       -0.6917072736   -1.5116809633    8.1962500272
N       -4.1815502023   -1.6387364226    6.2109779910
N       -3.0662045945   -2.0826703682    6.6081356656
N       -3.5281464190   -3.7612851800    8.3733278801
N       -1.6892929269   -2.5386646981    8.4968576561
H       -2.2660501690   -6.2406364159   12.1193115568
H       -0.2301970419   -4.8522386627   12.2708668859
H       -3.9510330742   -5.8677338265   10.3327118405
H        0.2078681599   -3.0275561026   10.6350058900
H       -8.5321882993   -1.3602267484    9.1108021658
H       -9.3568642868   -1.5366887711    5.8180876919
H       -8.9807339880   -3.2239214185    6.1530283652
H       -9.8094707610   -2.2442331043    7.3712119458
H       -5.6609155632   -0.7621572786   11.1272997963
H       -6.3474633667    0.7342952998   10.4977421584
H       -7.4143955173   -0.5790832620   10.9933433181
H       -7.4471303969   -1.9093213023    4.4655155316
H       -5.6738160429   -1.9971460667    4.4336541439
H       -6.6322267396   -3.3965639928    4.9248546136
H       -3.5356852456   -0.8955459734    9.7182005331
H       -3.2590889599   -0.0761400242    8.1674824814
H       -4.2787033865    0.6583938092    9.3909160049
H       -5.6325940442   -3.9064471615    8.3188215936
H       -4.7988528765   -4.2558719437    6.7811746898
H       -4.7311210021   -5.4362358092    8.0968030101
H        0.3019889232   -1.9597207279    8.2493123035
H       -0.8673969788   -1.1395637570    7.1876336030
H       -0.7661547447   -0.6908271247    8.9137270490
