20
0 1 C8H8N4
C                     0.623646624833     0.961841658171     1.908504878783
C                     0.220592674454    -0.237176527308     1.324278019067
C                    -0.089014898897     1.358665340660     3.045892715594
C                    -4.135342881026    -1.913198733559     4.740578091881
C                    -4.009291012032    -2.884634395727     3.763225440024
C                    -1.404895034383    -0.497960697756     2.913622109482
C                    -2.511809106121    -1.284914791243     3.470486834917
C                    -2.518837754252    -3.245199363751     1.789346442560
N                    -0.784734533763    -0.971739235258     1.812778091942
N                    -1.094000142216     0.647289241293     3.554052997163
N                    -3.208313452581    -0.932287100372     4.551278586952
N                    -2.974290921992    -2.484850665258     2.952781043151
H                     1.440612696901     1.552078833270     1.505968283796
H                     0.715977364007    -0.626638957914     0.435412337754
H                     0.158190806579     2.283351143783     3.567174983289
H                    -4.842812837645    -1.878977970493     5.559539648876
H                    -4.551068408347    -3.801731025050     3.577305403640
H                    -2.613679783256    -2.651521864728     0.879855354488
H                    -1.472836091169    -3.531400645892     1.901498884728
H                    -3.138950020370    -4.140301197405     1.710882098969
