22
0 1 C7H11N3O
C                    -1.668226293499    -1.792632410783     4.687122033546
C                    -1.083892825741    -3.024202958836     4.483453673980
C                     0.427137509042    -1.416059212999     4.345655409728
C                     2.436203478366    -0.911868067434     1.747789494734
C                     2.332265247660    -0.333088716677     0.348012709959
C                     1.283548085261    -3.795236988779     4.052317929480
C                     1.718171964847    -0.689691396252     4.109362015683
N                    -0.719960935964    -0.798340743495     4.599106554604
N                     0.256967093516    -2.775821844940     4.255755811203
N                     1.842155100204    -0.182988484597     2.739884907262
O                     3.034880289127    -1.968729113643     1.967316930171
H                    -2.707867802145    -1.571262840683     4.891965902075
H                    -1.483149490417    -4.028919306048     4.482322271937
H                     3.331387567325    -0.304136807052    -0.093026432578
H                     1.721364157577    -1.004136892874    -0.263110269420
H                     1.896419841860     0.669234617103     0.319840193697
H                     0.827655144801    -4.664902221143     3.574580977105
H                     2.065920255537    -3.409065971631     3.397443806014
H                     1.716493441193    -4.104749066810     5.009615643487
H                     1.754801960626     0.162444396500     4.791458231973
H                     2.585176425402    -1.322117171553     4.299838881696
H                     1.211177063790     0.563928389222     2.477960809726
