19
0 1 C8H7N3O
C                     1.240647471830     0.112610111663     1.599652896405
C                     0.109308463918    -0.396030165386     0.953123410708
C                     1.629493675574    -0.405016292937     2.832761508604
C                    -0.591695650992    -1.421878648870     1.589822926998
C                     3.333654292615    -1.975894956257     7.258404704902
C                     3.849927416460    -1.002856643865     6.467803426827
C                     0.847254439906    -1.438891526856     3.382147504815
C                     2.086235506240    -1.863247648728     5.538397654033
N                    -0.241305384869    -1.937478071915     2.773049702496
N                     2.201325299978    -2.526001929959     6.658637005906
N                     1.106025535575    -2.060205162828     4.605683232480
O                     3.040211024552    -0.917988970269     5.333550340560
H                     1.822699820677     0.911646331599     1.147507440780
H                    -0.219811053255    -0.014348904656    -0.008130426834
H                     2.500325420889    -0.027250641935     3.349754863799
H                    -1.479422188399    -1.854585097166     1.131136788132
H                     3.690903176941    -2.324864233401     8.217922677149
H                     4.686436733182    -0.323185953653     6.508629739677
H                     0.440007262851    -2.785179634813     4.850003456337
