
  -OEChem-05262117483D

 19 19  0     0  0  0  0  0  0999 V2000
    3.2253    4.0002   -4.2782 C   0  0  0  0  0  0  0  0  0  0  0  0
    2.4997    3.7161   -3.0844 C   0  0  0  0  0  0  0  0  0  0  0  0
    3.7959    2.8773   -4.8266 C   0  0  0  0  0  0  0  0  0  0  0  0
    2.5009    2.3805   -2.7517 C   0  0  0  0  0  0  0  0  0  0  0  0
    1.9268    1.8347   -1.4872 C   0  0  0  0  0  0  0  0  0  0  0  0
    1.0446   -0.0141   -0.1958 C   0  0  0  0  0  0  0  0  0  0  0  0
    0.8607   -0.1198   -2.6495 C   0  0  0  0  0  0  0  0  0  0  0  0
    1.4386    0.5470   -1.4848 N   0  0  0  0  0  0  0  0  0  0  0  0
    1.9484    2.5268   -0.4653 O   0  0  0  0  0  0  0  0  0  0  0  0
    3.4424    1.4598   -3.9011 S   0  0  0  0  0  0  0  0  0  0  0  0
    3.3308    4.9915   -4.7065 H   0  0  0  0  0  0  0  0  0  0  0  0
    2.0020    4.4568   -2.4683 H   0  0  0  0  0  0  0  0  0  0  0  0
    4.4114    2.8031   -5.7145 H   0  0  0  0  0  0  0  0  0  0  0  0
    0.0031    0.2334    0.0503 H   0  0  0  0  0  0  0  0  0  0  0  0
    1.6866    0.3862    0.5878 H   0  0  0  0  0  0  0  0  0  0  0  0
    1.1481   -1.1028   -0.2378 H   0  0  0  0  0  0  0  0  0  0  0  0
    1.3842   -1.0570   -2.8723 H   0  0  0  0  0  0  0  0  0  0  0  0
    0.9007    0.5214   -3.5277 H   0  0  0  0  0  0  0  0  0  0  0  0
   -0.1931   -0.3525   -2.4503 H   0  0  0  0  0  0  0  0  0  0  0  0
  1  2  1  0  0  0  0
  1  3  2  0  0  0  0
  1 11  1  0  0  0  0
  2  4  2  0  0  0  0
  2 12  1  0  0  0  0
  3 10  1  0  0  0  0
  3 13  1  0  0  0  0
  4  5  1  0  0  0  0
  4 10  1  0  0  0  0
  5  8  1  0  0  0  0
  5  9  2  0  0  0  0
  6  8  1  0  0  0  0
  6 14  1  0  0  0  0
  6 15  1  0  0  0  0
  6 16  1  0  0  0  0
  7  8  1  0  0  0  0
  7 17  1  0  0  0  0
  7 18  1  0  0  0  0
  7 19  1  0  0  0  0
M  END
$$$$
