25
1 1 C8H13N4
C                    -3.069477985121     3.927835615969     3.452591813229
C                    -3.520461653346     2.648053854252     3.778018028020
C                    -1.936978290499     3.995429225582     2.640274054946
C                    -1.825693995295     1.727584545728     2.577673332859
C                    -1.791603489199    -0.720893266832     2.269330519501
C                    -0.158784622786     0.667651488225     1.098008262704
C                    -0.745949178037    -1.792119177682     2.546867392667
C                     0.944252643789    -0.354986223116     1.333760160293
N                    -2.907745056797     1.538215718585     3.344710624916
N                    -1.305969916356     2.901161362032     2.193730172935
N                    -1.146140798300     0.574758477098     2.158278998769
N                     0.325955376127    -1.739752943937     1.467120342282
H                    -3.574156375895     4.819676061680     3.806431595085
H                    -4.399536206859     2.498552407353     4.401728529834
H                    -1.517626983807     4.950756786375     2.331058056856
H                    -2.356327379938    -0.970843094819     1.354571863888
H                    -2.504391840830    -0.696605239387     3.093598633815
H                     0.275847607215     1.667236081227     1.099813921182
H                    -0.615316306599     0.510343915453     0.105548331747
H                    -0.236028810731    -1.613228255106     3.495014748976
H                    -1.170969565478    -2.797898102149     2.535942068769
H                     1.655778214551    -0.393965628125     0.506372551614
H                     1.471262244060    -0.162303487192     2.269778822559
H                    -0.095928540945    -2.002788276573     0.567688235638
H                     1.055701708901    -2.434860019139     1.660356803947
