
  -OEChem-05262117483D

 25 26  0     0  0  0  0  0  0999 V2000
   -1.1969   -6.5480   -2.2871 C   0  0  0  0  0  0  0  0  0  0  0  0
    0.9150   -7.4714   -3.0826 C   0  0  0  0  0  0  0  0  0  0  0  0
   -0.5028   -5.6664   -1.4502 C   0  0  0  0  0  0  0  0  0  0  0  0
    1.5838   -6.5919   -2.2372 C   0  0  0  0  0  0  0  0  0  0  0  0
    0.8948   -5.6933   -1.4263 C   0  0  0  0  0  0  0  0  0  0  0  0
   -0.4798   -7.4308   -3.0923 C   0  0  0  0  0  0  0  0  0  0  0  0
   -0.6882   -2.4078   -3.9132 C   0  0  0  0  0  0  0  0  0  0  0  0
   -1.2970   -1.1183   -3.3719 C   0  0  0  0  0  0  0  0  0  0  0  0
   -0.9323   -2.6045   -1.6423 C   0  0  0  0  0  0  0  0  0  0  0  0
   -1.8762   -3.7275   -1.2142 C   0  0  0  0  0  0  0  0  0  0  0  0
   -0.1046   -2.9804   -2.7368 O   0  0  0  0  0  0  0  0  0  0  0  0
   -1.7346   -1.5027   -2.0603 O   0  0  0  0  0  0  0  0  0  0  0  0
   -1.1570   -4.8098   -0.6023 O   0  0  0  0  0  0  0  0  0  0  0  0
    2.9318   -6.5934   -2.2046 F   0  0  0  0  0  0  0  0  0  0  0  0
    1.5753   -4.8428   -0.6420 F   0  0  0  0  0  0  0  0  0  0  0  0
   -1.4337   -8.6426   -4.2302 Br  0  0  0  0  0  0  0  0  0  0  0  0
   -2.2814   -6.5435   -2.2870 H   0  0  0  0  0  0  0  0  0  0  0  0
    1.4805   -8.1585   -3.7015 H   0  0  0  0  0  0  0  0  0  0  0  0
   -1.4539   -3.0730   -4.3346 H   0  0  0  0  0  0  0  0  0  0  0  0
    0.1074   -2.2560   -4.6449 H   0  0  0  0  0  0  0  0  0  0  0  0
   -0.5487   -0.3189   -3.3024 H   0  0  0  0  0  0  0  0  0  0  0  0
   -2.1653   -0.7653   -3.9328 H   0  0  0  0  0  0  0  0  0  0  0  0
   -0.2687   -2.3254   -0.8155 H   0  0  0  0  0  0  0  0  0  0  0  0
   -2.4574   -4.0746   -2.0759 H   0  0  0  0  0  0  0  0  0  0  0  0
   -2.5604   -3.3534   -0.4500 H   0  0  0  0  0  0  0  0  0  0  0  0
  1  3  1  0  0  0  0
  1  6  2  0  0  0  0
  1 17  1  0  0  0  0
  2  4  2  0  0  0  0
  2  6  1  0  0  0  0
  2 18  1  0  0  0  0
  3  5  2  0  0  0  0
  3 13  1  0  0  0  0
  4  5  1  0  0  0  0
  4 14  1  0  0  0  0
  5 15  1  0  0  0  0
  6 16  1  0  0  0  0
  7  8  1  0  0  0  0
  7 11  1  0  0  0  0
  7 19  1  0  0  0  0
  7 20  1  0  0  0  0
  8 12  1  0  0  0  0
  8 21  1  0  0  0  0
  8 22  1  0  0  0  0
  9 10  1  0  0  0  0
  9 11  1  0  0  0  0
  9 12  1  0  0  0  0
  9 23  1  0  0  0  0
 10 13  1  0  0  0  0
 10 24  1  0  0  0  0
 10 25  1  0  0  0  0
M  END
$$$$
