
  -OEChem-05262117483D

 25 26  0     0  0  0  0  0  0999 V2000
   -3.4736    1.2317   -2.7102 C   0  0  0  0  0  0  0  0  0  0  0  0
   -5.4910   -0.1411   -2.8469 C   0  0  0  0  0  0  0  0  0  0  0  0
   -2.7008    0.0935   -2.4396 C   0  0  0  0  0  0  0  0  0  0  0  0
   -4.7032   -1.2602   -2.5796 C   0  0  0  0  0  0  0  0  0  0  0  0
   -3.3329   -1.1608   -2.3775 C   0  0  0  0  0  0  0  0  0  0  0  0
   -4.8499    1.0921   -2.9066 C   0  0  0  0  0  0  0  0  0  0  0  0
    2.3184    2.5657   -1.0799 C   0  0  0  0  0  0  0  0  0  0  0  0
    1.5273    1.9318    0.0588 C   0  0  0  0  0  0  0  0  0  0  0  0
    0.7847    1.0688   -1.9314 C   0  0  0  0  0  0  0  0  0  0  0  0
   -0.6784    1.3450   -2.2568 C   0  0  0  0  0  0  0  0  0  0  0  0
    1.5093    2.2612   -2.2250 O   0  0  0  0  0  0  0  0  0  0  0  0
    0.9933    0.7561   -0.5622 O   0  0  0  0  0  0  0  0  0  0  0  0
   -1.3617    0.0916   -2.2275 O   0  0  0  0  0  0  0  0  0  0  0  0
   -5.2785   -2.4773   -2.5125 F   0  0  0  0  0  0  0  0  0  0  0  0
   -2.6087   -2.2639   -2.1224 F   0  0  0  0  0  0  0  0  0  0  0  0
   -5.8859    2.6622   -3.2701 Br  0  0  0  0  0  0  0  0  0  0  0  0
   -3.0181    2.2111   -2.7700 H   0  0  0  0  0  0  0  0  0  0  0  0
   -6.5581   -0.2542   -2.9987 H   0  0  0  0  0  0  0  0  0  0  0  0
    2.4136    3.6514   -1.0094 H   0  0  0  0  0  0  0  0  0  0  0  0
    3.3111    2.1101   -1.1836 H   0  0  0  0  0  0  0  0  0  0  0  0
    2.1358    1.6186    0.9093 H   0  0  0  0  0  0  0  0  0  0  0  0
    0.7215    2.5926    0.4067 H   0  0  0  0  0  0  0  0  0  0  0  0
    1.1544    0.2210   -2.5211 H   0  0  0  0  0  0  0  0  0  0  0  0
   -0.7464    1.7978   -3.2531 H   0  0  0  0  0  0  0  0  0  0  0  0
   -1.0959    2.0339   -1.5132 H   0  0  0  0  0  0  0  0  0  0  0  0
  1  3  1  0  0  0  0
  1  6  2  0  0  0  0
  1 17  1  0  0  0  0
  2  4  2  0  0  0  0
  2  6  1  0  0  0  0
  2 18  1  0  0  0  0
  3  5  2  0  0  0  0
  3 13  1  0  0  0  0
  4  5  1  0  0  0  0
  4 14  1  0  0  0  0
  5 15  1  0  0  0  0
  6 16  1  0  0  0  0
  7  8  1  0  0  0  0
  7 11  1  0  0  0  0
  7 19  1  0  0  0  0
  7 20  1  0  0  0  0
  8 12  1  0  0  0  0
  8 21  1  0  0  0  0
  8 22  1  0  0  0  0
  9 10  1  0  0  0  0
  9 11  1  0  0  0  0
  9 12  1  0  0  0  0
  9 23  1  0  0  0  0
 10 13  1  0  0  0  0
 10 24  1  0  0  0  0
 10 25  1  0  0  0  0
M  END
$$$$
