
  -OEChem-05262117483D

 28 30  0     0  0  0  0  0  0999 V2000
   -0.7798    2.4015   -1.6997 C   0  0  0  0  0  0  0  0  0  0  0  0
    0.1751    2.0544    2.5324 C   0  0  0  0  0  0  0  0  0  0  0  0
    0.3582    1.2060    1.4219 C   0  0  0  0  0  0  0  0  0  0  0  0
   -1.2388    3.6700   -2.0490 C   0  0  0  0  0  0  0  0  0  0  0  0
   -2.0495    0.7461    1.2954 C   0  0  0  0  0  0  0  0  0  0  0  0
   -3.4538    2.7432   -2.4566 C   0  0  0  0  0  0  0  0  0  0  0  0
   -1.6289    1.2871   -1.7352 C   0  0  0  0  0  0  0  0  0  0  0  0
   -1.1192    2.2319    2.9825 C   0  0  0  0  0  0  0  0  0  0  0  0
   -2.2028    1.5910    2.3780 C   0  0  0  0  0  0  0  0  0  0  0  0
   -0.7329    0.5831    0.8243 C   0  0  0  0  0  0  0  0  0  0  0  0
   -2.9551    1.4904   -2.1182 C   0  0  0  0  0  0  0  0  0  0  0  0
   -2.5768    3.8279   -2.4216 C   0  0  0  0  0  0  0  0  0  0  0  0
   -1.1153   -0.0934   -1.4521 C   0  0  0  0  0  0  0  0  0  0  0  0
   -2.9576    2.6891    4.1768 C   0  0  0  0  0  0  0  0  0  0  0  0
   -1.1783   -1.0052   -2.2386 O   0  0  0  0  0  0  0  0  0  0  0  0
   -1.5710    3.0284    4.0138 O   0  0  0  0  0  0  0  0  0  0  0  0
   -3.3691    1.9555    3.0082 O   0  0  0  0  0  0  0  0  0  0  0  0
   -0.4840   -0.2834   -0.2449 O   0  0  0  0  0  0  0  0  0  0  0  0
   -3.8084    0.4445   -2.1186 F   0  0  0  0  0  0  0  0  0  0  0  0
   -3.1726    5.4171   -2.8472 Cl  0  0  0  0  0  0  0  0  0  0  0  0
    0.2558    2.2733   -1.4020 H   0  0  0  0  0  0  0  0  0  0  0  0
    1.0137    2.5503    3.0100 H   0  0  0  0  0  0  0  0  0  0  0  0
    1.3513    1.0236    1.0241 H   0  0  0  0  0  0  0  0  0  0  0  0
   -0.5726    4.5256   -2.0288 H   0  0  0  0  0  0  0  0  0  0  0  0
   -2.8894    0.2338    0.8386 H   0  0  0  0  0  0  0  0  0  0  0  0
   -4.4964    2.8567   -2.7328 H   0  0  0  0  0  0  0  0  0  0  0  0
   -3.0758    2.0512    5.0627 H   0  0  0  0  0  0  0  0  0  0  0  0
   -3.5482    3.6040    4.2541 H   0  0  0  0  0  0  0  0  0  0  0  0
  1  4  1  0  0  0  0
  1  7  2  0  0  0  0
  1 21  1  0  0  0  0
  2  3  2  0  0  0  0
  2  8  1  0  0  0  0
  2 22  1  0  0  0  0
  3 10  1  0  0  0  0
  3 23  1  0  0  0  0
  4 12  2  0  0  0  0
  4 24  1  0  0  0  0
  5  9  1  0  0  0  0
  5 10  2  0  0  0  0
  5 25  1  0  0  0  0
  6 11  2  0  0  0  0
  6 12  1  0  0  0  0
  6 26  1  0  0  0  0
  7 11  1  0  0  0  0
  7 13  1  0  0  0  0
  8  9  2  0  0  0  0
  8 16  1  0  0  0  0
  9 17  1  0  0  0  0
 10 18  1  0  0  0  0
 11 19  1  0  0  0  0
 12 20  1  0  0  0  0
 13 15  2  0  0  0  0
 13 18  1  0  0  0  0
 14 16  1  0  0  0  0
 14 17  1  0  0  0  0
 14 27  1  0  0  0  0
 14 28  1  0  0  0  0
M  END
$$$$
