25
0 1 BrC10F2H9O3
C                    -0.336196352181    -1.689406399685    -3.876601001230
C                    -0.415478697904    -1.724381769454    -6.312738385363
C                    -1.068177633154    -0.496559611130    -3.853918243436
C                    -1.144976132177    -0.541598195745    -6.270727482867
C                    -1.486793367647     0.066475844466    -5.065364827764
C                    -0.026717077845    -2.285921161699    -5.095962907147
C                     2.232955015626     2.357890664670    -3.379856574959
C                     1.708204615744     3.507946178388    -2.517807869565
C                     0.454361194690     1.579353441641    -2.218211926866
C                    -1.049915695863     1.400838822270    -2.365986351020
O                     1.087199050869     1.506161962655    -3.482398650972
O                     0.718934771392     2.878106661452    -1.685482159077
O                    -1.405649482333     0.031707758703    -2.636045812614
F                    -1.551730391244     0.034861025157    -7.420549026173
F                    -2.223607925716     1.197387483571    -5.084816334257
Br                    0.975999106512    -3.918007212927    -5.108459913820
H                    -0.019908223469    -2.121264084778    -2.934033204762
H                    -0.173755755173    -2.176441329033    -7.267776242800
H                     2.528772648916     2.652754418996    -4.387882798620
H                     3.061816700342     1.828363514402    -2.890416286475
H                     2.475208696639     3.956688230782    -1.880556225648
H                     1.232277729894     4.286811708251    -3.124466836997
H                     0.873829322543     0.819990647917    -1.538844740952
H                    -1.425965839017     2.078516488228    -3.134733319393
H                    -1.525860367360     1.632422380387    -1.412158309106
