
  -OEChem-05262117483D

 23 24  0     1  0  0  0  0  0999 V2000
    2.1020   -1.1664    0.1853 C   0  0  0  0  0  0  0  0  0  0  0  0
    0.8710   -0.7775    0.7008 C   0  0  0  0  0  0  0  0  0  0  0  0
    1.6011   -1.5128    2.9048 C   0  0  0  0  0  0  0  0  0  0  0  0
    2.8506   -1.9000    2.4084 C   0  0  0  0  0  0  0  0  0  0  0  0
    3.0776   -1.7009    1.0317 C   0  0  0  0  0  0  0  0  0  0  0  0
    0.6352   -0.9522    2.0667 C   0  0  0  0  0  0  0  0  0  0  0  0
    3.4641   -2.1146    5.6416 C   0  0  0  0  0  0  0  0  0  0  0  0
    4.8703   -1.4766    3.9392 C   0  0  0  0  0  0  0  0  0  0  0  0
    3.8775   -2.5195    3.3577 C   0  0  1  0  0  0  0  0  0  0  0  0
    3.3124   -3.0101    4.5987 N   0  0  0  0  0  0  0  0  0  0  0  0
    4.3655   -2.0363    0.4083 N   0  3  0  0  0  0  0  0  0  0  0  0
    5.3708   -2.0678    1.1342 O   0  5  0  0  0  0  0  0  0  0  0  0
    2.9298   -2.1431    6.7263 O   0  0  0  0  0  0  0  0  0  0  0  0
    4.3808   -2.2508   -0.8064 O   0  0  0  0  0  0  0  0  0  0  0  0
    4.3466   -1.1457    5.2415 O   0  0  0  0  0  0  0  0  0  0  0  0
   -0.8997   -0.4690    2.7406 Cl  0  0  0  0  0  0  0  0  0  0  0  0
    2.3240   -1.0536   -0.8694 H   0  0  0  0  0  0  0  0  0  0  0  0
    0.1098   -0.3472    0.0589 H   0  0  0  0  0  0  0  0  0  0  0  0
    1.3733   -1.6455    3.9562 H   0  0  0  0  0  0  0  0  0  0  0  0
    5.8661   -1.9114    4.0542 H   0  0  0  0  0  0  0  0  0  0  0  0
    4.9301   -0.5641    3.3498 H   0  0  0  0  0  0  0  0  0  0  0  0
    4.4256   -3.3077    2.8434 H   0  0  0  0  0  0  0  0  0  0  0  0
    2.5641   -3.6884    4.6469 H   0  0  0  0  0  0  0  0  0  0  0  0
  1  2  1  0  0  0  0
  1  5  2  0  0  0  0
  1 17  1  0  0  0  0
  2  6  2  0  0  0  0
  2 18  1  0  0  0  0
  3  4  2  0  0  0  0
  3  6  1  0  0  0  0
  3 19  1  0  0  0  0
  4  5  1  0  0  0  0
  4  9  1  0  0  0  0
  5 11  1  0  0  0  0
  6 16  1  0  0  0  0
  7 10  1  0  0  0  0
  7 13  2  0  0  0  0
  7 15  1  0  0  0  0
  8  9  1  0  0  0  0
  8 15  1  0  0  0  0
  8 20  1  0  0  0  0
  8 21  1  0  0  0  0
  9 10  1  0  0  0  0
  9 22  1  0  0  0  0
 10 23  1  0  0  0  0
 11 12  1  0  0  0  0
 11 14  2  0  0  0  0
M  CHG  2  11   1  12  -1
M  END
$$$$
