
  -OEChem-05262117483D

 49 49  0     1  0  0  0  0  0999 V2000
    0.7112   -0.7117    1.8396 C   0  0  0  0  0  0  0  0  0  0  0  0
   -1.7011   -2.8017    1.0643 C   0  0  0  0  0  0  0  0  0  0  0  0
   -1.4710    0.2803    4.1279 C   0  0  0  0  0  0  0  0  0  0  0  0
   -1.3453    0.8780    1.9229 C   0  0  0  0  0  0  0  0  0  0  0  0
   -1.2476   -1.0436    3.3977 C   0  0  1  0  0  0  0  0  0  0  0  0
   -0.8254   -0.6055    1.9497 C   0  0  2  0  0  0  0  0  0  0  0  0
    3.4463    0.5774    1.5457 C   0  0  0  0  0  0  0  0  0  0  0  0
    2.9504    1.2314    3.9303 C   0  0  0  0  0  0  0  0  0  0  0  0
    3.2573   -1.2061    3.3604 C   0  0  0  0  0  0  0  0  0  0  0  0
   -3.3806   -5.3565    0.8405 C   0  0  0  0  0  0  0  0  0  0  0  0
   -3.1450   -4.7712   -1.6056 C   0  0  0  0  0  0  0  0  0  0  0  0
   -1.0887   -5.3634   -0.2721 C   0  0  0  0  0  0  0  0  0  0  0  0
    2.7829    0.1571    2.8572 C   0  0  0  0  0  0  0  0  0  0  0  0
   -2.4824   -4.7352   -0.2292 C   0  0  0  0  0  0  0  0  0  0  0  0
   -1.4627   -1.4082    0.8812 N   0  0  0  0  0  0  0  0  0  0  0  0
    1.2807   -1.4921    1.0867 O   0  0  0  0  0  0  0  0  0  0  0  0
   -1.3583   -3.4077    2.0588 O   0  0  0  0  0  0  0  0  0  0  0  0
   -0.4356    0.3841   -0.5982 O   0  0  0  0  0  0  0  0  0  0  0  0
   -2.2778   -1.0154   -1.6094 O   0  0  0  0  0  0  0  0  0  0  0  0
   -2.0607    1.1055    3.1397 O   0  0  0  0  0  0  0  0  0  0  0  0
   -0.0606   -2.0138   -1.2262 O   0  0  0  0  0  0  0  0  0  0  0  0
    1.3009    0.1254    2.6749 O   0  0  0  0  0  0  0  0  0  0  0  0
   -2.3604   -3.2745    0.0132 O   0  0  0  0  0  0  0  0  0  0  0  0
   -0.2822   -1.8022    4.0464 F   0  0  0  0  0  0  0  0  0  0  0  0
   -1.1219   -0.8916   -0.7561 S   0  0  0  0  0  0  0  0  0  0  0  0
   -2.1682    0.1853    4.9626 H   0  0  0  0  0  0  0  0  0  0  0  0
   -0.5128    0.6774    4.4871 H   0  0  0  0  0  0  0  0  0  0  0  0
   -0.5049    1.5698    1.8332 H   0  0  0  0  0  0  0  0  0  0  0  0
   -2.0393    1.0494    1.1048 H   0  0  0  0  0  0  0  0  0  0  0  0
   -2.1644   -1.6276    3.3559 H   0  0  0  0  0  0  0  0  0  0  0  0
    3.3443   -0.1908    0.7791 H   0  0  0  0  0  0  0  0  0  0  0  0
    3.0081    1.5086    1.1746 H   0  0  0  0  0  0  0  0  0  0  0  0
    4.5120    0.7500    1.7263 H   0  0  0  0  0  0  0  0  0  0  0  0
    2.4299    0.9444    4.8484 H   0  0  0  0  0  0  0  0  0  0  0  0
    2.5496    2.1891    3.5859 H   0  0  0  0  0  0  0  0  0  0  0  0
    4.0116    1.3621    4.1600 H   0  0  0  0  0  0  0  0  0  0  0  0
    2.6853   -1.5073    4.2423 H   0  0  0  0  0  0  0  0  0  0  0  0
    3.1548   -1.9756    2.5950 H   0  0  0  0  0  0  0  0  0  0  0  0
    4.3127   -1.1319    3.6413 H   0  0  0  0  0  0  0  0  0  0  0  0
   -2.9101   -5.3237    1.8240 H   0  0  0  0  0  0  0  0  0  0  0  0
   -4.3388   -4.8298    0.8850 H   0  0  0  0  0  0  0  0  0  0  0  0
   -3.5786   -6.4014    0.5804 H   0  0  0  0  0  0  0  0  0  0  0  0
   -2.5176   -4.2669   -2.3448 H   0  0  0  0  0  0  0  0  0  0  0  0
   -4.1146   -4.2667   -1.5784 H   0  0  0  0  0  0  0  0  0  0  0  0
   -3.2972   -5.8090   -1.9163 H   0  0  0  0  0  0  0  0  0  0  0  0
   -0.4589   -4.8334   -0.9923 H   0  0  0  0  0  0  0  0  0  0  0  0
   -0.6078   -5.3464    0.7072 H   0  0  0  0  0  0  0  0  0  0  0  0
   -1.1777   -6.4053   -0.5950 H   0  0  0  0  0  0  0  0  0  0  0  0
    0.6711   -1.9899   -0.5523 H   0  0  0  0  0  0  0  0  0  0  0  0
  1  6  1  0  0  0  0
  1 16  2  0  0  0  0
  1 22  1  0  0  0  0
  2 15  1  0  0  0  0
  2 17  2  0  0  0  0
  2 23  1  0  0  0  0
  3  5  1  0  0  0  0
  3 20  1  0  0  0  0
  3 26  1  0  0  0  0
  3 27  1  0  0  0  0
  4  6  1  0  0  0  0
  4 20  1  0  0  0  0
  4 28  1  0  0  0  0
  4 29  1  0  0  0  0
  5  6  1  0  0  0  0
  5 24  1  0  0  0  0
  5 30  1  0  0  0  0
  6 15  1  0  0  0  0
  7 13  1  0  0  0  0
  7 31  1  0  0  0  0
  7 32  1  0  0  0  0
  7 33  1  0  0  0  0
  8 13  1  0  0  0  0
  8 34  1  0  0  0  0
  8 35  1  0  0  0  0
  8 36  1  0  0  0  0
  9 13  1  0  0  0  0
  9 37  1  0  0  0  0
  9 38  1  0  0  0  0
  9 39  1  0  0  0  0
 10 14  1  0  0  0  0
 10 40  1  0  0  0  0
 10 41  1  0  0  0  0
 10 42  1  0  0  0  0
 11 14  1  0  0  0  0
 11 43  1  0  0  0  0
 11 44  1  0  0  0  0
 11 45  1  0  0  0  0
 12 14  1  0  0  0  0
 12 46  1  0  0  0  0
 12 47  1  0  0  0  0
 12 48  1  0  0  0  0
 13 22  1  0  0  0  0
 14 23  1  0  0  0  0
 15 25  1  0  0  0  0
 18 25  2  0  0  0  0
 19 25  2  0  0  0  0
 21 25  1  0  0  0  0
 21 49  1  0  0  0  0
M  END
$$$$
