
  -OEChem-05262117483D

 74 76  0     1  0  0  0  0  0999 V2000
    1.3011    3.6243    1.0089 C   0  0  0  0  0  0  0  0  0  0  0  0
    1.0017    3.8981    2.3470 C   0  0  0  0  0  0  0  0  0  0  0  0
    0.9954    2.3824    0.4492 C   0  0  0  0  0  0  0  0  0  0  0  0
    0.0814    1.6831    2.5657 C   0  0  0  0  0  0  0  0  0  0  0  0
    0.3963    2.9209    3.1434 C   0  0  0  0  0  0  0  0  0  0  0  0
    0.3667    1.4017    1.2250 C   0  0  0  0  0  0  0  0  0  0  0  0
    0.7578    2.2034    5.5513 C   0  0  0  0  0  0  0  0  0  0  0  0
   -1.3343   -0.5185    1.0342 C   0  0  0  0  0  0  0  0  0  0  0  0
    2.1037    2.8877    5.7306 C   0  0  0  0  0  0  0  0  0  0  0  0
   -1.9304   -0.9018   -0.3179 C   0  0  0  0  0  0  0  0  0  0  0  0
    0.0459    3.1911    4.6107 C   0  0  2  0  0  0  0  0  0  0  0  0
    0.0759    0.0188    0.6477 C   0  0  2  0  0  0  0  0  0  0  0  0
   -1.4730    3.2352    4.8047 C   0  0  0  0  0  0  0  0  0  0  0  0
    1.1960   -0.9538    1.0390 C   0  0  0  0  0  0  0  0  0  0  0  0
    4.0090    4.9399    6.3511 C   0  0  0  0  0  0  0  0  0  0  0  0
   -0.3860   -1.2654   -3.0977 C   0  0  0  0  0  0  0  0  0  0  0  0
    1.3773    7.2206    4.5636 C   0  0  0  0  0  0  0  0  0  0  0  0
    1.4840    6.8968    7.0552 C   0  0  0  0  0  0  0  0  0  0  0  0
    3.4811    7.7116    5.7710 C   0  0  0  0  0  0  0  0  0  0  0  0
   -2.7077    1.8861   -3.1026 C   0  0  0  0  0  0  0  0  0  0  0  0
   -0.2112    1.9549   -3.2600 C   0  0  0  0  0  0  0  0  0  0  0  0
   -1.5511    0.7186   -4.9913 C   0  0  0  0  0  0  0  0  0  0  0  0
    2.7512    5.2763    5.5315 C   0  0  2  0  0  0  0  0  0  0  0  0
   -1.4181   -0.2211   -2.6426 C   0  0  2  0  0  0  0  0  0  0  0  0
    2.2672    6.7573    5.7377 C   0  0  0  0  0  0  0  0  0  0  0  0
   -1.4547    1.0816   -3.4974 C   0  0  0  0  0  0  0  0  0  0  0  0
    1.7205    4.2932    5.9209 N   0  0  1  0  0  0  0  0  0  0  0  0
   -1.3355    0.1048   -1.2006 N   0  0  2  0  0  0  0  0  0  0  0  0
    0.5564    4.4753    5.0201 O   0  0  0  0  0  0  0  0  0  0  0  0
    0.0764    0.0485   -0.7954 O   0  0  0  0  0  0  0  0  0  0  0  0
    1.7768    4.3876    0.3976 H   0  0  0  0  0  0  0  0  0  0  0  0
    1.2314    4.8644    2.7795 H   0  0  0  0  0  0  0  0  0  0  0  0
    1.2328    2.1651   -0.5857 H   0  0  0  0  0  0  0  0  0  0  0  0
   -0.3973    0.9193    3.1759 H   0  0  0  0  0  0  0  0  0  0  0  0
    0.8465    1.2003    5.1320 H   0  0  0  0  0  0  0  0  0  0  0  0
    0.2300    2.1483    6.5081 H   0  0  0  0  0  0  0  0  0  0  0  0
   -1.9312    0.2697    1.4958 H   0  0  0  0  0  0  0  0  0  0  0  0
   -1.2789   -1.3649    1.7236 H   0  0  0  0  0  0  0  0  0  0  0  0
    2.6367    2.5337    6.6150 H   0  0  0  0  0  0  0  0  0  0  0  0
    2.7357    2.7355    4.8404 H   0  0  0  0  0  0  0  0  0  0  0  0
   -1.6528   -1.9299   -0.6003 H   0  0  0  0  0  0  0  0  0  0  0  0
   -3.0191   -0.8051   -0.3475 H   0  0  0  0  0  0  0  0  0  0  0  0
   -1.7070    3.4620    5.8487 H   0  0  0  0  0  0  0  0  0  0  0  0
   -1.9278    2.2768    4.5361 H   0  0  0  0  0  0  0  0  0  0  0  0
   -1.9117    4.0092    4.1687 H   0  0  0  0  0  0  0  0  0  0  0  0
    0.9779   -1.9557    0.6558 H   0  0  0  0  0  0  0  0  0  0  0  0
    1.2983   -1.0001    2.1275 H   0  0  0  0  0  0  0  0  0  0  0  0
    2.1489   -0.6183    0.6197 H   0  0  0  0  0  0  0  0  0  0  0  0
    3.8180    5.0247    7.4254 H   0  0  0  0  0  0  0  0  0  0  0  0
    4.8275    5.6107    6.0902 H   0  0  0  0  0  0  0  0  0  0  0  0
    4.3571    3.9252    6.1471 H   0  0  0  0  0  0  0  0  0  0  0  0
    0.6175   -0.8422   -3.1690 H   0  0  0  0  0  0  0  0  0  0  0  0
   -0.6638   -1.6725   -4.0728 H   0  0  0  0  0  0  0  0  0  0  0  0
   -0.3383   -2.0987   -2.3914 H   0  0  0  0  0  0  0  0  0  0  0  0
    1.9142    7.1369    3.6105 H   0  0  0  0  0  0  0  0  0  0  0  0
    0.4603    6.6381    4.4917 H   0  0  0  0  0  0  0  0  0  0  0  0
    1.1093    8.2753    4.6965 H   0  0  0  0  0  0  0  0  0  0  0  0
    2.0765    6.5658    7.9147 H   0  0  0  0  0  0  0  0  0  0  0  0
    0.5678    6.3030    7.0328 H   0  0  0  0  0  0  0  0  0  0  0  0
    1.2156    7.9470    7.2190 H   0  0  0  0  0  0  0  0  0  0  0  0
    4.0881    7.5883    6.6723 H   0  0  0  0  0  0  0  0  0  0  0  0
    3.1312    8.7491    5.7542 H   0  0  0  0  0  0  0  0  0  0  0  0
    4.1305    7.5716    4.8981 H   0  0  0  0  0  0  0  0  0  0  0  0
   -3.6241    1.3256   -3.3272 H   0  0  0  0  0  0  0  0  0  0  0  0
   -2.6985    2.1142   -2.0336 H   0  0  0  0  0  0  0  0  0  0  0  0
   -2.7512    2.8299   -3.6578 H   0  0  0  0  0  0  0  0  0  0  0  0
    0.7177    1.4100   -3.4561 H   0  0  0  0  0  0  0  0  0  0  0  0
   -0.1844    2.3127   -2.2292 H   0  0  0  0  0  0  0  0  0  0  0  0
   -0.2336    2.8267   -3.9241 H   0  0  0  0  0  0  0  0  0  0  0  0
   -0.6291    0.2625   -5.3645 H   0  0  0  0  0  0  0  0  0  0  0  0
   -1.7356    1.6203   -5.5855 H   0  0  0  0  0  0  0  0  0  0  0  0
   -2.3764    0.0218   -5.1836 H   0  0  0  0  0  0  0  0  0  0  0  0
    2.9993    5.1486    4.4634 H   0  0  0  0  0  0  0  0  0  0  0  0
   -2.4128   -0.6740   -2.7495 H   0  0  0  0  0  0  0  0  0  0  0  0
  1  2  2  0  0  0  0
  1  3  1  0  0  0  0
  1 31  1  0  0  0  0
  2  5  1  0  0  0  0
  2 32  1  0  0  0  0
  3  6  2  0  0  0  0
  3 33  1  0  0  0  0
  4  5  2  0  0  0  0
  4  6  1  0  0  0  0
  4 34  1  0  0  0  0
  5 11  1  0  0  0  0
  6 12  1  0  0  0  0
  7  9  1  0  0  0  0
  7 11  1  0  0  0  0
  7 35  1  0  0  0  0
  7 36  1  0  0  0  0
  8 10  1  0  0  0  0
  8 12  1  0  0  0  0
  8 37  1  0  0  0  0
  8 38  1  0  0  0  0
  9 27  1  0  0  0  0
  9 39  1  0  0  0  0
  9 40  1  0  0  0  0
 10 28  1  0  0  0  0
 10 41  1  0  0  0  0
 10 42  1  0  0  0  0
 11 13  1  0  0  0  0
 11 29  1  0  0  0  0
 12 14  1  0  0  0  0
 12 30  1  0  0  0  0
 13 43  1  0  0  0  0
 13 44  1  0  0  0  0
 13 45  1  0  0  0  0
 14 46  1  0  0  0  0
 14 47  1  0  0  0  0
 14 48  1  0  0  0  0
 15 23  1  0  0  0  0
 15 49  1  0  0  0  0
 15 50  1  0  0  0  0
 15 51  1  0  0  0  0
 16 24  1  0  0  0  0
 16 52  1  0  0  0  0
 16 53  1  0  0  0  0
 16 54  1  0  0  0  0
 17 25  1  0  0  0  0
 17 55  1  0  0  0  0
 17 56  1  0  0  0  0
 17 57  1  0  0  0  0
 18 25  1  0  0  0  0
 18 58  1  0  0  0  0
 18 59  1  0  0  0  0
 18 60  1  0  0  0  0
 19 25  1  0  0  0  0
 19 61  1  0  0  0  0
 19 62  1  0  0  0  0
 19 63  1  0  0  0  0
 20 26  1  0  0  0  0
 20 64  1  0  0  0  0
 20 65  1  0  0  0  0
 20 66  1  0  0  0  0
 21 26  1  0  0  0  0
 21 67  1  0  0  0  0
 21 68  1  0  0  0  0
 21 69  1  0  0  0  0
 22 26  1  0  0  0  0
 22 70  1  0  0  0  0
 22 71  1  0  0  0  0
 22 72  1  0  0  0  0
 23 25  1  0  0  0  0
 23 27  1  0  0  0  0
 23 73  1  0  0  0  0
 24 26  1  0  0  0  0
 24 28  1  0  0  0  0
 24 74  1  0  0  0  0
 27 29  1  0  0  0  0
 28 30  1  0  0  0  0
M  END
$$$$
