27
0 1 C9H14O3S
C                     0.470040673108     1.026649795366    -0.247248150780
C                     0.508433024795    -0.329250324488    -0.134986486435
C                     1.566943913252     1.908011294032    -0.625179656504
C                    -1.866295905257     0.062079514285     0.147815737020
C                    -0.753590946760    -0.973606283585     0.388178059306
C                    -2.295472514013    -3.012615777125     0.369074889003
C                     4.983156931123     1.018314206528    -1.672374085020
C                    -1.051511175736    -2.347605967995    -0.229820180898
C                     3.862267225750     1.985768921457    -1.340174915234
O                     1.531729731100     3.124366504998    -0.648219899962
O                     1.553354780068    -1.143489874479    -0.378841918072
O                     2.703022163470     1.194868520671    -0.961462068775
S                    -1.099629656386     1.738994315488     0.230395105478
H                    -2.295903518267    -0.073234437592    -0.850609015955
H                    -2.664639305222     0.002884312137     0.888408482786
H                    -0.608498212788    -1.101120364463     1.473189608005
H                    -2.195859809577    -3.130079163491     1.454436768891
H                    -2.449728951532    -4.007355916808    -0.060857522395
H                    -3.201630394211    -2.427747914470     0.179047045729
H                     5.239128541762     0.398977555447    -0.806999040472
H                     4.703849753808     0.362524886951    -2.502784449177
H                     5.876244578727     1.579036718496    -1.965793614194
H                    -1.174082201707    -2.230073608671    -1.313748879562
H                    -0.178854943818    -2.991684151390    -0.084268766704
H                     3.589179198312     2.609893610274    -2.194579047266
H                     4.118426863636     2.644331521209    -0.506416346320
H                     2.304623009297    -0.578303488150    -0.663005767408
