48
-1 1 C14FH23NO8S
C                     1.884623957949    -0.259663611245    -0.176802789303
C                    -0.182331495214    -1.623583829777    -2.350848617772
C                    -0.940546900451     0.539611574536     1.311847471760
C                     0.040090745944     1.565658552391    -0.490649468994
C                    -0.527733948621    -0.613265744907     0.399623844866
C                     0.440282101619     0.056234228108    -0.629425763859
C                     4.636593341206     0.774063431888     0.281768528691
C                     3.615234873437     1.599052052724     2.431111147859
C                     3.850462806211    -0.880610982502     2.054992381004
C                    -1.411600180610    -3.864912958342    -4.173473427579
C                    -0.141761584597    -2.471507599477    -5.861565753247
C                     1.111219325230    -3.592353642439    -3.990724014663
C                     3.617871398345     0.478847848802     1.387526210638
C                    -0.212121446912    -2.938874064968    -4.405218225992
N                     0.273955978608    -0.374878454849    -2.015403189220
O                     0.248204993137     1.379224203385    -3.986861232696
O                     2.548576550389    -1.159003291797    -0.637732528415
O                    -0.421933241679    -2.541876865271    -1.570559532420
O                     2.081971147563     1.411277530681    -2.304089974385
O                     2.020888158635    -0.383554040046    -4.026359448334
O                    -1.067466339606     1.642760645672     0.436464442592
O                     2.257323493883     0.548061142854     0.842635786503
O                    -0.411418151830    -1.682703280207    -3.686218868521
F                     0.073288043243    -1.621036910445     1.160103096669
S                     1.264304222614     0.610583641966    -3.248726028229
H                    -1.903785491206     0.368437066420     1.801151026144
H                    -0.164205323628     0.699467982261     2.075335122464
H                     0.877834876521     2.156221462522    -0.123073765487
H                    -0.305813552670     1.968685070223    -1.439234544816
H                    -1.380145114609    -1.053140305989    -0.111782822471
H                     4.665722504029    -0.028386589611    -0.454885910937
H                     4.371024064664     1.698758088145    -0.238081616134
H                     5.631470214988     0.889387460626     0.727912908367
H                     2.848771950325     1.414232366266     3.190652739978
H                     3.404385039362     2.561607422783     1.955504530639
H                     4.590524554397     1.658212710184     2.925454464287
H                     3.052634454425    -1.089078989952     2.775123722613
H                     3.868364643701    -1.681159336901     1.315441548123
H                     4.806961589632    -0.865862718389     2.590434367210
H                    -1.464071228485    -4.166768196684    -3.126005250400
H                    -2.341447123153    -3.349635947096    -4.437931680692
H                    -1.320815443241    -4.758757503986    -4.802881934969
H                     0.679868089186    -1.760107925266    -5.974348662436
H                    -1.072688297363    -1.969590889314    -6.144581563208
H                     0.015270853068    -3.326790292682    -6.528720973792
H                     1.917155926033    -2.857373731176    -4.057749743044
H                     1.064485632548    -3.971401087648    -2.968025395024
H                     1.327740637227    -4.428856042815    -4.665745893662
