27
0 1 C9H14O3S
C                     0.824170920335     0.942706679027    -0.022768352207
C                     0.232440163727    -0.113406835579    -0.628499740782
C                     1.398373205726     2.106562700474    -0.713085008376
C                     0.216787424633    -0.897577023014     1.686246735478
C                    -0.382315114485    -1.150669322240     0.286291020012
C                    -2.552897155312     0.234830314309     0.631567857332
C                     3.905086806276     4.002129757384    -0.681777498148
C                    -1.929823782860    -1.108496390974     0.237144025244
C                     2.434966087419     4.228307537456    -0.356382785276
O                     1.480293251130     2.247532239081    -1.921602051790
O                     0.091876927382    -0.240199176952    -1.972644755121
O                     1.825288089915     3.032490593636     0.189239099350
S                     0.801654562315     0.853056529347     1.765700243569
H                    -0.512878160990    -1.065300740081     2.481492173298
H                     1.075971730828    -1.550204519340     1.858342011941
H                    -0.073192336253    -2.151081527232    -0.049214200273
H                    -2.293574514111     0.515304094536     1.656000474271
H                    -3.643967507901     0.180889593151     0.561390815160
H                    -2.211289759773     1.039907663617    -0.025433680231
H                     4.447970145919     3.656714455554     0.203314355887
H                     4.015201577510     3.262284966562    -1.478154459723
H                     4.356502743489     4.941885908328    -1.019133616271
H                    -2.261421569205    -1.377165127232    -0.775040758695
H                    -2.303226246050    -1.903047257247     0.894291118291
H                     1.875908912008     4.538678517725    -1.241954195575
H                     2.311029853039     4.974903512922     0.431009048892
H                    -0.325933642819    -1.095820702324    -2.161396868560
