
  -OEChem-05262117483D

 42 44  0     0  0  0  0  0  0999 V2000
    7.2474    5.1515   -7.8673 C   0  0  0  0  0  0  0  0  0  0  0  0
    6.1812    5.7403   -7.1791 C   0  0  0  0  0  0  0  0  0  0  0  0
    7.5950    3.8251   -7.5899 C   0  0  0  0  0  0  0  0  0  0  0  0
    5.4713    5.0101   -6.2235 C   0  0  0  0  0  0  0  0  0  0  0  0
    6.8830    3.0961   -6.6349 C   0  0  0  0  0  0  0  0  0  0  0  0
    5.7002    2.0009   -4.0617 C   0  0  0  0  0  0  0  0  0  0  0  0
    3.6634    3.0444   -4.7790 C   0  0  0  0  0  0  0  0  0  0  0  0
    4.9887    1.2711   -3.1041 C   0  0  0  0  0  0  0  0  0  0  0  0
    2.9602    2.3168   -3.8240 C   0  0  0  0  0  0  0  0  0  0  0  0
    5.8097    3.6759   -5.9350 C   0  0  0  0  0  0  0  0  0  0  0  0
    5.0558    2.9019   -4.9200 C   0  0  0  0  0  0  0  0  0  0  0  0
    3.6010    1.4089   -2.9601 C   0  0  0  0  0  0  0  0  0  0  0  0
    3.1262   -0.9406    1.1700 C   0  0  0  0  0  0  0  0  0  0  0  0
    0.2760    0.6970   -2.0808 C   0  0  0  0  0  0  0  0  0  0  0  0
    0.6863    1.1913   -0.6854 C   0  0  0  0  0  0  0  0  0  0  0  0
    1.5265   -0.0402   -2.5975 C   0  0  0  0  0  0  0  0  0  0  0  0
    2.1455    1.6343   -0.8768 C   0  0  0  0  0  0  0  0  0  0  0  0
    2.7706    0.6472   -1.9249 C   0  0  0  0  0  0  0  0  0  0  0  0
    3.6432   -0.4067   -1.2055 C   0  0  0  0  0  0  0  0  0  0  0  0
    2.9435   -1.1540   -0.1643 N   0  0  0  0  0  0  0  0  0  0  0  0
    3.8498   -0.0828    1.6616 O   0  0  0  0  0  0  0  0  0  0  0  0
    7.8008    5.7195   -8.6106 H   0  0  0  0  0  0  0  0  0  0  0  0
    5.9085    6.7735   -7.3792 H   0  0  0  0  0  0  0  0  0  0  0  0
    8.4158    3.3542   -8.1251 H   0  0  0  0  0  0  0  0  0  0  0  0
    4.6641    5.4881   -5.6749 H   0  0  0  0  0  0  0  0  0  0  0  0
    7.1445    2.0579   -6.4486 H   0  0  0  0  0  0  0  0  0  0  0  0
    6.7794    1.8850   -4.1180 H   0  0  0  0  0  0  0  0  0  0  0  0
    3.1221    3.7131   -5.4431 H   0  0  0  0  0  0  0  0  0  0  0  0
    5.5502    0.6001   -2.4636 H   0  0  0  0  0  0  0  0  0  0  0  0
    1.8845    2.4556   -3.7558 H   0  0  0  0  0  0  0  0  0  0  0  0
    2.5337   -1.6435    1.7868 H   0  0  0  0  0  0  0  0  0  0  0  0
   -0.6144    0.0598   -2.0716 H   0  0  0  0  0  0  0  0  0  0  0  0
    0.0494    1.5558   -2.7240 H   0  0  0  0  0  0  0  0  0  0  0  0
    0.0482    1.9994   -0.3138 H   0  0  0  0  0  0  0  0  0  0  0  0
    0.6282    0.3697    0.0367 H   0  0  0  0  0  0  0  0  0  0  0  0
    1.4741   -1.0942   -2.3014 H   0  0  0  0  0  0  0  0  0  0  0  0
    1.6007   -0.0344   -3.6872 H   0  0  0  0  0  0  0  0  0  0  0  0
    2.1672    2.6503   -1.2808 H   0  0  0  0  0  0  0  0  0  0  0  0
    2.7179    1.6458    0.0538 H   0  0  0  0  0  0  0  0  0  0  0  0
    4.4832    0.0766   -0.7051 H   0  0  0  0  0  0  0  0  0  0  0  0
    4.0429   -1.1222   -1.9330 H   0  0  0  0  0  0  0  0  0  0  0  0
    2.3207   -1.9049   -0.4305 H   0  0  0  0  0  0  0  0  0  0  0  0
  1  2  1  0  0  0  0
  1  3  2  0  0  0  0
  1 22  1  0  0  0  0
  2  4  2  0  0  0  0
  2 23  1  0  0  0  0
  3  5  1  0  0  0  0
  3 24  1  0  0  0  0
  4 10  1  0  0  0  0
  4 25  1  0  0  0  0
  5 10  2  0  0  0  0
  5 26  1  0  0  0  0
  6  8  2  0  0  0  0
  6 11  1  0  0  0  0
  6 27  1  0  0  0  0
  7  9  1  0  0  0  0
  7 11  2  0  0  0  0
  7 28  1  0  0  0  0
  8 12  1  0  0  0  0
  8 29  1  0  0  0  0
  9 12  2  0  0  0  0
  9 30  1  0  0  0  0
 10 11  1  0  0  0  0
 12 18  1  0  0  0  0
 13 20  1  0  0  0  0
 13 21  2  0  0  0  0
 13 31  1  0  0  0  0
 14 15  1  0  0  0  0
 14 16  1  0  0  0  0
 14 32  1  0  0  0  0
 14 33  1  0  0  0  0
 15 17  1  0  0  0  0
 15 34  1  0  0  0  0
 15 35  1  0  0  0  0
 16 18  1  0  0  0  0
 16 36  1  0  0  0  0
 16 37  1  0  0  0  0
 17 18  1  0  0  0  0
 17 38  1  0  0  0  0
 17 39  1  0  0  0  0
 18 19  1  0  0  0  0
 19 20  1  0  0  0  0
 19 40  1  0  0  0  0
 19 41  1  0  0  0  0
 20 42  1  0  0  0  0
M  END
$$$$
