
  -OEChem-05262117483D

 27 27  0     1  0  0  0  0  0999 V2000
    0.8879   -0.6658   -0.9017 C   0  0  0  0  0  0  0  0  0  0  0  0
    1.4636    1.4737    0.2521 C   0  0  0  0  0  0  0  0  0  0  0  0
   -0.3472   -1.0409    1.2204 C   0  0  0  0  0  0  0  0  0  0  0  0
    1.8058   -0.0010    0.1423 C   0  0  1  0  0  0  0  0  0  0  0  0
   -0.3438   -1.3310   -0.2847 C   0  0  1  0  0  0  0  0  0  0  0  0
   -2.8679   -1.6667   -0.5345 C   0  0  0  0  0  0  0  0  0  0  0  0
    3.6585    4.2944    0.9595 C   0  0  0  0  0  0  0  0  0  0  0  0
   -1.6282   -0.9057   -1.0153 C   0  0  0  0  0  0  0  0  0  0  0  0
    2.3137    3.6431    0.6999 C   0  0  0  0  0  0  0  0  0  0  0  0
    1.1547   -0.6714   -2.0853 O   0  0  0  0  0  0  0  0  0  0  0  0
    0.3304    1.9119    0.1470 O   0  0  0  0  0  0  0  0  0  0  0  0
    2.5513    2.2194    0.5050 O   0  0  0  0  0  0  0  0  0  0  0  0
    1.4163   -0.8423    1.7266 S   0  0  0  0  0  0  0  0  0  0  0  0
   -0.8912   -0.1207    1.4448 H   0  0  0  0  0  0  0  0  0  0  0  0
   -0.7672   -1.8584    1.8088 H   0  0  0  0  0  0  0  0  0  0  0  0
    2.8551   -0.1435   -0.1159 H   0  0  0  0  0  0  0  0  0  0  0  0
   -0.1886   -2.4084   -0.4340 H   0  0  0  0  0  0  0  0  0  0  0  0
   -2.7466   -2.7479   -0.6694 H   0  0  0  0  0  0  0  0  0  0  0  0
   -3.7547   -1.3576   -1.0972 H   0  0  0  0  0  0  0  0  0  0  0  0
   -3.0718   -1.4831    0.5260 H   0  0  0  0  0  0  0  0  0  0  0  0
    4.1310    3.8746    1.8521 H   0  0  0  0  0  0  0  0  0  0  0  0
    4.3323    4.1526    0.1096 H   0  0  0  0  0  0  0  0  0  0  0  0
    3.5208    5.3693    1.1148 H   0  0  0  0  0  0  0  0  0  0  0  0
   -1.7654    0.1723   -0.8752 H   0  0  0  0  0  0  0  0  0  0  0  0
   -1.4767   -1.0703   -2.0868 H   0  0  0  0  0  0  0  0  0  0  0  0
    1.8274    4.0376   -0.1961 H   0  0  0  0  0  0  0  0  0  0  0  0
    1.6254    3.7636    1.5410 H   0  0  0  0  0  0  0  0  0  0  0  0
  1  4  1  0  0  0  0
  1  5  1  0  0  0  0
  1 10  2  0  0  0  0
  2  4  1  0  0  0  0
  2 11  2  0  0  0  0
  2 12  1  0  0  0  0
  3  5  1  0  0  0  0
  3 13  1  0  0  0  0
  3 14  1  0  0  0  0
  3 15  1  0  0  0  0
  4 13  1  0  0  0  0
  4 16  1  0  0  0  0
  5  8  1  0  0  0  0
  5 17  1  0  0  0  0
  6  8  1  0  0  0  0
  6 18  1  0  0  0  0
  6 19  1  0  0  0  0
  6 20  1  0  0  0  0
  7  9  1  0  0  0  0
  7 21  1  0  0  0  0
  7 22  1  0  0  0  0
  7 23  1  0  0  0  0
  8 24  1  0  0  0  0
  8 25  1  0  0  0  0
  9 12  1  0  0  0  0
  9 26  1  0  0  0  0
  9 27  1  0  0  0  0
M  END
$$$$
