27
0 1 C9H14O3S
C                     0.887850206121    -0.665775867228    -0.901703192354
C                     1.463627322890     1.473721409935     0.252126429106
C                    -0.347201634756    -1.040946729529     1.220408560231
C                     1.805832794513    -0.001012099041     0.142267075836
C                    -0.343780795136    -1.331015593273    -0.284698910997
C                    -2.867883894385    -1.666732897201    -0.534547470341
C                     3.658535010371     4.294405893359     0.959460112010
C                    -1.628245171905    -0.905664771706    -1.015318724842
C                     2.313672299440     3.643113400008     0.699930049218
O                     1.154747754504    -0.671401772409    -2.085267059027
O                     0.330442745955     1.911885712605     0.146992146776
O                     2.551291123645     2.219399887369     0.505023678904
S                     1.416261538614    -0.842343458428     1.726553533893
H                    -0.891184144259    -0.120659801930     1.444762478128
H                    -0.767193986721    -1.858398326979     1.808774607046
H                     2.855051389361    -0.143489401108    -0.115894090180
H                    -0.188580861110    -2.408410540918    -0.434037016767
H                    -2.746552714745    -2.747927686475    -0.669383072478
H                    -3.754670099764    -1.357640054523    -1.097184233243
H                    -3.071772359920    -1.483113278820     0.526013778721
H                     4.131047951781     3.874551413225     1.852148611827
H                     4.332341914369     4.152558195754     0.109551896019
H                     3.520783673554     5.369268426419     1.114779042116
H                    -1.765352050256     0.172252442095    -0.875197430844
H                    -1.476723458710    -1.070298294950    -2.086829502367
H                     1.827354352295     4.037567342279    -0.196072184751
H                     1.625375311598     3.763644601292     1.540966265307
