28   
torsion grid (-165,)
C        1.8793720999   -1.8905815136   -0.1221142274
C        5.3795157668   -0.7786695918    6.0523983093
C        0.7567887527   -2.1763638598    0.6606842529
C        2.9244073729   -1.1369311975    0.4241772657
C        4.5840906224   -1.9016810146    5.7918745680
C        4.9399466075    0.4816456299    5.6416849251
C        0.6830526743   -1.7081637221    1.9767148852
C        2.8462694547   -0.6730559958    1.7398449586
C        3.3663287078   -1.7569979145    5.1262533704
C        3.7149744412    0.6206841349    4.9770169197
C        1.7227006008   -0.9503044744    2.5325672008
C        2.9113772138   -0.4951321097    4.7101219983
C        0.9865578378    1.0143408551    3.9080772697
C        1.5948879286   -0.4008559671    3.9524641185
H        1.9427257216   -2.2561076782   -1.1438920013
H        6.3290635657   -0.8871233816    6.5702650160
H       -0.0588667898   -2.7662362189    0.2496050320
H        3.8052391865   -0.9161922609   -0.1739508306
H        4.9148252585   -2.8882321278    6.1072350825
H        5.5484475301    1.3610139735    5.8385224580
H       -0.1935789168   -1.9366703468    2.5804118421
H        3.6717242377   -0.1047763213    2.1604658321
H        2.7595977036   -2.6352710337    4.9149236758
H        3.3922059886    1.6100751283    4.6670167969
H       -0.0494249051    0.9549725610    3.5599886109
H        1.5157592791    1.6545134572    3.1953128675
H        0.9892140315    1.4887596829    4.8943708992
H        0.8714801716   -1.0487609389    4.4615914951
28   
torsion grid (-150,)
C        1.9166662732   -1.8500553447   -0.1429433370
C        5.3878921235   -0.7858569181    6.0519808071
C        0.8043287092   -2.1734764250    0.6393836613
C        2.9445925003   -1.0776741558    0.4098794413
C        4.5438012523   -1.8919818248    5.8964961950
C        4.9968900366    0.4534321033    5.5388503340
C        0.7240062071   -1.7238866556    1.9617230427
C        2.8588672269   -0.6321142703    1.7312864927
C        3.3237923321   -1.7535272529    5.2321155148
C        3.7704435149    0.5858853692    4.8773396908
C        1.7453015236   -0.9465328402    2.5246290595
C        2.9169259212   -0.5138330952    4.7147462458
C        0.9736158940    0.9906872242    3.9318170922
C        1.6038459465   -0.4217719096    3.9547415159
H        1.9858022124   -2.2008984767   -1.1694615097
H        6.3383418688   -0.8900706418    6.5690056276
H        0.0018317338   -2.7779386647    0.2236087238
H        3.8182096578   -0.8281855151   -0.1875752508
H        4.8371619358   -2.8608269047    6.2932413461
H        5.6443067800    1.3194895456    5.6534744879
H       -0.1447886909   -1.9821971044    2.5646727048
H        3.6721994978   -0.0492055967    2.1548562517
H        2.6778356148   -2.6199149175    5.1045732380
H        3.4829933046    1.5575173942    4.4854296506
H       -0.1101397112    0.9003823297    3.8039939173
H        1.3236339028    1.5725335673    3.0740642545
H        1.1571361667    1.5417059373    4.8582165691
H        0.8828998040   -1.0950275146    4.4314097084
28   
torsion grid (-135,)
C        1.9226368316   -1.8108577341   -0.2560302424
C        5.2944505190   -0.6441578320    6.0284738768
C        0.7500272874   -2.0537066063    0.4667258968
C        2.9895817392   -1.1578121911    0.3689899977
C        4.4586711336   -1.7646223086    5.9650988410
C        4.8995946593    0.5421972663    5.4033423554
C        0.6509140718   -1.6415976007    1.7987003524
C        2.8856227756   -0.7474559270    1.7020088424
C        3.2426675516   -1.6933196995    5.2810917479
C        3.6789553596    0.6078280772    4.7232038704
C        1.7126337537   -0.9795752893    2.4337744052
C        2.8324774348   -0.5082053637    4.6524756317
C        0.8000455149    0.8846440984    3.8721105100
C        1.5294678753   -0.4890761304    3.8731186988
H        2.0062913923   -2.1333427451   -1.2907422966
H        6.2409398703   -0.6951777478    6.5605261666
H       -0.0845366661   -2.5677189553   -0.0039971281
H        3.9097519237   -0.9725786309   -0.1800207992
H        4.7535264361   -2.6923986798    6.4492264790
H        5.5413888223    1.4189314480    5.4446014891
H       -0.2648956080   -1.8372263549    2.3538495947
H        3.7298608390   -0.2574774308    2.1776840248
H        2.6024066436   -2.5715884403    5.2283730961
H        3.3900940299    1.5378000572    4.2407002768
H       -0.2750923624    0.7305346621    4.0093901913
H        0.9065430390    1.3959363435    2.9117068175
H        1.1413708711    1.5381945442    4.6782141297
H        0.8534251908   -1.2203251880    4.3283134541
28   
torsion grid (-120,)
C        1.9389955885   -1.7929279968   -0.2784198446
C        5.2692640883   -0.6511096389    6.0446624421
C        0.7718942602   -2.0631092345    0.4438661674
C        2.9924661856   -1.1220665457    0.3499402034
C        4.4060222204   -1.7515912348    6.0254641988
C        4.9069898738    0.5155024119    5.3646016214
C        0.6650913858   -1.6595196034    1.7775849155
C        2.8815653188   -0.7210721994    1.6855689811
C        3.1954972433   -1.6806218197    5.3310837665
C        3.6924250020    0.5807815330    4.6745077029
C        1.7137712585   -0.9795514463    2.4163090456
C        2.8173495600   -0.5157241959    4.6471737971
C        0.7554103338    0.8554104575    3.8885184783
C        1.5171253027   -0.5053987574    3.8583223907
H        2.0286550688   -2.1082144180   -1.3148443795
H        6.2113123392   -0.7015621998    6.5845649215
H       -0.0523888180   -2.5917001564   -0.0288460344
H        3.9085255494   -0.9153412796   -0.1982619410
H        4.6743616442   -2.6640284571    6.5522550609
H        5.5700670845    1.3772178400    5.3703288040
H       -0.2468144017   -1.8751541285    2.3316305848
H        3.7176439459   -0.2190431886    2.1624419143
H        2.5341049182   -2.5445613375    5.3147573362
H        3.4323014559    1.4962641092    4.1496761024
H       -0.2349468410    0.7274188544    4.3356488870
H        0.6031309356    1.2513714047    2.8815713055
H        1.2785936822    1.6095452969    4.4799760133
H        0.8643441486   -1.2529170611    4.3197708153
28   
torsion grid (-105,)
C        1.8331515349   -1.2117079180    0.0382362200
C        5.5277346324    0.3774429369    6.0513998538
C        1.2914854364   -0.1379395193    0.7509920354
C        2.3626861560   -2.3018306012    0.7373304650
C        4.8413918058   -0.6542362763    6.7005700538
C        5.0395046360    0.8648825974    4.8353029211
C        1.2777078334   -0.1559438943    2.1495135908
C        2.3488430848   -2.3117624559    2.1343930037
C        3.6780528011   -1.1845863726    6.1361916346
C        3.8747166431    0.3307319245    4.2742251432
C        1.8050931704   -1.2430106242    2.8621424341
C        3.1750075831   -0.6981105484    4.9197020105
C        0.6557363572   -0.5747651503    5.0789222383
C        1.8599973892   -1.2684954084    4.3792141513
H        1.8411156824   -1.2005589965   -1.0486532636
H        6.4353823134    0.7903204477    6.4842199286
H        0.8786863312    0.7157295916    0.2189271020
H        2.7847031999   -3.1441205152    0.1946391413
H        5.2139976108   -1.0490405128    7.6426913911
H        5.5701045568    1.6595649594    4.3162760053
H        0.8559389776    0.6900941750    2.6857357561
H        2.7706776181   -3.1593716474    2.6706983205
H        3.1522414639   -1.9887950264    6.6480086344
H        3.5198137075    0.7088187143    3.3203015529
H        0.2924966772   -1.1712899211    5.9195088339
H       -0.1708497951   -0.4000218709    4.3853705016
H        0.9458836026    0.4035807468    5.4734185341
H        1.8652255765   -2.3165552922    4.6968068237
28   
torsion grid (-90,)
C        1.9327280461   -1.3078814537   -0.0322880409
C        5.4502964071    0.3114609406    6.0215378044
C        1.2719687931   -0.2659655310    0.6235530713
C        2.5198890650   -2.3306285359    0.7219294506
C        4.8194002111   -0.8015588755    6.5848488909
C        4.8993976842    0.9093169381    4.8824384941
C        1.1965961290   -0.2472105320    2.0209902512
C        2.4444044021   -2.3042747769    2.1158514020
C        3.6472597093   -1.3065960879    6.0122723898
C        3.7285244885    0.4005865603    4.3143994432
C        1.7805388180   -1.2656996780    2.7869546010
C        3.0843903680   -0.7127924491    4.8741889734
C        0.5774951638   -0.4915829374    4.9334989751
C        1.7698131863   -1.2529760043    4.3063510554
H        1.9888802333   -1.3250753454   -1.1176893350
H        6.3638986251    0.7046613034    6.4601136247
H        0.8124954186    0.5343626101    0.0485420590
H        3.0354082723   -3.1477499745    0.2232781072
H        5.2403847259   -1.2794040603    7.4661417024
H        5.3872903510    1.7698618120    4.4309762900
H        0.6787400191    0.5723209293    2.5114816995
H        2.9127321430   -3.0968928916    2.6959590363
H        3.1640407886   -2.1752549796    6.4561959445
H        3.3219907982    0.8627681611    3.4190281718
H        0.3386477669   -0.8908129399    5.9224497340
H       -0.3102978579   -0.5370964924    4.2956655617
H        0.8194662594    0.5687988424    5.0598589598
H        1.7197787668   -2.2894958151    4.6578877480
28   
torsion grid (-75,)
C        1.9318812089   -1.2890015996   -0.0363769833
C        5.4774878047    0.2417084679    6.0165253402
C        1.1833082466   -0.3024865800    0.6091144278
C        2.6040437724   -2.2514585879    0.7275763460
C        4.8136058216   -0.8490866171    6.5858242894
C        4.9459357305    0.8492649696    4.8733961423
C        1.1047308531   -0.2768611744    2.0072318844
C        2.5245839861   -2.2186681587    2.1202005599
C        3.6275162959   -1.3242852259    6.0166190491
C        3.7615752989    0.3701566882    4.3076747453
C        1.7732094889   -1.2336629390    2.7817905319
C        3.0854563550   -0.7207919019    4.8737771592
C        0.5944021303   -0.4191060542    4.9200970856
C        1.7580376751   -1.2194533292    4.3028628948
H        1.9914720345   -1.3107302497   -1.1215219101
H        6.4017436072    0.6104435531    6.4540679814
H        0.6568192993    0.4497016592    0.0266093816
H        3.1892821194   -3.0251287149    0.2366112132
H        5.2203581041   -1.3331700066    7.4703605711
H        5.4587789367    1.6930157979    4.4179323435
H        0.5168589797    0.4992076537    2.4882789459
H        3.0597089199   -2.9612936060    2.7086702884
H        3.1183213668   -2.1755694857    6.4652514420
H        3.3673179284    0.8371747014    3.4090003904
H        0.4946125949   -0.6539411581    5.9832509039
H       -0.3523561021   -0.6346841878    4.4140876976
H        0.7742508301    0.6580971735    4.8403039793
H        1.6574720848   -2.2564627542    4.6446194518
28   
torsion grid (-60,)
C        1.9762460656   -1.3696145075   -0.0391996747
C        5.4966086589    0.1329845131    6.0389246611
C        1.0969642255   -0.4680422033    0.5627335773
C        2.7628013142   -2.2028003856    0.7671336471
C        4.8268689398   -0.9772928043    6.5610140922
C        4.9564888206    0.8075688547    4.9375481799
C        1.0015386548   -0.3974480944    1.9590962645
C        2.6659310600   -2.1255148302    2.1561767066
C        3.6250321309   -1.4049115385    5.9859380218
C        3.7580118690    0.3746690480    4.3658934816
C        1.7839121412   -1.2232157682    2.7753560460
C        3.0751790339   -0.7356995196    4.8849907606
C        0.6023208391   -0.3116782168    4.8730189644
C        1.7380764470   -1.1766688064    4.2997461695
H        2.0499884924   -1.4252076344   -1.1222923923
H        6.4321468412    0.4663689145    6.4808224597
H        0.4802607006    0.1834023544   -0.0517778860
H        3.4520075784   -2.9093227124    0.3110825472
H        5.2400864887   -1.5125895889    7.4124327498
H        5.4739864213    1.6680474832    4.5203271862
H        0.3079613347    0.3100483161    2.4024345977
H        3.2913550583   -2.7643203537    2.7763454828
H        3.1093533352   -2.2707909292    6.3973320826
H        3.3555027845    0.8920787362    3.4985314180
H        0.6115932969   -0.3670964620    5.9655603968
H       -0.3765873344   -0.6554146836    4.5222921714
H        0.7227435333    0.7412246667    4.5995831965
H        1.5610625628   -2.2045525723    4.6398653418
28   
torsion grid (-45,)
C        1.8692238254   -1.3679229268   -0.0231104876
C        5.5581330907   -0.0159258818    6.0354410291
C        0.8656296141   -0.6052162810    0.5763431463
C        2.8140964716   -2.0120366339    0.7857381903
C        4.8652827136   -1.1419139946    6.4879925021
C        5.0083932420    0.7668572081    5.0125241239
C        0.8050690232   -0.4849592741    1.9710982005
C        2.7510845845   -1.8872248276    2.1735123025
C        3.6298538440   -1.4784840618    5.9222232119
C        3.7776313749    0.4245100282    4.4496009906
C        1.7464964540   -1.1208529037    2.7903960333
C        3.0713491020   -0.7017156724    4.8999573440
C        0.6360010716   -0.0817457715    4.8680878407
C        1.7077292446   -1.0423141029    4.3177793390
H        1.9176611690   -1.4603098094   -1.1051447072
H        6.5187320581    0.2477209876    6.4706039205
H        0.1246882917   -0.1004419824   -0.0389390631
H        3.6022352709   -2.6085745037    0.3327357636
H        5.2854292933   -1.7600348981    7.2776633900
H        5.5436199649    1.6413225159    4.6504661020
H        0.0113134116    0.1106013471    2.4104127349
H        3.4983665884   -2.3791600885    2.7915556720
H        3.0956920338   -2.3572970422    6.2784618854
H        3.3661448962    1.0253973938    3.6420191426
H        0.7790352587    0.0422274027    5.9456951433
H       -0.3729789940   -0.4818528120    4.7236465997
H        0.7023632540    0.9107364635    4.4127822781
H        1.4362144142   -2.0506667533    4.6553226962
28   
torsion grid (-30,)
C        1.8269130632   -1.3917819574    0.0059135787
C        5.5739002381   -0.1860209907    6.1191992381
C        0.7156011604   -0.7955289219    0.6067023929
C        2.8943859584   -1.8093349379    0.8082090133
C        4.8338560913   -1.3160153085    6.4756967648
C        5.0543033277    0.7080163767    5.1741212777
C        0.6743675466   -0.6150575482    1.9940096653
C        2.8486999615   -1.6275848622    2.1921734663
C        3.5821256643   -1.5479068951    5.8919478678
C        3.8074112057    0.4703930458    4.5942266545
C        1.7405494248   -1.0228539568    2.8092475194
C        3.0537503683   -0.6606525787    4.9474775114
C        0.6775807444    0.1806001988    4.8192899767
C        1.6836880660   -0.8919540139    4.3359459997
H        1.8620309220   -1.5290959882   -1.0718627364
H        6.5464272965   -0.0032988329    6.5690928553
H       -0.1230636610   -0.4680784239   -0.0030800620
H        3.7662445209   -2.2753149726    0.3553466425
H        5.2289572940   -2.0187905256    7.2051482871
H        5.6250921938    1.5878858057    4.8873106142
H       -0.2033443860   -0.1531465047    2.4354388538
H        3.6890203245   -1.9498990124    2.8004265382
H        3.0120617562   -2.4313534757    6.1724637845
H        3.4177117337    1.1600040736    3.8490305008
H        0.9453621358    0.5022087345    5.8300587386
H       -0.3377819110   -0.2222072785    4.8874809516
H        0.6779541730    1.0672571004    4.1798127856
H        1.3097239171   -1.8640923096    4.6813260628
28   
torsion grid (-15,)
C        1.7824689540   -1.5599940664    0.0293721347
C        5.5800968008   -0.3433244868    6.1234325528
C        0.5749629935   -1.2581545478    0.6692004194
C        2.9606655670   -1.5923382228    0.7786869275
C        4.8338311002   -1.5083467682    6.3182637583
C        5.0495696733    0.6917494741    5.3431554796
C        0.5549499876   -0.9870921084    2.0389547704
C        2.9357937326   -1.3236108423    2.1523901336
C        3.5666496165   -1.6354271163    5.7363459863
C        3.7853032364    0.5586389613    4.7666082405
C        1.7344643048   -1.0099112371    2.8034234509
C        3.0252490165   -0.6070160560    4.9563667422
C        0.7206219854    0.4411947717    4.6534132458
C        1.6591891372   -0.7541614150    4.3149931545
H        1.8022234732   -1.7681841403   -1.0373710749
H        6.5640406315   -0.2405819209    6.5738178414
H       -0.3518870269   -1.2337180230    0.1010798685
H        3.9061872380   -1.8280652242    0.2961440943
H        5.2351308211   -2.3184382806    6.9222021837
H        5.6236793794    1.6011762134    5.1832976064
H       -0.3933030404   -0.7565799819    2.5182325912
H        3.8623560406   -1.3573107998    2.7161393633
H        2.9934861339   -2.5477478176    5.8881771113
H        3.3861335048    1.3635837644    4.1538633102
H        1.1197516278    1.0075944938    5.4992884132
H       -0.2698919029    0.0942245155    4.9615921290
H        0.6086794220    1.1294936697    3.8122463668
H        1.1936515490   -1.6598003793    4.7220113348
28   
torsion grid (0,)
C        1.6649625171   -0.9712821778   -0.0349094718
C        5.3938526325    0.3969735060    6.0758986536
C        1.2908738412    0.0755557930    0.8162549055
C        2.1030527153   -2.1791997958    0.5144114729
C        4.4787421328   -0.3255446591    6.8513618382
C        5.1765270284    0.5187897162    4.7022380016
C        1.3533353994   -0.0884393387    2.2015788674
C        2.1653497990   -2.3353618817    1.9039156861
C        3.3607880627   -0.9078342405    6.2524782813
C        4.0551028932   -0.0711524469    4.1048738009
C        1.7903504657   -1.2976945869    2.7662807637
C        3.1258799361   -0.7861320174    4.8712870393
C        0.5820965832   -1.0625913695    5.0131739033
C        1.8929130660   -1.4727110411    4.2708484797
H        1.6142971962   -0.8454607903   -1.1133950675
H        6.2651496267    0.8538645718    6.5382032172
H        0.9523405673    1.0209301940    0.3992920599
H        2.3955061138   -3.0000702477   -0.1357188753
H        4.6376956231   -0.4362462121    7.9213419257
H        5.8816922517    1.0722451865    4.0867244127
H        1.0705442724    0.7364561159    2.8513701157
H        2.5137768296   -3.2768438430    2.3235756302
H        2.6601284031   -1.4685708529    6.8676850532
H        3.9112906719    0.0279963869    3.0341259179
H        0.7602779868   -0.2780917716    5.7522707561
H        0.1378857199   -1.9193039381    5.5280838835
H       -0.1689035442   -0.6940270674    4.3106925672
H        2.0478208898   -2.5421682519    4.4531635447
28   
torsion grid (15,)
C        1.8930688461   -1.0980836677   -0.0995873637
C        5.4191286387    0.3039601316    6.0570057442
C        1.3368657087   -0.0369997592    0.6210008625
C        2.3925839641   -2.2084770279    0.5896609352
C        4.7010364136   -0.7336217652    6.6608542692
C        4.9736017335    0.8259435587    4.8388615184
C        1.2789740877   -0.0872123514    2.0175883532
C        2.3350959911   -2.2507710000    1.9850051995
C        3.5488511924   -1.2356462395    6.0496257520
C        3.8198835206    0.3197760000    4.2308815922
C        1.7766366642   -1.1947026589    2.7200071490
C        3.0885781849   -0.7148900158    4.8304085165
C        0.5684863739   -0.5603492281    4.9152920663
C        1.7837092267   -1.2554917206    4.2371241137
H        1.9351559691   -1.0616619006   -1.1851398016
H        6.3182988717    0.6949175629    6.5263400627
H        0.9467272095    0.8318019961    0.0963790588
H        2.8251865067   -3.0412238571    0.0406099400
H        5.0402269373   -1.1549334733    7.6041167287
H        5.5290363320    1.6257532709    4.3548723647
H        0.8451871117    0.7481576851    2.5608615715
H        2.7339264714   -3.1138443974    2.5142530330
H        2.9978389331   -2.0443167722    6.5266936069
H        3.4984681163    0.7245883116    3.2760486696
H        0.8322218772    0.4123269947    5.3370095148
H        0.1600630583   -1.1925311692    5.7088523693
H       -0.2472784980   -0.4130922331    4.2013235889
H        1.7655860615   -2.3095895792    4.5330177595
28   
torsion grid (30,)
C        1.9434075406   -1.1108992200   -0.1032443441
C        5.4332116812    0.2601642868    6.0392301014
C        1.2925959361   -0.0797426200    0.5790874179
C        2.5097066456   -2.1644661034    0.6240480007
C        4.7449820160   -0.8234017780    6.5935633872
C        4.9390535878    0.8666891845    4.8792901866
C        1.2065488778   -0.1023482050    1.9759158859
C        2.4232545582   -2.1781319209    2.0175702937
C        3.5722931522   -1.2903655351    5.9914750112
C        3.7668670786    0.3956494609    4.2812614874
C        1.7695252511   -1.1511972237    2.7159291600
C        3.0656453544   -0.6871886514    4.8316568659
C        0.5645898382   -0.4173151601    4.8757149825
C        1.7464278054   -1.1836353588    4.2347498778
H        2.0078680330   -1.0961459757   -1.1882223214
H        6.3476051034    0.6234736574    6.5013082567
H        0.8492289320    0.7442532430    0.0252363390
H        3.0173135032   -2.9738072429    0.1049826659
H        5.1222244054   -1.3078325209    7.4909318559
H        5.4715472769    1.7041450192    4.4348310555
H        0.6964488036    0.7089852146    2.4875506864
H        2.8757801957   -2.9945250056    2.5768442346
H        3.0440715777   -2.1359661706    6.4286896012
H        3.4041219749    0.8637499543    3.3704344905
H        0.7995691761    0.6368399713    5.0436782675
H        0.2902486153   -0.8770352863    5.8295585251
H       -0.3262523098   -0.4761287554    4.2413358401
H        1.6701605825   -2.2285167973    4.5551920315
28   
torsion grid (45,)
C        1.9741995055   -1.1154121516   -0.1378943346
C        5.4465608551    0.1742812518    6.0153923719
C        1.2312776195   -0.1309739331    0.5175957502
C        2.6156847992   -2.1066276835    0.6152738989
C        4.7448493972   -0.9131728677    6.5443335182
C        4.9511229698    0.8245771158    4.8795838014
C        1.1277603537   -0.1360187768    1.9141829954
C        2.5117651585   -2.1041373423    2.0068662813
C        3.5574828508   -1.3412652470    5.9414925414
C        3.7653269061    0.3920120583    4.2802413649
C        1.7658212845   -1.1218338290    2.6781691773
C        3.0512264885   -0.6950561864    4.8055346954
C        0.5683853142   -0.3270627684    4.8146554285
C        1.7219058265   -1.1432035875    4.1989010730
H        2.0527482521   -1.1130895674   -1.2220569232
H        6.3719612883    0.5073809890    6.4783638851
H        0.7285395853    0.6435501169   -0.0565652456
H        3.1962728062   -2.8791941611    0.1170975717
H        5.1227990913   -1.4306661682    7.4227324567
H        5.4936201906    1.6661805654    4.4556040544
H        0.5441821393    0.6384107849    2.4029557662
H        3.0239249338   -2.8692217785    2.5869550449
H        3.0182568060   -2.1900689788    6.3585734553
H        3.3997485298    0.8923413222    3.3873464967
H        0.7632668270    0.7484211142    4.7711141547
H        0.4322678660   -0.6080179035    5.8630638374
H       -0.3757552473   -0.5313080626    4.2979616868
H        1.5855535849   -2.1842862200    4.5145003456
28   
torsion grid (60,)
C        2.0170562763   -1.1952146668   -0.1424787802
C        5.4581318503    0.0705480716    6.0352492402
C        1.1480900742   -0.2885960126    0.4668928180
C        2.7692236637   -2.0671353083    0.6555905317
C        4.7532111148   -1.0362399608    6.5169131143
C        4.9544904702    0.7842043679    4.9412626662
C        1.0290400326   -0.2516479916    1.8626921467
C        2.6488321103   -2.0231713389    2.0442889549
C        3.5530791936   -1.4216237647    5.9093837144
C        3.7574911348    0.3935999022    4.3369362181
C        1.7769319395   -1.1163363195    2.6710331557
C        3.0397348340   -0.7129187435    4.8155115072
C        0.5776844836   -0.2326242994    4.7706069530
C        1.7042347755   -1.1081281303    4.1950180142
H        2.1091534136   -1.2248827558   -1.2251832881
H        6.3924868671    0.3710598654    6.5025097535
H        0.5580476996    0.3927919962   -0.1412977774
H        3.4500258837   -2.7779316272    0.1935957455
H        5.1378189145   -1.6017399816    7.3621848533
H        5.4993442318    1.6423371128    4.5552097424
H        0.3443488913    0.4607543288    2.3119188893
H        3.2478227021   -2.6923232387    2.6585241193
H        3.0100352048   -2.2850991080    6.2894347732
H        3.3834561971    0.9413837690    3.4754960221
H        0.7279610834    0.8234724642    4.5247469733
H        0.5681044004   -0.3116536388    5.8615546539
H       -0.4021943775   -0.5420345190    4.3920643307
H        1.4982936021   -2.1403184728    4.5045067777
28   
torsion grid (75,)
C        1.9505942825   -1.2021766411   -0.1426506339
C        5.5147484671   -0.0627265555    6.0393930675
C        0.9510400094   -0.4296018814    0.4507643276
C        2.8603120635   -1.8875288646    0.6726247921
C        4.7811672580   -1.1755562780    6.4594167536
C        5.0148201194    0.7429636176    5.0088725048
C        0.8595915320   -0.3403072907    1.8462438590
C        2.7661196110   -1.7933584962    2.0609890760
C        3.5553866522   -1.4765546052    5.8542393933
C        3.7932702228    0.4360843059    4.4065700838
C        1.7654249832   -1.0174918281    2.6724353645
C        3.0465450741   -0.6766815691    4.8237480215
C        0.6257008790   -0.0109071963    4.7507114237
C        1.6920340313   -0.9772390488    4.2002064406
H        2.0228679094   -1.2706215229   -1.2251282557
H        6.4681521407    0.1728360867    6.5054088388
H        0.2373019793    0.1070404031   -0.1696857659
H        3.6449938451   -2.4922564893    0.2244960099
H        5.1625030362   -1.8113405411    7.2547289293
H        5.5814935607    1.6075109883    4.6716992458
H        0.0702027340    0.2649372116    2.2800175495
H        3.4862641263   -2.3175053047    2.6847777341
H        2.9896411645   -2.3452951410    6.1855393473
H        3.4205548903    1.0547505068    3.5936645480
H        0.7344831818    0.9853366746    4.3088576685
H        0.7584412650    0.1154111580    5.8286945500
H       -0.3899419911   -0.3666912894    4.5520453302
H        1.3954901459   -1.9896368518    4.5033291533
28   
torsion grid (90,)
C        1.9227399102   -1.2451515659   -0.1205324270
C        5.5350568295   -0.2559262197    6.1110059024
C        0.8137768025   -0.6286372993    0.4636723202
C        2.9545316065   -1.7130018716    0.7005671459
C        4.7585199848   -1.3725997621    6.4301161710
C        5.0630499319    0.6644827437    5.1663762462
C        0.7396259278   -0.4774855706    1.8532209358
C        2.8759888400   -1.5605593844    2.0864730297
C        3.5178628274   -1.5650150962    5.8096955344
C        3.8268984513    0.4661880687    4.5497120324
C        1.7700552583   -0.9355143065    2.6873898243
C        3.0369061901   -0.6511172028    4.8652208918
C        0.6850818447    0.2452310885    4.7008430036
C        1.6779873275   -0.8384974623    4.2148986500
H        1.9834924851   -1.3595742536   -1.1998371121
H        6.4992369016   -0.1039440678    6.5893983054
H        0.0023646285   -0.2623650092   -0.1607135265
H        3.8241743651   -2.1954505913    0.2608939609
H        5.1166937477   -2.0956195996    7.1588475495
H        5.6625335753    1.5341404460    4.9084205020
H       -0.1359740364    0.0013969944    2.2803753556
H        3.6889722543   -1.9220872012    2.7096890429
H        2.9190824808   -2.4380956247    6.0612653629
H        3.4744761645    1.1758949831    3.8048385339
H        0.7347488122    1.1331607874    4.0618822593
H        0.9546379908    0.5824201030    5.7049156904
H       -0.3483963583   -0.1121536702    4.7035734816
H        1.2763132706   -1.8111253953    4.5267581618
28   
torsion grid (105,)
C        1.8709829880   -1.4167958241   -0.0948885474
C        5.5452259049   -0.4149178647    6.1128965651
C        0.6556151442   -1.0979790119    0.5213374352
C        3.0290480768   -1.4939606075    0.6820254706
C        4.7660505670   -1.5641271754    6.2689340361
C        5.0597513556    0.6459966200    5.3380467367
C        0.6080672348   -0.8542878805    1.8955573123
C        2.9763291305   -1.2526400193    2.0600009250
C        3.5109833471   -1.6500018059    5.6541311828
C        3.8073783567    0.5539642072    4.7284669690
C        1.7672821398   -0.9218326370    2.6879328193
C        3.0144415580   -0.5953777450    4.8793519419
C        0.7429266676    0.5126558837    4.5473410729
C        1.6612967137   -0.6968474491    4.2024690515
H        1.9122190591   -1.6037187137   -1.1649456855
H        6.5198947078   -0.3443370087    6.5889089873
H       -0.2559490447   -1.0390603601   -0.0685649889
H        3.9802466696   -1.7435011534    0.2179351255
H        5.1323507945   -2.3940251652    6.8682008164
H        5.6597419254    1.5433856937    5.2079915860
H       -0.3461572240   -0.6102709705    2.3558884568
H        3.8873991725   -1.3211467804    2.6454064438
H        2.9121112471   -2.5502042777    5.7760016842
H        3.4438152912    1.3785194473    4.1195813091
H        0.6681417291    1.2043844096    3.7031041179
H        1.1506720467    1.0842527020    5.3845072038
H       -0.2702482939    0.1930005369    4.8047187808
H        1.1667428415   -1.6007796566    4.5780916298
28   
torsion grid (120,)
C        1.8623431885   -1.4486769667   -0.1105537275
C        5.5092120606   -0.4902365740    6.1244843498
C        0.6291651366   -1.2670975286    0.5272105655
C        3.0361981658   -1.3627855582    0.6403489489
C        4.6965552090   -1.6204880362    6.2459551627
C        5.0608039448    0.6020589814    5.3719828343
C        0.5814089155   -0.9958311714    1.8954248876
C        2.9834005021   -1.0948277642    2.0142180471
C        3.4456632920   -1.6555077862    5.6188530096
C        3.8106853757    0.5604112965    4.7513967916
C        1.7565598499   -0.8984188025    2.6615301926
C        2.9832698861   -0.5685059500    4.8669142926
C        0.7464939012    0.6130773061    4.4728659996
C        1.6370111418   -0.6323231582    4.1675492984
H        1.9042397861   -1.6578608361   -1.1764518673
H        6.4810695132   -0.4587404567    6.6102992609
H       -0.2948681923   -1.3387002599   -0.0414643455
H        4.0010424027   -1.5068946402    0.1600058367
H        5.0335382547   -2.4746513117    6.8280782917
H        5.6869541832    1.4847900280    5.2673640947
H       -0.3851472745   -0.8613036966    2.3763918951
H        3.9078555880   -1.0416379113    2.5794607833
H        2.8218696887   -2.5420391878    5.7130594723
H        3.4790482890    1.4103541573    4.1595414944
H        0.4411685734    1.1262506241    3.5576118387
H        1.2784144596    1.3378981339    5.0928775515
H       -0.1607894759    0.3266721125    5.0120431069
H        1.1177458355   -1.5088951089    4.5714573166
28   
torsion grid (135,)
C        1.4104487026   -2.5226926697    0.2687444328
C        4.9945925810   -0.9373075439    6.3357536454
C        0.7387381159   -2.7516012306    1.4747279168
C        2.2070351775   -1.3819391298    0.1338216022
C        5.1310493522   -1.1838707363    4.9658460625
C        3.8227801907   -0.3399370599    6.8109874565
C        0.8674171449   -1.8466456148    2.5311620863
C        2.3286584206   -0.4777484358    1.1942562746
C        4.1086554983   -0.8338058404    4.0783612991
C        2.8035774262    0.0081980999    5.9196571583
C        1.6606490983   -0.6961824270    2.4080100302
C        2.9324320098   -0.2284498096    4.5429071847
C        2.0278586505    1.7281061418    3.2273794092
C        1.8179593053    0.2325940320    3.5991089874
H        1.3121469463   -3.2240097041   -0.5558921581
H        5.7881471466   -1.2140166848    7.0251910189
H        0.1141689145   -3.6338657017    1.5913745043
H        2.7348319630   -1.1938418547   -0.7980136392
H        6.0336103725   -1.6569758739    4.5863859676
H        3.6997406607   -0.1496185602    7.8744333218
H        0.3491805256   -2.0366628854    3.4689300189
H        2.9541273826    0.4024531976    1.0713026200
H        4.2227875982   -1.0485238612    3.0200233228
H        1.8940433491    0.4706479991    6.2991722911
H        1.7130745319    1.9519280127    2.2054831250
H        3.0672435813    2.0355946438    3.3697899244
H        1.4363628007    2.3599446896    3.8977695270
H        0.9050650762    0.1688464593    4.2002690711
28   
torsion grid (150,)
C        1.3637129774   -2.5299805538    0.3486976250
C        4.9396254613   -0.9460747406    6.3742764627
C        0.7838831591   -2.7732635262    1.5995671281
C        2.0848770260   -1.3506621558    0.1457040465
C        5.1318887934   -1.0817578071    4.9946607000
C        3.7322182382   -0.4270435332    6.8504930789
C        0.9295680927   -1.8438885894    2.6311344205
C        2.2236190405   -0.4212599865    1.1831648045
C        4.1275678784   -0.7002274962    4.1013804978
C        2.7305436936   -0.0462453010    5.9511933403
C        1.6483067828   -0.6535690174    2.4398708868
C        2.9136061798   -0.1738133901    4.5675327458
C        2.0953191186    1.7710869530    3.1982853271
C        1.8228588023    0.3042546675    3.6070238551
H        1.2523557921   -3.2509022064   -0.4571744005
H        5.7192379819   -1.2477012360    7.0691537732
H        0.2189266700   -3.6865407385    1.7694980904
H        2.5399815331   -1.1506756412   -0.8213508166
H        6.0639021687   -1.4927223932    4.6140686845
H        3.5675297911   -0.3220886385    7.9201207562
H        0.4860000186   -2.0451190300    3.6042122400
H        2.7879137890    0.4899357758    1.0055224427
H        4.2821386969   -0.8283434453    3.0334965086
H        1.7925273497    0.3548899017    6.3310539046
H        1.5689258937    2.0507572774    2.2816480702
H        3.1664465175    1.9650582807    3.0894524955
H        1.7548702022    2.4377274493    3.9974686651
H        0.9018438652    0.2947048476    4.2002542847
28   
torsion grid (165,)
C        1.3755402427   -2.5206391115    0.3395871546
C        4.8878062872   -0.9890072820    6.4121984143
C        0.8901898927   -2.8029992190    1.6227190910
C        2.0104661459   -1.2998359376    0.1013216622
C        5.1034684679   -1.1245772885    5.0359959043
C        3.6820303880   -0.4481753695    6.8682247324
C        1.0441384499   -1.8708849928    2.6495435728
C        2.1587430933   -0.3668127621    1.1353301504
C        4.1228520013   -0.7218681410    4.1260165826
C        2.7042175459   -0.0451386185    5.9525815765
C        1.6783179749   -0.6384660557    2.4227519959
C        2.9111483582   -0.1738762213    4.5725993800
C        2.1715025653    1.7739272323    3.1744775171
C        1.8538885231    0.3240576920    3.5887067031
H        1.2579747907   -3.2442180440   -0.4630347065
H        5.6485237246   -1.3073896897    7.1204305773
H        0.3933488863   -3.7495743331    1.8208762138
H        2.3911743594   -1.0689735867   -0.8906815289
H        6.0347627333   -1.5514920812    4.6716063879
H        3.5003380718   -0.3434085245    7.9351053797
H        0.6770314444   -2.1023325191    3.6474511793
H        2.6550766286    0.5764350007    0.9276717636
H        4.2924037676   -0.8492059235    3.0599993867
H        1.7671859976    0.3733815463    6.3157863913
H        1.5052067232    2.1248837775    2.3803760661
H        3.2114198767    1.8781277097    2.8494904625
H        2.0507639598    2.4344063244    4.0389345080
H        0.9101405610    0.3457944338    4.1464598123
28   
torsion grid (180,)
C        1.3211562979   -2.5785434843    0.3868208805
C        4.7996883860   -1.0233123583    6.4795154645
C        1.0075299828   -2.8867661877    1.7170803787
C        1.8171342320   -1.3109609228    0.0778560281
C        5.0721818277   -1.1221779746    5.1098751808
C        3.5732356213   -0.5015040906    6.9006168752
C        1.1936663693   -1.9338824608    2.7181403015
C        1.9987915795   -0.3564683340    1.0877750323
C        4.1260691522   -0.7021555402    4.1724138688
C        2.6300832056   -0.0796195475    5.9569261126
C        1.6911610091   -0.6532784527    2.4210433138
C        2.8937757782   -0.1725343317    4.5843413246
C        2.2621667055    1.7597238051    3.1135340875
C        1.8823733334    0.3388604520    3.5648180249
H        1.1794427394   -3.3189558271   -0.3963315922
H        5.5336666929   -1.3550308652    7.2095056662
H        0.6209066062   -3.8705793191    1.9716365091
H        2.0636074664   -1.0587598471   -0.9507227020
H        6.0208307563   -1.5331073093    4.7729780512
H        3.3484754653   -0.4256421859    7.9617162774
H        0.9631435516   -2.1857316333    3.7511795608
H        2.3833215094    0.6226505024    0.8203988727
H        4.3372746563   -0.8004547683    3.1104060379
H        1.6767033375    0.3249761869    6.2919930337
H        1.5024538345    2.1807283921    2.4462563171
H        3.2231971986    1.7696316420    2.5896176102
H        2.3548921219    2.4143849167    3.9847162082
H        0.9152404413    0.4133491080    4.0775032602
