
  -OEChem-05262117483D

 37 39  0     0  0  0  0  0  0999 V2000
    5.0101   -5.2492    2.1213 C   0  0  0  0  0  0  0  0  0  0  0  0
    5.3656   -3.8940    2.1550 C   0  0  0  0  0  0  0  0  0  0  0  0
    3.9629   -5.6978    1.3067 C   0  0  0  0  0  0  0  0  0  0  0  0
   -3.0390   -8.6497   -4.1456 C   0  0  0  0  0  0  0  0  0  0  0  0
   -2.4088   -9.6433   -3.3973 C   0  0  0  0  0  0  0  0  0  0  0  0
    4.6793   -2.9551    1.3720 C   0  0  0  0  0  0  0  0  0  0  0  0
   -1.5638   -7.0082   -3.2092 C   0  0  0  0  0  0  0  0  0  0  0  0
    3.2777   -4.7638    0.5258 C   0  0  0  0  0  0  0  0  0  0  0  0
   -0.9191   -8.0043   -2.4477 C   0  0  0  0  0  0  0  0  0  0  0  0
   -2.6224   -7.3097   -4.0630 C   0  0  0  0  0  0  0  0  0  0  0  0
   -1.3422   -9.3499   -2.5369 C   0  0  0  0  0  0  0  0  0  0  0  0
    3.6473   -3.4221    0.5743 C   0  0  0  0  0  0  0  0  0  0  0  0
    2.1377   -4.9364   -0.4250 C   0  0  0  0  0  0  0  0  0  0  0  0
    0.1883   -7.6333   -1.5644 C   0  0  0  0  0  0  0  0  0  0  0  0
   -3.2965   -6.2385   -4.8885 C   0  0  0  0  0  0  0  0  0  0  0  0
   -0.6914  -10.4635   -1.7437 C   0  0  0  0  0  0  0  0  0  0  0  0
    1.6784   -3.8835   -1.0350 N   0  0  0  0  0  0  0  0  0  0  0  0
    0.5909   -6.4141   -1.4644 N   0  0  0  0  0  0  0  0  0  0  0  0
    1.6303   -6.1854   -0.6113 N   0  0  0  0  0  0  0  0  0  0  0  0
    1.6932   -1.6143    0.2109 O   0  0  0  0  0  0  0  0  0  0  0  0
    3.3286   -1.9961   -1.6804 O   0  0  0  0  0  0  0  0  0  0  0  0
    2.5590   -2.5146   -0.5500 S   0  0  0  0  0  0  0  0  0  0  0  0
    5.5536   -5.9617    2.7351 H   0  0  0  0  0  0  0  0  0  0  0  0
    6.1813   -3.5681    2.7942 H   0  0  0  0  0  0  0  0  0  0  0  0
    3.7081   -6.7549    1.2999 H   0  0  0  0  0  0  0  0  0  0  0  0
   -3.8654   -8.9164   -4.8014 H   0  0  0  0  0  0  0  0  0  0  0  0
   -2.7534  -10.6714   -3.4806 H   0  0  0  0  0  0  0  0  0  0  0  0
    4.9450   -1.9024    1.3890 H   0  0  0  0  0  0  0  0  0  0  0  0
   -1.2129   -5.9848   -3.1141 H   0  0  0  0  0  0  0  0  0  0  0  0
    0.6704   -8.4308   -0.9846 H   0  0  0  0  0  0  0  0  0  0  0  0
   -4.3863   -6.2933   -4.7958 H   0  0  0  0  0  0  0  0  0  0  0  0
   -2.9800   -5.2390   -4.5798 H   0  0  0  0  0  0  0  0  0  0  0  0
   -3.0534   -6.3520   -5.9514 H   0  0  0  0  0  0  0  0  0  0  0  0
    0.3727  -10.5711   -1.9834 H   0  0  0  0  0  0  0  0  0  0  0  0
   -0.7721  -10.2997   -0.6630 H   0  0  0  0  0  0  0  0  0  0  0  0
   -1.1717  -11.4199   -1.9637 H   0  0  0  0  0  0  0  0  0  0  0  0
    2.0422   -6.9621   -0.0970 H   0  0  0  0  0  0  0  0  0  0  0  0
  1  2  1  0  0  0  0
  1  3  2  0  0  0  0
  1 23  1  0  0  0  0
  2  6  2  0  0  0  0
  2 24  1  0  0  0  0
  3  8  1  0  0  0  0
  3 25  1  0  0  0  0
  4  5  2  0  0  0  0
  4 10  1  0  0  0  0
  4 26  1  0  0  0  0
  5 11  1  0  0  0  0
  5 27  1  0  0  0  0
  6 12  1  0  0  0  0
  6 28  1  0  0  0  0
  7  9  1  0  0  0  0
  7 10  2  0  0  0  0
  7 29  1  0  0  0  0
  8 12  2  0  0  0  0
  8 13  1  0  0  0  0
  9 11  2  0  0  0  0
  9 14  1  0  0  0  0
 10 15  1  0  0  0  0
 11 16  1  0  0  0  0
 12 22  1  0  0  0  0
 13 17  2  0  0  0  0
 13 19  1  0  0  0  0
 14 18  2  0  0  0  0
 14 30  1  0  0  0  0
 15 31  1  0  0  0  0
 15 32  1  0  0  0  0
 15 33  1  0  0  0  0
 16 34  1  0  0  0  0
 16 35  1  0  0  0  0
 16 36  1  0  0  0  0
 17 22  1  0  0  0  0
 18 19  1  0  0  0  0
 19 37  1  0  0  0  0
 20 22  2  0  0  0  0
 21 22  2  0  0  0  0
M  END
$$$$
