37
0 1 C16H15N3O2S
C                     1.037280007718    -2.052288618839    -1.707519744015
C                     1.800904440148    -1.112422324950    -1.003902139280
C                     1.084579957058    -3.414804850855    -1.386306557711
C                    -2.942201822316    -8.039880528359    -4.279592603950
C                    -2.240470035823    -9.151509061034    -3.814051175407
C                     2.640757204323    -1.517798373722     0.042986075551
C                    -1.596935492051    -6.618829528522    -2.896464231648
C                     1.916415220815    -3.822925921739    -0.338205294085
C                    -0.875322840551    -7.732410074216    -2.422773696316
C                    -2.630547079300    -6.748712000217    -3.821932264523
C                    -1.201048844816    -9.029424089624    -2.882310646301
C                     2.673598645823    -2.868475863764     0.345235550915
C                     2.203801949868    -5.171592337293     0.234389440900
C                     0.205483061682    -7.546779598311    -1.452386667584
C                    -3.415749860809    -5.547857384604    -4.296428832000
C                    -0.462651025576   -10.265523050490    -2.415452185641
N                     3.065800050045    -5.254848523404     1.211933326817
N                     0.652212092216    -6.376930549701    -1.144582667753
N                     1.637183869303    -6.328916835556    -0.206348959644
O                     5.078425302330    -3.628504473546     1.268187092148
O                     3.204099794373    -3.338566395949     2.940117927752
S                     3.656280318571    -3.712525236058     1.600250395685
H                     0.396894825073    -1.720020449637    -2.519872777250
H                     1.746126428347    -0.061210155504    -1.273014781132
H                     0.498319051271    -4.140067248160    -1.933527181943
H                    -3.742852979972    -8.175967719268    -5.003583467794
H                    -2.502559866369   -10.139270210575    -4.185728028755
H                     3.244887694250    -0.803466031159     0.594153213460
H                    -1.338873557345    -5.636480792908    -2.511922365920
H                     0.630192446385    -8.440039323760    -0.981458850049
H                    -4.382869045637    -5.484969615631    -3.783720362266
H                    -2.877737343385    -4.615816700892    -4.102215842585
H                    -3.618979363130    -5.604328948690    -5.370460165248
H                     0.607952556999   -10.213653655936    -2.642001093566
H                    -0.564020466057   -10.420331303421    -1.335043917747
H                    -0.858390281082   -11.156347645293    -2.908831346483
H                     1.945700734337    -7.178972554403     0.269952911762
