25
0 1 C12ClF3H7NO
C                     1.881358130210    -1.021905446501    -0.150116938205
C                     0.801683577102    -0.371238223650     0.456156179664
C                     5.377946541083    -2.466627373779     4.694179849924
C                     2.859439236832    -1.632842049666     0.632098590324
C                     0.705392851399    -0.346995160392     1.848477106255
C                     4.322280244721    -1.803308767388     4.065431263559
C                     5.978032085080    -3.558958686868     4.070957752217
C                     2.797717679179    -1.609448924385     2.037431169592
C                     1.690163609939    -0.967117565545     2.612831342851
C                     3.888368076734    -2.259942751739     2.812554199468
C                     5.475654159934    -3.915841666319     2.814591912736
C                     0.787342049176    -1.832996635510     4.619719165858
N                     4.482832060094    -3.306567050020     2.200826005405
O                     1.568773686336    -0.898280056105     4.020258902945
F                     1.138629201879    -3.095659535629     4.298164411540
F                    -0.522533941134    -1.696829210753     4.304778809167
F                     0.916050588855    -1.677548713167     5.944504099650
Cl                    6.211814893100    -5.276670521547     1.970013416149
H                     1.962213021266    -1.050754304156    -1.233117147828
H                     0.038016514156     0.112036822240    -0.146530048069
H                     5.733219578247    -2.131511262789     5.664890264142
H                     3.695721912247    -2.146410141320     0.170141855832
H                    -0.124837550173     0.139361713029     2.349900549173
H                     3.854874244401    -0.946298855643     4.532190831582
H                     6.796857077312    -4.107326964176     4.523030123177
