37
0 1 C16H15N3O2S
C                    -0.358039051736    -1.665522351413     1.303928176049
C                     0.338867358277    -0.883807281648     2.233701372455
C                     0.201461727639    -2.835785195435     0.775487336635
C                    -2.499777092755    -7.624658359692    -4.075342556919
C                    -2.647239863283    -6.456949573602    -3.325439472600
C                     1.621646162752    -1.257528039638     2.659737409717
C                    -0.327847613288    -7.934820621886    -3.128289692544
C                     1.479208951150    -3.211739213549     1.197260496916
C                    -0.458355895244    -6.755986001361    -2.361305476961
C                    -1.327135438418    -8.388518498235    -3.988692794398
C                    -1.649219380531    -5.993004646245    -2.459887031976
C                     2.156360397998    -2.417259045352     2.125446431571
C                     2.336221281235    -4.376497519182     0.833008550177
C                     0.688946462909    -6.435214476941    -1.514773247529
C                    -1.156386230026    -9.647623919886    -4.806355771686
C                    -1.877853267833    -4.724696097344    -1.680821430794
N                     3.511468455987    -4.473040688873     1.397527718129
N                     0.805124377286    -5.415781859671    -0.729226305037
N                     1.987817742156    -5.354021074111    -0.047408652922
O                     4.835844028873    -2.320262349624     1.944517763975
O                     3.818987864314    -3.659208208451     3.832848999876
S                     3.760942643622    -3.171454397154     2.454792711762
H                    -1.350955662626    -1.360477597978     0.985322468116
H                    -0.116619973144     0.019861941630     2.629123566144
H                    -0.335708577795    -3.438149397668     0.058920072332
H                    -3.304964066413    -7.944741218182    -4.733451979891
H                    -3.568524295216    -5.885895014181    -3.413192225639
H                     2.175481539159    -0.662775744658     3.379855918779
H                     0.591159853775    -8.511871378242    -3.042411819653
H                     1.515985301471    -7.156002262880    -1.579975600579
H                    -1.107519868517    -9.417794615973    -5.876763923825
H                    -0.239510384019   -10.179073555084    -4.537524376937
H                    -1.998002344962   -10.332547434761    -4.658575934048
H                    -1.822922900622    -4.907718518075    -0.603135906651
H                    -1.117671889882    -3.973591098118    -1.917283489491
H                    -2.861036298945    -4.305871713568    -1.910781303891
H                     2.693879060791    -6.080849396743    -0.182365574227
