25
0 1 C12ClF3H7NO
C                     2.034408133649    -0.861701432849    -0.005790214705
C                     0.852600272756    -0.438467896928     0.610474859007
C                     4.930460416714    -3.793839384140     4.538188118621
C                     3.040283389535    -1.454240137223     0.753987136445
C                     0.686806771900    -0.606188761730     1.986232459527
C                     3.811583791410    -3.225125645402     3.926148456143
C                     6.207477534427    -3.449339437174     4.099825665543
C                     2.887123841122    -1.669565672769     2.135427629240
C                     1.691851875745    -1.230219722679     2.724144393544
C                     4.003674769627    -2.310618306630     2.881822951292
C                     6.280683237696    -2.543993579406     3.035456721862
C                     0.540016104055    -1.998990324106     4.663842093978
N                     5.240865163782    -1.993233061266     2.443306057845
O                     1.580205268780    -1.320341363961     4.130037323852
F                     0.360012380014    -3.214354322655     4.091183587848
F                    -0.640433290145    -1.341299713145     4.561704849115
F                     0.795039540259    -2.180401109183     5.966763843765
Cl                    7.870416109317    -2.093977003700     2.421513963507
H                     2.174868593196    -0.720845111706    -1.073710133265
H                     0.067394025136     0.037927353088     0.030314117601
H                     4.806726492073    -4.506794871102     5.348795443864
H                     3.971809935253    -1.764022783562     0.292289571784
H                    -0.205248461549    -0.245281643597     2.484763811403
H                     2.816507137356    -3.509987532396     4.238737292188
H                     7.105026272919    -3.862401742597     4.546326652450
