42
0 1 C19FH17N4O
C                     1.613389003267     0.654429212434    -6.351949204857
C                     0.316699061275     0.269108434894    -6.708682845208
C                     2.202235648825     0.120210509311    -5.200138833673
C                     3.098946593957    -1.924306052084     0.126191233104
C                    -0.391822026496    -0.646402975301    -5.928022266870
C                     1.507536024200    -0.792829161759    -4.405823652347
C                     2.462114312397    -0.683969429531     0.097407744710
C                     0.339593442327    -1.831290435889    -0.215116685177
C                     2.399043421650    -3.127067954658    -0.040623532144
C                     0.213570556369    -1.171476517246    -4.781922956064
C                     1.009356585753    -3.064541497301    -0.249970984491
C                     1.078955237234    -0.670974985697    -0.064914089056
C                    -0.910658865757    -3.492480588107    -2.454840004329
C                    -2.103934446605    -3.234923160370    -3.182781816356
C                    -0.724633576026    -4.477424572807    -1.359278953387
C                     3.134184403872    -4.451610943338     0.069092932696
C                     2.254387459965    -5.669764827644    -0.246270215419
C                     0.828830473845    -5.445520221882     0.262528920629
C                    -3.474551926623    -3.802267414946    -3.005238258334
N                     0.083134517687    -2.770204041462    -2.988250331054
N                    -1.816244985854    -2.340377523716    -4.132153223054
N                    -0.499241528860    -2.099566019938    -3.976005675521
N                     0.279462279155    -4.270481664662    -0.429096353739
O                    -1.439670089411    -5.482689041773    -1.331985151759
F                     0.426108899672     0.521143856103    -0.060266352074
H                     2.159113908113     1.367163704409    -6.964047590130
H                    -0.148487241733     0.680242360352    -7.600436622275
H                     3.206169940913     0.419879991767    -4.911976590127
H                     4.175398240890    -1.962657567165     0.279029846122
H                    -1.397542826138    -0.953758037061    -6.190268712703
H                     1.946535548430    -1.206893972240    -3.505159943955
H                     3.006565217816     0.247163297214     0.217491198573
H                    -0.737493884021    -1.771504613765    -0.321552394188
H                     4.014848526350    -4.442823712333    -0.582440172241
H                     3.515707170736    -4.538879594482     1.094680896947
H                     2.205568237562    -5.838403682611    -1.327461575625
H                     2.680043246358    -6.571715854852     0.205800160542
H                     0.176435376274    -6.290538697569     0.049698106374
H                     0.817763542125    -5.261241269865     1.343060603232
H                    -3.811694431782    -3.692048215881    -1.970524072158
H                    -4.177378734227    -3.294102799416    -3.668700732134
H                    -3.473611488760    -4.873333101520    -3.224124606164
