
  -OEChem-05262117483D

 38 40  0     0  0  0  0  0  0999 V2000
   -0.5146   -4.2686   -5.1021 C   0  0  0  0  0  0  0  0  0  0  0  0
    0.9493    0.5201   -0.9521 C   0  0  0  0  0  0  0  0  0  0  0  0
   -0.2048   -0.2501   -0.8581 C   0  0  0  0  0  0  0  0  0  0  0  0
   -1.1843   -2.1569   -5.2318 C   0  0  0  0  0  0  0  0  0  0  0  0
    0.0881   -1.9264   -4.7596 C   0  0  0  0  0  0  0  0  0  0  0  0
    0.6380   -0.2963   -2.9291 C   0  0  0  0  0  0  0  0  0  0  0  0
    1.6387    1.3677    0.0559 C   0  0  0  0  0  0  0  0  0  0  0  0
   -1.1507   -0.6427    0.2371 C   0  0  0  0  0  0  0  0  0  0  0  0
    0.4410    0.2156    2.0024 C   0  0  0  0  0  0  0  0  0  0  0  0
   -1.0385    0.1581    1.5493 C   0  0  0  0  0  0  0  0  0  0  0  0
   -2.2235   -1.1201   -5.5544 C   0  0  0  0  0  0  0  0  0  0  0  0
   -1.8303   -0.5995    2.6302 C   0  0  0  0  0  0  0  0  0  0  0  0
   -1.6193    1.5704    1.3796 C   0  0  0  0  0  0  0  0  0  0  0  0
    0.7412   -0.6211   -4.3943 C   0  0  0  0  0  0  0  0  0  0  0  0
   -1.5090   -3.4921   -5.4225 N   0  0  0  0  0  0  0  0  0  0  0  0
    1.4508    0.4738   -2.2481 N   0  0  0  0  0  0  0  0  0  0  0  0
   -0.3867   -0.7546   -2.1318 N   0  0  0  0  0  0  0  0  0  0  0  0
    1.2517    1.2475    1.3733 N   0  0  0  0  0  0  0  0  0  0  0  0
    2.5041    2.1819   -0.2624 O   0  0  0  0  0  0  0  0  0  0  0  0
    0.9132   -3.4483   -4.5338 S   0  0  0  0  0  0  0  0  0  0  0  0
   -0.5430   -5.3508   -5.1771 H   0  0  0  0  0  0  0  0  0  0  0  0
   -2.1815   -0.5648   -0.1332 H   0  0  0  0  0  0  0  0  0  0  0  0
   -0.9907   -1.7065    0.4639 H   0  0  0  0  0  0  0  0  0  0  0  0
    0.4635    0.4284    3.0750 H   0  0  0  0  0  0  0  0  0  0  0  0
    0.8938   -0.7774    1.8679 H   0  0  0  0  0  0  0  0  0  0  0  0
   -2.4755   -1.1541   -6.6194 H   0  0  0  0  0  0  0  0  0  0  0  0
   -3.1456   -1.3206   -4.9991 H   0  0  0  0  0  0  0  0  0  0  0  0
   -1.8872   -0.1103   -5.3113 H   0  0  0  0  0  0  0  0  0  0  0  0
   -1.8764   -0.0203    3.5587 H   0  0  0  0  0  0  0  0  0  0  0  0
   -1.3694   -1.5678    2.8589 H   0  0  0  0  0  0  0  0  0  0  0  0
   -2.8589   -0.7885    2.3039 H   0  0  0  0  0  0  0  0  0  0  0  0
   -1.4756    2.1617    2.2904 H   0  0  0  0  0  0  0  0  0  0  0  0
   -2.6955    1.5157    1.1808 H   0  0  0  0  0  0  0  0  0  0  0  0
   -1.1468    2.1106    0.5565 H   0  0  0  0  0  0  0  0  0  0  0  0
    1.8017   -0.6145   -4.6581 H   0  0  0  0  0  0  0  0  0  0  0  0
    0.2795    0.1828   -4.9778 H   0  0  0  0  0  0  0  0  0  0  0  0
   -1.1170   -1.3949   -2.4215 H   0  0  0  0  0  0  0  0  0  0  0  0
    1.7859    1.8589    1.9784 H   0  0  0  0  0  0  0  0  0  0  0  0
  1 15  2  0  0  0  0
  1 20  1  0  0  0  0
  1 21  1  0  0  0  0
  2  3  2  0  0  0  0
  2  7  1  0  0  0  0
  2 16  1  0  0  0  0
  3  8  1  0  0  0  0
  3 17  1  0  0  0  0
  4  5  2  0  0  0  0
  4 11  1  0  0  0  0
  4 15  1  0  0  0  0
  5 14  1  0  0  0  0
  5 20  1  0  0  0  0
  6 14  1  0  0  0  0
  6 16  2  0  0  0  0
  6 17  1  0  0  0  0
  7 18  1  0  0  0  0
  7 19  2  0  0  0  0
  8 10  1  0  0  0  0
  8 22  1  0  0  0  0
  8 23  1  0  0  0  0
  9 10  1  0  0  0  0
  9 18  1  0  0  0  0
  9 24  1  0  0  0  0
  9 25  1  0  0  0  0
 10 12  1  0  0  0  0
 10 13  1  0  0  0  0
 11 26  1  0  0  0  0
 11 27  1  0  0  0  0
 11 28  1  0  0  0  0
 12 29  1  0  0  0  0
 12 30  1  0  0  0  0
 12 31  1  0  0  0  0
 13 32  1  0  0  0  0
 13 33  1  0  0  0  0
 13 34  1  0  0  0  0
 14 35  1  0  0  0  0
 14 36  1  0  0  0  0
 17 37  1  0  0  0  0
 18 38  1  0  0  0  0
M  END
$$$$
