
  -OEChem-05262117483D

 18 19  0     0  0  0  0  0  0999 V2000
    0.5648   -0.9740   -1.8459 C   0  0  0  0  0  0  0  0  0  0  0  0
    0.1816   -0.9209   -0.5069 C   0  0  0  0  0  0  0  0  0  0  0  0
    0.7989   -2.2034   -2.4929 C   0  0  0  0  0  0  0  0  0  0  0  0
    0.0096   -2.0937    0.2652 C   0  0  0  0  0  0  0  0  0  0  0  0
    0.6271   -3.3379   -1.7269 C   0  0  0  0  0  0  0  0  0  0  0  0
    0.2451   -3.2988   -0.3903 C   0  0  0  0  0  0  0  0  0  0  0  0
   -0.3975   -2.0622    1.6911 C   0  0  0  0  0  0  0  0  0  0  0  0
    0.4990   -5.4286   -0.9774 C   0  0  0  0  0  0  0  0  0  0  0  0
   -0.5582   -3.0401    2.3946 O   0  0  0  0  0  0  0  0  0  0  0  0
    0.7885   -4.6605   -2.1050 O   0  0  0  0  0  0  0  0  0  0  0  0
    0.1621   -4.5883    0.0860 O   0  0  0  0  0  0  0  0  0  0  0  0
   -0.5797   -0.7923    2.1509 O   0  0  0  0  0  0  0  0  0  0  0  0
    1.5623   -6.1881   -0.6475 F   0  0  0  0  0  0  0  0  0  0  0  0
   -0.5179   -6.2732   -1.2395 F   0  0  0  0  0  0  0  0  0  0  0  0
    0.6862   -0.0514   -2.4046 H   0  0  0  0  0  0  0  0  0  0  0  0
    0.0068    0.0361   -0.0296 H   0  0  0  0  0  0  0  0  0  0  0  0
    1.0976   -2.2612   -3.5344 H   0  0  0  0  0  0  0  0  0  0  0  0
   -0.8424   -0.8843    3.0867 H   0  0  0  0  0  0  0  0  0  0  0  0
  1  2  1  0  0  0  0
  1  3  2  0  0  0  0
  1 15  1  0  0  0  0
  2  4  2  0  0  0  0
  2 16  1  0  0  0  0
  3  5  1  0  0  0  0
  3 17  1  0  0  0  0
  4  6  1  0  0  0  0
  4  7  1  0  0  0  0
  5  6  2  0  0  0  0
  5 10  1  0  0  0  0
  6 11  1  0  0  0  0
  7  9  2  0  0  0  0
  7 12  1  0  0  0  0
  8 10  1  0  0  0  0
  8 11  1  0  0  0  0
  8 13  1  0  0  0  0
  8 14  1  0  0  0  0
 12 18  1  0  0  0  0
M  END
$$$$
