
  -OEChem-05262117483D

 22 22  0     0  0  0  0  0  0999 V2000
    1.7906   -1.0984   -0.5671 C   0  0  0  0  0  0  0  0  0  0  0  0
    1.1317   -0.8695    2.1427 C   0  0  0  0  0  0  0  0  0  0  0  0
    0.6204   -0.4334   -0.2063 C   0  0  0  0  0  0  0  0  0  0  0  0
    2.6386   -1.6316    0.4134 C   0  0  0  0  0  0  0  0  0  0  0  0
    0.3006   -0.3274    1.1679 C   0  0  0  0  0  0  0  0  0  0  0  0
    2.3059   -1.5177    1.7674 C   0  0  0  0  0  0  0  0  0  0  0  0
   -0.1875    0.2059   -2.4874 C   0  0  0  0  0  0  0  0  0  0  0  0
   -1.3604    0.8838   -3.1742 C   0  0  0  0  0  0  0  0  0  0  0  0
   -0.2855    0.1473   -1.1094 N   0  0  0  0  0  0  0  0  0  0  0  0
    3.8637   -2.3013   -0.0341 N   0  3  0  0  0  0  0  0  0  0  0  0
    3.9232   -2.6370   -1.2224 O   0  5  0  0  0  0  0  0  0  0  0  0
    0.7539   -0.2624   -3.1166 O   0  0  0  0  0  0  0  0  0  0  0  0
    4.7623   -2.4790    0.7940 O   0  0  0  0  0  0  0  0  0  0  0  0
   -0.8649    0.3293    1.4673 O   0  0  0  0  0  0  0  0  0  0  0  0
    3.0572   -2.0391    2.7468 F   0  0  0  0  0  0  0  0  0  0  0  0
    2.0570   -1.2016   -1.6093 H   0  0  0  0  0  0  0  0  0  0  0  0
    0.8874   -0.8049    3.1996 H   0  0  0  0  0  0  0  0  0  0  0  0
   -0.9713    1.5653   -3.9334 H   0  0  0  0  0  0  0  0  0  0  0  0
   -2.0140    1.4355   -2.4927 H   0  0  0  0  0  0  0  0  0  0  0  0
   -1.9529    0.1201   -3.6873 H   0  0  0  0  0  0  0  0  0  0  0  0
   -1.0961    0.5743   -0.6791 H   0  0  0  0  0  0  0  0  0  0  0  0
   -0.9973    0.3555    2.4285 H   0  0  0  0  0  0  0  0  0  0  0  0
  1  3  1  0  0  0  0
  1  4  2  0  0  0  0
  1 16  1  0  0  0  0
  2  5  1  0  0  0  0
  2  6  2  0  0  0  0
  2 17  1  0  0  0  0
  3  5  2  0  0  0  0
  3  9  1  0  0  0  0
  4  6  1  0  0  0  0
  4 10  1  0  0  0  0
  5 14  1  0  0  0  0
  6 15  1  0  0  0  0
  7  8  1  0  0  0  0
  7  9  1  0  0  0  0
  7 12  2  0  0  0  0
  8 18  1  0  0  0  0
  8 19  1  0  0  0  0
  8 20  1  0  0  0  0
  9 21  1  0  0  0  0
 10 11  1  0  0  0  0
 10 13  2  0  0  0  0
 14 22  1  0  0  0  0
M  CHG  2  10   1  11  -1
M  END
$$$$
