
  -OEChem-05262117483D

 38 40  0     0  0  0  0  0  0999 V2000
   -1.2778   -3.0307   -6.2423 C   0  0  0  0  0  0  0  0  0  0  0  0
    1.0136    0.7086   -1.2158 C   0  0  0  0  0  0  0  0  0  0  0  0
   -0.1520   -0.0483   -1.1717 C   0  0  0  0  0  0  0  0  0  0  0  0
    0.5291   -2.4861   -5.0730 C   0  0  0  0  0  0  0  0  0  0  0  0
    0.0392   -1.2156   -5.2704 C   0  0  0  0  0  0  0  0  0  0  0  0
    0.5717    0.2089   -3.2727 C   0  0  0  0  0  0  0  0  0  0  0  0
    1.7818    1.3783   -0.1339 C   0  0  0  0  0  0  0  0  0  0  0  0
   -1.0452   -0.5870   -0.0945 C   0  0  0  0  0  0  0  0  0  0  0  0
    0.6609   -0.0307    1.6849 C   0  0  0  0  0  0  0  0  0  0  0  0
   -0.8419    0.0047    1.3141 C   0  0  0  0  0  0  0  0  0  0  0  0
    1.7768   -2.8376   -4.3153 C   0  0  0  0  0  0  0  0  0  0  0  0
   -1.5921   -0.8944    2.3130 C   0  0  0  0  0  0  0  0  0  0  0  0
   -1.3959    1.4357    1.3915 C   0  0  0  0  0  0  0  0  0  0  0  0
    0.6012    0.0916   -4.7711 C   0  0  0  0  0  0  0  0  0  0  0  0
   -0.2287   -3.5021   -5.6319 N   0  0  0  0  0  0  0  0  0  0  0  0
    1.4407    0.8515   -2.5317 N   0  0  0  0  0  0  0  0  0  0  0  0
   -0.4171   -0.3502   -2.4943 N   0  0  0  0  0  0  0  0  0  0  0  0
    1.4614    1.0708    1.1712 N   0  0  0  0  0  0  0  0  0  0  0  0
    2.6547    2.2104   -0.3767 O   0  0  0  0  0  0  0  0  0  0  0  0
   -1.4404   -1.2954   -6.1918 S   0  0  0  0  0  0  0  0  0  0  0  0
   -2.0088   -3.6448   -6.7578 H   0  0  0  0  0  0  0  0  0  0  0  0
   -2.0925   -0.4381   -0.3889 H   0  0  0  0  0  0  0  0  0  0  0  0
   -0.8987   -1.6752   -0.0394 H   0  0  0  0  0  0  0  0  0  0  0  0
    0.7469    0.0184    2.7741 H   0  0  0  0  0  0  0  0  0  0  0  0
    1.0810   -0.9997    1.3784 H   0  0  0  0  0  0  0  0  0  0  0  0
    1.5380   -3.5044   -3.4801 H   0  0  0  0  0  0  0  0  0  0  0  0
    2.4781   -3.3699   -4.9660 H   0  0  0  0  0  0  0  0  0  0  0  0
    2.2733   -1.9515   -3.9156 H   0  0  0  0  0  0  0  0  0  0  0  0
   -1.5728   -0.4616    3.3189 H   0  0  0  0  0  0  0  0  0  0  0  0
   -1.1439   -1.8937    2.3667 H   0  0  0  0  0  0  0  0  0  0  0  0
   -2.6415   -1.0147    2.0220 H   0  0  0  0  0  0  0  0  0  0  0  0
   -1.1874    1.8805    2.3706 H   0  0  0  0  0  0  0  0  0  0  0  0
   -2.4824    1.4292    1.2498 H   0  0  0  0  0  0  0  0  0  0  0  0
   -0.9561    2.0861    0.6324 H   0  0  0  0  0  0  0  0  0  0  0  0
    1.6425    0.2096   -5.0834 H   0  0  0  0  0  0  0  0  0  0  0  0
    0.0541    0.9312   -5.2147 H   0  0  0  0  0  0  0  0  0  0  0  0
   -1.1767   -0.9310   -2.8298 H   0  0  0  0  0  0  0  0  0  0  0  0
    2.0487    1.5696    1.8281 H   0  0  0  0  0  0  0  0  0  0  0  0
  1 15  2  0  0  0  0
  1 20  1  0  0  0  0
  1 21  1  0  0  0  0
  2  3  2  0  0  0  0
  2  7  1  0  0  0  0
  2 16  1  0  0  0  0
  3  8  1  0  0  0  0
  3 17  1  0  0  0  0
  4  5  2  0  0  0  0
  4 11  1  0  0  0  0
  4 15  1  0  0  0  0
  5 14  1  0  0  0  0
  5 20  1  0  0  0  0
  6 14  1  0  0  0  0
  6 16  2  0  0  0  0
  6 17  1  0  0  0  0
  7 18  1  0  0  0  0
  7 19  2  0  0  0  0
  8 10  1  0  0  0  0
  8 22  1  0  0  0  0
  8 23  1  0  0  0  0
  9 10  1  0  0  0  0
  9 18  1  0  0  0  0
  9 24  1  0  0  0  0
  9 25  1  0  0  0  0
 10 12  1  0  0  0  0
 10 13  1  0  0  0  0
 11 26  1  0  0  0  0
 11 27  1  0  0  0  0
 11 28  1  0  0  0  0
 12 29  1  0  0  0  0
 12 30  1  0  0  0  0
 12 31  1  0  0  0  0
 13 32  1  0  0  0  0
 13 33  1  0  0  0  0
 13 34  1  0  0  0  0
 14 35  1  0  0  0  0
 14 36  1  0  0  0  0
 17 37  1  0  0  0  0
 18 38  1  0  0  0  0
M  END
$$$$
