
  -OEChem-05262117483D

 20 21  0     0  0  0  0  0  0999 V2000
    2.0269   -0.9531   -0.2076 C   0  0  0  0  0  0  0  0  0  0  0  0
    1.0126   -0.2047    0.3927 C   0  0  0  0  0  0  0  0  0  0  0  0
    2.6710   -1.8168    1.9759 C   0  0  0  0  0  0  0  0  0  0  0  0
    2.0540   -4.3974    5.3727 C   0  0  0  0  0  0  0  0  0  0  0  0
    1.9257   -3.8928    6.6470 C   0  0  0  0  0  0  0  0  0  0  0  0
    1.6659   -1.0521    2.5925 C   0  0  0  0  0  0  0  0  0  0  0  0
    2.8381   -1.7437    0.6010 C   0  0  0  0  0  0  0  0  0  0  0  0
    0.8506   -0.2550    1.7733 C   0  0  0  0  0  0  0  0  0  0  0  0
    1.7175   -2.2762    4.8510 C   0  0  0  0  0  0  0  0  0  0  0  0
    1.5050   -1.0215    4.0790 C   0  0  0  0  0  0  0  0  0  0  0  0
    1.9342   -3.4773    4.3673 N   0  0  0  0  0  0  0  0  0  0  0  0
    1.2061    0.0047    4.6796 O   0  0  0  0  0  0  0  0  0  0  0  0
    3.8263   -2.4729    0.0228 F   0  0  0  0  0  0  0  0  0  0  0  0
   -0.1533    0.4642    2.3139 F   0  0  0  0  0  0  0  0  0  0  0  0
    1.6400   -2.1958    6.6014 S   0  0  0  0  0  0  0  0  0  0  0  0
    2.1878   -0.9303   -1.2808 H   0  0  0  0  0  0  0  0  0  0  0  0
    0.3463    0.4184   -0.1952 H   0  0  0  0  0  0  0  0  0  0  0  0
    3.3175   -2.4592    2.5603 H   0  0  0  0  0  0  0  0  0  0  0  0
    2.2344   -5.4386    5.1283 H   0  0  0  0  0  0  0  0  0  0  0  0
    1.9824   -4.4320    7.5841 H   0  0  0  0  0  0  0  0  0  0  0  0
  1  2  1  0  0  0  0
  1  7  2  0  0  0  0
  1 16  1  0  0  0  0
  2  8  2  0  0  0  0
  2 17  1  0  0  0  0
  3  6  2  0  0  0  0
  3  7  1  0  0  0  0
  3 18  1  0  0  0  0
  4  5  2  0  0  0  0
  4 11  1  0  0  0  0
  4 19  1  0  0  0  0
  5 15  1  0  0  0  0
  5 20  1  0  0  0  0
  6  8  1  0  0  0  0
  6 10  1  0  0  0  0
  7 13  1  0  0  0  0
  8 14  1  0  0  0  0
  9 10  1  0  0  0  0
  9 11  2  0  0  0  0
  9 15  1  0  0  0  0
 10 12  2  0  0  0  0
M  END
$$$$
