
  -OEChem-05262117483D

 20 21  0     0  0  0  0  0  0999 V2000
    1.7786   -0.9948   -0.1784 C   0  0  0  0  0  0  0  0  0  0  0  0
    1.0109   -0.1759    0.6507 C   0  0  0  0  0  0  0  0  0  0  0  0
    2.8035   -2.0132    1.7815 C   0  0  0  0  0  0  0  0  0  0  0  0
    2.5436    1.1690    6.7360 C   0  0  0  0  0  0  0  0  0  0  0  0
    3.0348    2.0775    5.8258 C   0  0  0  0  0  0  0  0  0  0  0  0
    2.0595   -1.1701    2.6220 C   0  0  0  0  0  0  0  0  0  0  0  0
    2.6612   -1.9013    0.4066 C   0  0  0  0  0  0  0  0  0  0  0  0
    1.1638   -0.2740    2.0302 C   0  0  0  0  0  0  0  0  0  0  0  0
    2.4147   -0.1028    4.9357 C   0  0  0  0  0  0  0  0  0  0  0  0
    2.2230   -1.3295    4.1091 C   0  0  0  0  0  0  0  0  0  0  0  0
    2.2093   -0.0547    6.2284 N   0  0  0  0  0  0  0  0  0  0  0  0
    2.2664   -2.4409    4.6119 O   0  0  0  0  0  0  0  0  0  0  0  0
    3.4003   -2.7030   -0.3984 F   0  0  0  0  0  0  0  0  0  0  0  0
    0.3784    0.5029    2.8165 F   0  0  0  0  0  0  0  0  0  0  0  0
    3.0645    1.3827    4.2523 S   0  0  0  0  0  0  0  0  0  0  0  0
    1.6926   -0.9444   -1.2592 H   0  0  0  0  0  0  0  0  0  0  0  0
    0.2915    0.5271    0.2431 H   0  0  0  0  0  0  0  0  0  0  0  0
    3.4833   -2.7430    2.2093 H   0  0  0  0  0  0  0  0  0  0  0  0
    2.4144    1.3625    7.7955 H   0  0  0  0  0  0  0  0  0  0  0  0
    3.3757    3.0894    6.0038 H   0  0  0  0  0  0  0  0  0  0  0  0
  1  2  1  0  0  0  0
  1  7  2  0  0  0  0
  1 16  1  0  0  0  0
  2  8  2  0  0  0  0
  2 17  1  0  0  0  0
  3  6  2  0  0  0  0
  3  7  1  0  0  0  0
  3 18  1  0  0  0  0
  4  5  2  0  0  0  0
  4 11  1  0  0  0  0
  4 19  1  0  0  0  0
  5 15  1  0  0  0  0
  5 20  1  0  0  0  0
  6  8  1  0  0  0  0
  6 10  1  0  0  0  0
  7 13  1  0  0  0  0
  8 14  1  0  0  0  0
  9 10  1  0  0  0  0
  9 11  2  0  0  0  0
  9 15  1  0  0  0  0
 10 12  2  0  0  0  0
M  END
$$$$
