20
0 1 Br2C9H6N2O
C                     4.524952915031     0.815084841793    -1.314741578967
C                     1.620175690410    -2.071477727521     0.702976093786
C                     2.083469036576    -0.148551859562    -0.413638267191
C                     1.018342379922    -0.937577443700     0.187080765428
C                     3.290722648232    -0.869708529643    -0.184776780770
C                     4.524853509092    -0.389083545015    -0.628695451682
C                     2.222440851836     1.023332441642    -1.194464880170
C                    -0.410252908903    -0.602727381844     0.420230989720
C                    -1.384088093382    -1.764814422086     0.538761255551
N                     3.388557798791     1.484781827483    -1.598270177520
N                     2.978842941400    -2.026128653469     0.489039336203
O                    -0.788137778240     0.554520533893     0.532181762453
Br                    6.126161110883    -1.380619940029    -0.302227006499
Br                    0.697842402788     1.995601176909    -1.824790171202
H                     5.452891083624     1.254582914456    -1.670956429856
H                     1.180873773156    -2.897512245947     1.244627403048
H                    -1.099080582112    -2.446032098371     1.347969065826
H                    -1.397270617381    -2.346431057001    -0.389187231997
H                    -2.381307983933    -1.372430287681     0.742102154967
H                     3.658187848954    -2.710113799564     0.796980260637
