44
0 1 C16H21N3O4
C                     6.375508126650     0.025270116847     0.986618962866
C                     4.146821793079    -0.498212871864     0.168238310154
C                     5.276759730241    -0.880428633327     0.862622957919
C                     6.328592471093     1.259719521221     0.396441452498
C                     4.054557698483     0.810629407808    -0.444876391703
C                    -2.315619152982     1.508920764542     0.002222898834
C                     3.024875892328    -1.478087709309    -0.086232675627
C                    -0.432924310554    -1.491580775662    -0.316381597283
C                     0.079959729595     0.140944746655     1.545385916328
C                     0.736175280248    -2.204125509981     0.380404054490
C                     1.589106204092    -0.149677641744     1.479810990771
C                    -0.200034303864     1.038537179309    -0.830973604506
C                    -0.607267732895    -0.045367029034     0.184786210708
C                     5.380158189609    -2.232324426894     1.526927458497
C                     7.436162039933     2.272717989206     0.437992489414
C                    -1.249052023043     3.299756179478    -1.305219331400
N                     5.196548482718     1.606702124237    -0.290280788634
N                    -1.181261638884     2.071901148666    -0.536804961488
N                     1.852011713683    -1.279521152524     0.580040078418
O                     3.076742529869     1.267312266967    -1.058682839300
O                    -3.405964268203     2.020962026481     0.157996032323
O                     3.213774450268    -2.436118180292    -0.842998632733
O                    -2.029595536798     0.216898842895     0.377258672776
H                     7.263547598293    -0.268239224283     1.535450270233
H                    -0.268564657684    -1.492548021643    -1.397165252907
H                    -1.361822819366    -2.036842190065    -0.125123618081
H                    -0.415369163513    -0.521584824765     2.261545158542
H                    -0.073662811835     1.164129145681     1.899961402677
H                     0.427002611188    -2.592808235010     1.358079848411
H                     1.097172919434    -3.041330075599    -0.214734862652
H                     2.112083431684     0.729350995063     1.107985216372
H                     1.965817522420    -0.365166857093     2.488623016132
H                     0.827617070501     1.382882098519    -0.707048858562
H                    -0.309481422795     0.674776753531    -1.863882582005
H                     4.959720270433    -2.185887004657     2.539024684774
H                     6.424454452128    -2.542130716871     1.619603036000
H                     4.836995169226    -2.994228731758     0.967111480007
H                     7.794419604815     2.501988921201    -0.572185125365
H                     8.277900236051     1.896180965976     1.021160767163
H                     7.095598779824     3.210095472713     0.892710540048
H                    -0.327895445616     3.874710526228    -1.170463973696
H                    -2.097811596397     3.884514359572    -0.947981427502
H                    -1.383516465576     3.097200674295    -2.377337276274
H                     5.129687032110     2.516615532766    -0.737391424730
