36
0 1 C16H15N5
C                    -1.248353710212     7.565808562093     2.467239467767
C                     0.098149995124     2.038173536425    -0.305055077682
C                    -0.613834901456     0.842623345547    -0.036789907841
C                    -0.547539448209     3.137573244146    -0.834556959738
C                    -1.964067337589     0.760899101002    -0.307927732046
C                    -4.027698584183     3.989205450697    -1.914200174972
C                    -1.063177019640     7.076997327726     1.152859189832
C                    -1.939421469930     3.082651497231    -1.120993847448
C                    -2.685283238475     4.173002438694    -1.668366562502
C                    -2.657369839126     1.871978935118    -0.856129858293
C                    -4.657137894978     2.739904079352    -1.627781972509
C                     0.128966423609     7.042546753581     0.361468522236
C                    -2.051320780180     6.482730224747     0.354615873153
C                    -6.127209066972     2.559856274849    -1.914711730581
C                     1.485183520612     7.543608551502     0.742832435393
C                    -2.040322091153     5.510436168351    -1.974624364732
N                    -1.426910325086     7.959356235474     3.553254309999
N                    -3.995002370077     1.723244371832    -1.110772477409
N                    -0.102723652589     6.475194778310    -0.813755516889
N                    -1.444998464705     6.146589684887    -0.808243617646
N                    -3.405599977320     6.322900625140     0.584618546104
H                     1.162033032415     2.090136944603    -0.089751751704
H                    -0.090339847505    -0.012419688591     0.382891711266
H                     0.013062263186     4.046686362103    -1.024770734717
H                    -2.533072552426    -0.143861412687    -0.116289830066
H                    -4.624691981693     4.799089057311    -2.328498818279
H                    -6.333733872203     2.686357865095    -2.983736592324
H                    -6.445339309181     1.561973288211    -1.609665400198
H                    -6.727913674221     3.304279332269    -1.379499333200
H                     1.843925261474     7.046902935087     1.650281232813
H                     2.192400302978     7.355788197421    -0.067491563080
H                     1.459917129172     8.618803010968     0.948321048144
H                    -1.224189716613     5.398772834094    -2.691519554860
H                    -2.784720144950     6.184315855383    -2.411312924457
H                    -3.791297005149     5.442336046187     0.255884640364
H                    -3.660136369403     6.505955965985     1.550494852417
