44
0 1 C16H21N3O4
C                    -2.261423495410     5.364552880669    -0.494764393318
C                    -1.995540591411     3.336388112046    -1.805053110103
C                    -2.311033525528     3.939496829572    -0.604314696514
C                    -1.928393570321     6.133167856370    -1.578011739282
C                    -1.607202508916     4.113840998053    -2.964709401286
C                    -0.473488442556    -0.566489871510     1.815307728346
C                    -2.187696250957     1.849265019371    -1.963248398813
C                     1.030969685900     1.210278023460    -0.832436324401
C                    -0.016514313677    -1.021251605723    -1.339646235449
C                     0.293761134231     1.563267443998    -2.139051429487
C                    -1.224779505781    -0.383981916863    -2.051356721896
C                     1.539948826868    -0.811349379862     0.679758560087
C                     0.520459831057    -0.107029990894    -0.234333390450
C                    -2.739859533214     3.128847799872     0.594086912847
C                    -1.875656901945     7.634235572895    -1.577631779461
C                     1.229690032166    -1.963872155866     2.918408956570
N                    -1.620937832596     5.503362571907    -2.753918803308
N                     0.688914183099    -1.304345919122     1.745319337849
N                    -1.074978597498     1.071711536776    -2.106363153039
O                    -1.263776892232     3.669310868166    -4.068356465219
O                    -1.298257735314    -0.557102389504     2.704912209838
O                    -3.322697620259     1.369493883339    -1.908186372312
O                    -0.581993017498     0.194135761292     0.679087658636
H                    -2.502993892226     5.846647173449     0.446129922555
H                     2.106363724551     1.127557248267    -1.030666858949
H                     0.893541565231     1.995759787195    -0.083534459239
H                    -0.308743056541    -1.989294723377    -0.921168933714
H                     0.801980090968    -1.208828157279    -2.044918101063
H                     0.301567387106     2.634934069504    -2.315051737426
H                     0.800038508032     1.108103376352    -2.998692653745
H                    -1.331962233094    -0.797550263870    -3.062361916914
H                    -2.147392849859    -0.592916478693    -1.510621196131
H                     2.057727523377    -1.624824353453     0.160785002603
H                     2.295982513841    -0.108030839628     1.063725109644
H                    -3.793467811778     2.849875348310     0.489235528654
H                    -2.624473797121     3.702997119916     1.517385070445
H                    -2.175596121900     2.198224252731     0.685928771655
H                    -0.876898560948     7.994362466857    -1.850829806966
H                    -2.121703021399     8.025873070007    -0.589317962533
H                    -2.589033566340     8.050604415661    -2.298326837677
H                     1.700705481447    -2.910297177940     2.634748550557
H                     0.408682035770    -2.163680950862     3.607987246484
H                     1.975190367385    -1.335492236680     3.426085247370
H                    -1.361645153409     6.047080027129    -3.571868980943
