
  -OEChem-05262117483D

 44 46  0     0  0  0  0  0  0999 V2000
   -2.2614    5.3646   -0.4948 C   0  0  0  0  0  0  0  0  0  0  0  0
   -1.9955    3.3364   -1.8051 C   0  0  0  0  0  0  0  0  0  0  0  0
   -2.3110    3.9395   -0.6043 C   0  0  0  0  0  0  0  0  0  0  0  0
   -1.9284    6.1332   -1.5780 C   0  0  0  0  0  0  0  0  0  0  0  0
   -1.6072    4.1138   -2.9647 C   0  0  0  0  0  0  0  0  0  0  0  0
   -0.4735   -0.5665    1.8153 C   0  0  0  0  0  0  0  0  0  0  0  0
   -2.1877    1.8493   -1.9632 C   0  0  0  0  0  0  0  0  0  0  0  0
    1.0310    1.2103   -0.8324 C   0  0  0  0  0  0  0  0  0  0  0  0
   -0.0165   -1.0213   -1.3396 C   0  0  0  0  0  0  0  0  0  0  0  0
    0.2938    1.5633   -2.1391 C   0  0  0  0  0  0  0  0  0  0  0  0
   -1.2248   -0.3840   -2.0514 C   0  0  0  0  0  0  0  0  0  0  0  0
    1.5399   -0.8113    0.6798 C   0  0  0  0  0  0  0  0  0  0  0  0
    0.5205   -0.1070   -0.2343 C   0  0  0  0  0  0  0  0  0  0  0  0
   -2.7399    3.1288    0.5941 C   0  0  0  0  0  0  0  0  0  0  0  0
   -1.8757    7.6342   -1.5776 C   0  0  0  0  0  0  0  0  0  0  0  0
    1.2297   -1.9639    2.9184 C   0  0  0  0  0  0  0  0  0  0  0  0
   -1.6209    5.5034   -2.7539 N   0  0  0  0  0  0  0  0  0  0  0  0
    0.6889   -1.3043    1.7453 N   0  0  0  0  0  0  0  0  0  0  0  0
   -1.0750    1.0717   -2.1064 N   0  0  0  0  0  0  0  0  0  0  0  0
   -1.2638    3.6693   -4.0684 O   0  0  0  0  0  0  0  0  0  0  0  0
   -1.2983   -0.5571    2.7049 O   0  0  0  0  0  0  0  0  0  0  0  0
   -3.3227    1.3695   -1.9082 O   0  0  0  0  0  0  0  0  0  0  0  0
   -0.5820    0.1941    0.6791 O   0  0  0  0  0  0  0  0  0  0  0  0
   -2.5030    5.8466    0.4461 H   0  0  0  0  0  0  0  0  0  0  0  0
    2.1064    1.1276   -1.0307 H   0  0  0  0  0  0  0  0  0  0  0  0
    0.8935    1.9958   -0.0835 H   0  0  0  0  0  0  0  0  0  0  0  0
   -0.3087   -1.9893   -0.9212 H   0  0  0  0  0  0  0  0  0  0  0  0
    0.8020   -1.2088   -2.0449 H   0  0  0  0  0  0  0  0  0  0  0  0
    0.3016    2.6349   -2.3151 H   0  0  0  0  0  0  0  0  0  0  0  0
    0.8000    1.1081   -2.9987 H   0  0  0  0  0  0  0  0  0  0  0  0
   -1.3320   -0.7976   -3.0624 H   0  0  0  0  0  0  0  0  0  0  0  0
   -2.1474   -0.5929   -1.5106 H   0  0  0  0  0  0  0  0  0  0  0  0
    2.0577   -1.6248    0.1608 H   0  0  0  0  0  0  0  0  0  0  0  0
    2.2960   -0.1080    1.0637 H   0  0  0  0  0  0  0  0  0  0  0  0
   -3.7935    2.8499    0.4892 H   0  0  0  0  0  0  0  0  0  0  0  0
   -2.6245    3.7030    1.5174 H   0  0  0  0  0  0  0  0  0  0  0  0
   -2.1756    2.1982    0.6859 H   0  0  0  0  0  0  0  0  0  0  0  0
   -0.8769    7.9944   -1.8508 H   0  0  0  0  0  0  0  0  0  0  0  0
   -2.1217    8.0259   -0.5893 H   0  0  0  0  0  0  0  0  0  0  0  0
   -2.5890    8.0506   -2.2983 H   0  0  0  0  0  0  0  0  0  0  0  0
    1.7007   -2.9103    2.6347 H   0  0  0  0  0  0  0  0  0  0  0  0
    0.4087   -2.1637    3.6080 H   0  0  0  0  0  0  0  0  0  0  0  0
    1.9752   -1.3355    3.4261 H   0  0  0  0  0  0  0  0  0  0  0  0
   -1.3616    6.0471   -3.5719 H   0  0  0  0  0  0  0  0  0  0  0  0
  1  3  1  0  0  0  0
  1  4  2  0  0  0  0
  1 24  1  0  0  0  0
  2  3  2  0  0  0  0
  2  5  1  0  0  0  0
  2  7  1  0  0  0  0
  3 14  1  0  0  0  0
  4 15  1  0  0  0  0
  4 17  1  0  0  0  0
  5 17  1  0  0  0  0
  5 20  2  0  0  0  0
  6 18  1  0  0  0  0
  6 21  2  0  0  0  0
  6 23  1  0  0  0  0
  7 19  1  0  0  0  0
  7 22  2  0  0  0  0
  8 10  1  0  0  0  0
  8 13  1  0  0  0  0
  8 25  1  0  0  0  0
  8 26  1  0  0  0  0
  9 11  1  0  0  0  0
  9 13  1  0  0  0  0
  9 27  1  0  0  0  0
  9 28  1  0  0  0  0
 10 19  1  0  0  0  0
 10 29  1  0  0  0  0
 10 30  1  0  0  0  0
 11 19  1  0  0  0  0
 11 31  1  0  0  0  0
 11 32  1  0  0  0  0
 12 13  1  0  0  0  0
 12 18  1  0  0  0  0
 12 33  1  0  0  0  0
 12 34  1  0  0  0  0
 13 23  1  0  0  0  0
 14 35  1  0  0  0  0
 14 36  1  0  0  0  0
 14 37  1  0  0  0  0
 15 38  1  0  0  0  0
 15 39  1  0  0  0  0
 15 40  1  0  0  0  0
 16 18  1  0  0  0  0
 16 41  1  0  0  0  0
 16 42  1  0  0  0  0
 16 43  1  0  0  0  0
 17 44  1  0  0  0  0
M  END
$$$$
