44
0 1 C16H21N3O4
C                    -1.475420566207     6.157056302104    -0.690737420844
C                    -1.486089948256     3.731835827952    -0.523964285968
C                    -1.832637609940     4.959792688334     0.001894560250
C                    -0.816046997089     6.093811544893    -1.889593244172
C                    -0.774262185556     3.629342605579    -1.780659966896
C                     1.447665718934    -2.388191817429    -0.889910965057
C                    -1.991117225565     2.462871612611     0.118360299404
C                     1.153930249798     0.603149067288     0.958521748521
C                    -0.890646595465    -0.828944045858     0.651528511679
C                     0.367736811508     1.909318329991     0.748181723771
C                    -1.519467197557     0.396186987053     1.338963834977
C                     0.587345475647    -0.284732429081    -1.378603303888
C                     0.537628641692    -0.528204508872     0.143285636131
C                    -2.619126117442     5.070477515719     1.284761144640
C                    -0.417733162158     7.285566095809    -2.711705649282
C                     1.019748943532    -1.920080720227    -3.268616291423
N                    -0.493126192968     4.860958303032    -2.388312655045
N                     0.830425636212    -1.633887836129    -1.860109490283
N                    -1.075739115110     1.637050775943     0.701958702973
O                    -0.400301535661     2.582054327485    -2.331230616253
O                     1.990816573533    -3.467731832523    -1.010186356786
O                    -3.205285479414     2.234492476510     0.126383123344
O                     1.353195701510    -1.722883811648     0.310385998319
H                    -1.736144114113     7.125082957054    -0.277390608585
H                     2.195310788221     0.755786407755     0.661849965003
H                     1.159953440062     0.312766184495     2.013805111086
H                    -0.830549564223    -1.652594128815     1.368786950211
H                    -1.515470168624    -1.163031505143    -0.181310606539
H                     0.602178503366     2.616264903890     1.554699414069
H                     0.670830298064     2.359150767903    -0.196193498627
H                    -2.606589909322     0.368475299473     1.288417251156
H                    -1.234983741062     0.427273369999     2.397968604526
H                    -0.336907830941     0.143549991899    -1.768440026827
H                     1.408286996802     0.391332093068    -1.660595690415
H                    -3.684083077548     4.925361482075     1.076339376695
H                    -2.485309922284     6.052767084029     1.745466798371
H                    -2.331850108138     4.300979094540     2.005362792496
H                     0.666437248781     7.309939045613    -2.871012056673
H                    -0.710704176604     8.210467924944    -2.212584846911
H                    -0.899666574482     7.259950542662    -3.695828626123
H                     0.103814800122    -1.692438934359    -3.822274171211
H                     1.254769867472    -2.979793206085    -3.376587222899
H                     1.843106619038    -1.327534464494    -3.692218542150
H                    -0.003939253366     4.781841298728    -3.275329004884
