
  -OEChem-05262117483D

 36 38  0     0  0  0  0  0  0999 V2000
   -1.0748    5.8990   -6.4732 C   0  0  0  0  0  0  0  0  0  0  0  0
    0.0859    2.5699    0.0830 C   0  0  0  0  0  0  0  0  0  0  0  0
   -0.6001    1.3404    0.2456 C   0  0  0  0  0  0  0  0  0  0  0  0
   -0.5711    3.6777   -0.4137 C   0  0  0  0  0  0  0  0  0  0  0  0
   -1.9338    1.2426   -0.0901 C   0  0  0  0  0  0  0  0  0  0  0  0
   -4.0244    4.4858   -1.6319 C   0  0  0  0  0  0  0  0  0  0  0  0
   -1.6515    6.2301   -5.2243 C   0  0  0  0  0  0  0  0  0  0  0  0
   -1.9469    3.6090   -0.7783 C   0  0  0  0  0  0  0  0  0  0  0  0
   -2.6998    4.6968   -1.3205 C   0  0  0  0  0  0  0  0  0  0  0  0
   -2.6383    2.3631   -0.6074 C   0  0  0  0  0  0  0  0  0  0  0  0
   -4.6277    3.2141   -1.4179 C   0  0  0  0  0  0  0  0  0  0  0  0
   -2.7698    7.0785   -4.9420 C   0  0  0  0  0  0  0  0  0  0  0  0
   -1.2349    5.7446   -3.9767 C   0  0  0  0  0  0  0  0  0  0  0  0
   -6.0811    3.0080   -1.7629 C   0  0  0  0  0  0  0  0  0  0  0  0
   -3.5916    7.8524   -5.9227 C   0  0  0  0  0  0  0  0  0  0  0  0
   -2.0880    6.0532   -1.6295 C   0  0  0  0  0  0  0  0  0  0  0  0
   -0.5833    5.6062   -7.4924 N   0  0  0  0  0  0  0  0  0  0  0  0
   -3.9555    2.1889   -0.9243 N   0  0  0  0  0  0  0  0  0  0  0  0
   -3.0198    7.1093   -3.6399 N   0  0  0  0  0  0  0  0  0  0  0  0
   -2.0538    6.3129   -3.0605 N   0  0  0  0  0  0  0  0  0  0  0  0
   -0.1676    4.9291   -3.6379 N   0  0  0  0  0  0  0  0  0  0  0  0
    1.1354    2.6419    0.3553 H   0  0  0  0  0  0  0  0  0  0  0  0
   -0.0708    0.4764    0.6384 H   0  0  0  0  0  0  0  0  0  0  0  0
   -0.0224    4.6087   -0.5129 H   0  0  0  0  0  0  0  0  0  0  0  0
   -2.4860    0.3148    0.0260 H   0  0  0  0  0  0  0  0  0  0  0  0
   -4.6124    5.2918   -2.0644 H   0  0  0  0  0  0  0  0  0  0  0  0
   -6.2660    3.2297   -2.8200 H   0  0  0  0  0  0  0  0  0  0  0  0
   -6.3700    1.9758   -1.5597 H   0  0  0  0  0  0  0  0  0  0  0  0
   -6.7194    3.6782   -1.1759 H   0  0  0  0  0  0  0  0  0  0  0  0
   -4.0249    7.1898   -6.6790 H   0  0  0  0  0  0  0  0  0  0  0  0
   -4.3985    8.3726   -5.4025 H   0  0  0  0  0  0  0  0  0  0  0  0
   -2.9778    8.5906   -6.4495 H   0  0  0  0  0  0  0  0  0  0  0  0
   -2.6934    6.8514   -1.1978 H   0  0  0  0  0  0  0  0  0  0  0  0
   -1.0749    6.1529   -1.2382 H   0  0  0  0  0  0  0  0  0  0  0  0
   -0.3833    4.1956   -2.9674 H   0  0  0  0  0  0  0  0  0  0  0  0
    0.2984    4.5466   -4.4552 H   0  0  0  0  0  0  0  0  0  0  0  0
  1  7  1  0  0  0  0
  1 17  3  0  0  0  0
  2  3  1  0  0  0  0
  2  4  2  0  0  0  0
  2 22  1  0  0  0  0
  3  5  2  0  0  0  0
  3 23  1  0  0  0  0
  4  8  1  0  0  0  0
  4 24  1  0  0  0  0
  5 10  1  0  0  0  0
  5 25  1  0  0  0  0
  6  9  1  0  0  0  0
  6 11  2  0  0  0  0
  6 26  1  0  0  0  0
  7 12  1  0  0  0  0
  7 13  2  0  0  0  0
  8  9  2  0  0  0  0
  8 10  1  0  0  0  0
  9 16  1  0  0  0  0
 10 18  2  0  0  0  0
 11 14  1  0  0  0  0
 11 18  1  0  0  0  0
 12 15  1  0  0  0  0
 12 19  2  0  0  0  0
 13 20  1  0  0  0  0
 13 21  1  0  0  0  0
 14 27  1  0  0  0  0
 14 28  1  0  0  0  0
 14 29  1  0  0  0  0
 15 30  1  0  0  0  0
 15 31  1  0  0  0  0
 15 32  1  0  0  0  0
 16 20  1  0  0  0  0
 16 33  1  0  0  0  0
 16 34  1  0  0  0  0
 19 20  1  0  0  0  0
 21 35  1  0  0  0  0
 21 36  1  0  0  0  0
M  END
$$$$
