29   
torsion grid (-165,)
C       -5.4931135928   -3.5648130601    0.8013327274
C       -4.4486741075   -4.4755983363    0.9702749699
C       -5.7117995341   -2.5662895892    1.7548370544
C       -3.6127040285   -4.4135070068    2.0945033863
C       -4.8977717201   -2.4698744848    2.8900284169
C       -3.8638142280   -3.4082213265    3.0396659817
C       -2.6810460434   -3.6654500062    6.5357816812
C       -2.4782733782   -5.3925153111    2.2824552795
C       -5.0985172707   -1.3852501861    3.9212636326
C       -1.1863377654   -1.9630103976    7.5207472792
C       -3.3941890625   -4.1148406256    5.2643979031
N       -1.9472503635   -2.5296422974    6.4185408688
O       -2.8131950552   -4.3207730195    7.5698513752
O       -3.0304425661   -3.2885339828    4.1507825443
H       -6.1307474323   -3.6262692759   -0.0766711822
H       -4.2713485472   -5.2430363774    0.2201074611
H       -6.5188071090   -1.8505666189    1.6163069049
H       -1.6235475021   -4.9184182384    2.7717472920
H       -2.7833738698   -6.2419343293    2.9055479961
H       -2.1503320509   -5.7961400092    1.3206906287
H       -5.3060413716   -1.7990691200    4.9137742574
H       -4.2020570615   -0.7641223635    4.0193871073
H       -5.9349790387   -0.7380711086    3.6456025526
H       -1.4762553430   -0.9216151038    7.6967172922
H       -0.1099021301   -2.0031518394    7.3188444220
H       -1.4009454632   -2.5494408287    8.4146738517
H       -3.1270195931   -5.1610486127    5.0809642940
H       -4.4737055208   -4.0674354639    5.4461713388
H       -1.9095679123   -2.1072118122    5.4988733956
29   
torsion grid (-150,)
C       -5.5492785250   -3.4764332694    0.8803674131
C       -4.5573985832   -4.4565087351    0.9533654897
C       -5.6365206680   -2.4941854389    1.8707456091
C       -3.6431518896   -4.4782807154    2.0160183191
C       -4.7402487233   -2.4805061933    2.9468858001
C       -3.7598513283   -3.4841080980    2.9985090008
C       -2.6277593533   -3.7079220467    6.4736192335
C       -2.5672165443   -5.5337681432    2.1065649569
C       -4.8019953851   -1.4155505292    4.0155330897
C       -1.4635514926   -1.7879863708    7.5056236762
C       -3.1659212279   -4.2868972267    5.1675101514
N       -2.0447155243   -2.4869268425    6.3706023497
O       -2.7547548428   -4.3474696729    7.5180427248
O       -2.8427906173   -3.4497175252    4.0475586727
H       -6.2498659869   -3.4733935031    0.0494776297
H       -4.4845869035   -5.2138646188    0.1761020475
H       -6.4052477376   -1.7274248319    1.8087833437
H       -1.6337647843   -5.1141162862    2.4911611972
H       -2.8626221746   -6.3464796733    2.7810323654
H       -2.3734147598   -5.9770434398    1.1262046579
H       -4.8947815869   -1.8457412368    5.0177997959
H       -3.8923529694   -0.8046549675    4.0154820189
H       -5.6543679852   -0.7512169910    3.8521454364
H       -1.9142406067   -0.7966064318    7.6227858034
H       -0.3802069630   -1.6741938810    7.3860869752
H       -1.6610633225   -2.3779228996    8.4012371599
H       -2.7360018115   -5.2861423537    5.0404780135
H       -4.2509183412   -4.3938103408    5.2706917564
H       -1.9921903525   -2.0898617844    5.4404498278
29   
torsion grid (-135,)
C       -5.3120219187   -3.9288744860    0.5389804009
C       -4.0109050276   -4.3277945804    0.8509663426
C       -6.0745664114   -3.2372540283    1.4834908861
C       -3.4546100622   -4.0491974174    2.1068821829
C       -5.5550243764   -2.9412905806    2.7504970526
C       -4.2470948038   -3.3621587020    3.0397038931
C       -4.1577857788   -3.6286296496    6.6305098714
C       -2.0453647392   -4.4670470378    2.4515178439
C       -6.3676186541   -2.1844522159    3.7731339635
C       -4.9025925650   -1.6840892109    7.9610258374
C       -3.6875997093   -4.0949112735    5.2531822479
N       -4.4435196808   -2.3061899956    6.7298313435
O       -4.2365051659   -4.4426792045    7.5508615486
O       -3.7041658884   -3.0363328730    4.2816113737
H       -5.7293320307   -4.1503956729   -0.4397613434
H       -3.4129061896   -4.8560853745    0.1118920585
H       -7.0860613727   -2.9221635986    1.2380154456
H       -1.5253428009   -3.6793623852    3.0042561342
H       -2.0360419878   -5.3659427954    3.0793142637
H       -1.4749190757   -4.6930969845    1.5468960618
H       -6.4686926941   -2.7435895210    4.7083408634
H       -5.8973360348   -1.2258703026    4.0206979586
H       -7.3706303703   -1.9758536076    3.3923238779
H       -5.8850987170   -1.2201094356    7.8205135091
H       -4.1947020452   -0.9208841015    8.3027261783
H       -4.9808437881   -2.4614255087    8.7218711964
H       -2.6706859864   -4.4860769562    5.3637820116
H       -4.3379401714   -4.9175919583    4.9424211739
H       -4.3375111343   -1.7580381772    5.8852161144
29   
torsion grid (-120,)
C       -5.4180731066   -3.9042408920    0.5136518273
C       -4.0946028084   -4.2519082075    0.7909701158
C       -6.1389283853   -3.1293321820    1.4246434556
C       -3.4781706139   -3.8395655068    1.9794792464
C       -5.5604230395   -2.7013116167    2.6275007763
C       -4.2329277426   -3.0775686569    2.8873117405
C       -4.1773651895   -3.2305839499    6.3947875534
C       -2.0392967387   -4.1880247453    2.2767342230
C       -6.3426536016   -1.8567926650    3.6041822932
C       -5.2588113895   -1.3846306616    7.6320797068
C       -3.4633768313   -3.6117138058    5.0967931276
N       -4.5458091848   -1.9273715081    6.4871907178
O       -4.3312417941   -4.0737287742    7.2783353265
O       -3.6173654922   -2.6304357728    4.0564211333
H       -5.8837451327   -4.2280687723   -0.4133684573
H       -3.5259396015   -4.8411274454    0.0752141935
H       -7.1668595488   -2.8510946237    1.2043546080
H       -1.5044300300   -3.3273287096    2.6889000279
H       -1.9622746905   -4.9988897292    3.0105025760
H       -1.5249017909   -4.5162407791    1.3698964739
H       -6.4574622537   -2.3559421561    4.5709554156
H       -5.8435340407   -0.8990398521    3.7894134227
H       -7.3407967648   -1.6429155015    3.2137270852
H       -6.3082385037   -1.1793761390    7.3882632774
H       -4.7857533671   -0.4582080593    7.9726132860
H       -5.2217970051   -2.1223739486    8.4343418830
H       -2.3973100595   -3.7247366016    5.3215436792
H       -3.8530851765   -4.5822931496    4.7818075644
H       -4.4098133568   -1.3629092916    5.6578922998
29   
torsion grid (-105,)
C       -5.5124738973   -3.9835296874    0.6772171856
C       -4.1863866037   -4.3541322465    0.9059391678
C       -6.1527498435   -3.1185473529    1.5659985712
C       -3.4915356636   -3.8821710273    2.0267792925
C       -5.4963937465   -2.6297088222    2.7044518389
C       -4.1721746950   -3.0418456818    2.9269135350
C       -4.1237089349   -3.2656650975    6.3188479278
C       -2.0407795265   -4.2428404249    2.2456371601
C       -6.2045559690   -1.6814036714    3.6418311861
C       -5.4453890717   -1.5902435300    7.5687336184
C       -3.2347134371   -3.4806917975    5.0911522128
N       -4.5562153193   -1.9885266237    6.4895051638
O       -4.3364200546   -4.1920370501    7.1002755178
O       -3.4697611405   -2.5431755337    4.0260703569
H       -6.0394073519   -4.3529769216   -0.1985057072
H       -3.6743953078   -5.0048270421    0.2006825336
H       -7.1792705542   -2.8127102528    1.3780121681
H       -1.4760527411   -3.3855224611    2.6226547924
H       -1.9250876654   -5.0538797371    2.9740397311
H       -1.5827808804   -4.5767310583    1.3109628454
H       -6.4171218861   -2.1517785322    4.6064331186
H       -5.6019233925   -0.7877120145    3.8348729464
H       -7.1548288032   -1.3570143174    3.2101375406
H       -6.4661296113   -1.4195717402    7.2045269576
H       -5.0812153885   -0.6745322688    8.0447109300
H       -5.4644922397   -2.3942265019    8.3051723859
H       -2.1906542315   -3.3720933509    5.4032785116
H       -3.3919681481   -4.5078052474    4.7581318185
H       -4.3789669752   -1.3502953236    5.7242049929
29   
torsion grid (-90,)
C       -5.5992350581   -4.0831262062    0.8799814322
C       -4.2808446213   -4.4892690089    1.0866020863
C       -6.1456774010   -3.0833939889    1.6854049502
C       -3.5031897778   -3.9292239692    2.1085583132
C       -5.4078351471   -2.5040746079    2.7268054783
C       -4.0987745783   -2.9673616085    2.9475706683
C       -3.9849423839   -3.2466559405    6.2121131932
C       -2.0523998071   -4.3291798859    2.2573020091
C       -6.0216051075   -1.4003587112    3.5555342705
C       -5.6098860747   -1.8677543880    7.4699268153
C       -2.9814543887   -3.2372002826    5.0543238718
N       -4.6084728748   -2.0587505508    6.4331031521
O       -4.1197031977   -4.2497498873    6.9114150641
O       -3.3312576958   -2.3793693845    3.9562636438
H       -6.1883020325   -4.5227017627    0.0795120595
H       -3.8342142480   -5.2361394971    0.4339661832
H       -7.1607820059   -2.7373602932    1.5045476083
H       -1.4535037852   -3.5101522621    2.6632271065
H       -1.9286261902   -5.1928572418    2.9212178338
H       -1.6365314771   -4.6082225191    1.2851962476
H       -6.3984350912   -1.7798844493    4.5105043016
H       -5.2969681301   -0.6085091347    3.7672074336
H       -6.8641226785   -0.9502694285    3.0238283878
H       -6.6172779465   -1.7824448652    7.0441105394
H       -5.3930085662   -0.9653079649    8.0500710467
H       -5.5798734462   -2.7345514006    8.1307717905
H       -2.0201746638   -2.8773453137    5.4347107053
H       -2.8629961237   -4.2727921998    4.7362679675
H       -4.4609605046   -1.3352134990    5.7419213978
29   
torsion grid (-75,)
C       -6.0036044516   -3.8924282862    1.2711534048
C       -4.7578551461   -4.4717025717    1.5122523092
C       -6.3024089726   -2.6436835851    1.8220710394
C       -3.8019716365   -3.8434572182    2.3251237780
C       -5.3835875703   -1.9838314071    2.6466351912
C       -4.1541854774   -2.6190516977    2.9236491111
C       -3.7688239511   -2.6034189260    6.1302588973
C       -2.4283520505   -4.4574264284    2.4755901013
C       -5.6718847717   -0.6080820139    3.2004632207
C       -6.0735688221   -2.9362980623    6.9145701496
C       -2.7968389464   -2.5140606066    4.9468720314
N       -5.0895233551   -2.7660571858    5.8530731940
O       -3.3177736138   -2.5672727115    7.2756160697
O       -3.2841114609   -1.9127310472    3.7405612937
H       -6.7267345232   -4.3976408863    0.6366526593
H       -4.5043002103   -5.4208417596    1.0452198713
H       -7.2570159534   -2.1687832686    1.6080095245
H       -1.6575670099   -3.6897434540    2.5835426444
H       -2.3622471922   -5.1257487376    3.3423396499
H       -2.1877520986   -5.0546272759    1.5917965602
H       -5.5440640881   -0.5685903828    4.2857353772
H       -4.9813530484    0.1299980887    2.7786301704
H       -6.6922767921   -0.3009646595    2.9562756680
H       -6.0651319567   -3.9565371910    7.3156970053
H       -7.0664528490   -2.7153219327    6.5163586390
H       -5.8484576175   -2.2478047201    7.7311163018
H       -1.9716596263   -1.8819888112    5.2749276247
H       -2.4024333688   -3.5185692620    4.7724183406
H       -5.3788498165   -2.8991103665    4.8922204264
29   
torsion grid (-60,)
C       -6.0453106136   -3.8904291424    1.3250076906
C       -4.8326285629   -4.5017659283    1.6432375270
C       -6.3027593448   -2.5940729571    1.7770726234
C       -3.8670352302   -3.8565199448    2.4312467347
C       -5.3743279034   -1.9152145392    2.5743358059
C       -4.1754357038   -2.5739593494    2.9222502366
C       -3.7359539408   -2.7684885428    6.0453063798
C       -2.5352426832   -4.5290890685    2.6745185966
C       -5.6250058285   -0.5003073346    3.0415255440
C       -6.0184690987   -3.2226822681    6.8079769969
C       -2.7731478892   -2.3565637502    4.9252799337
N       -5.0716181448   -2.7617700717    5.7989310757
O       -3.2492778325   -3.0771558262    7.1339745338
O       -3.3096015910   -1.8284201051    3.7070151722
H       -6.7748634826   -4.4116427716    0.7112457916
H       -4.6130539728   -5.4955319367    1.2595213835
H       -7.2328744394   -2.0982212790    1.5095071556
H       -1.7105005208   -3.8124341824    2.6241953025
H       -2.4912985037   -5.0250910174    3.6509076639
H       -2.3595477928   -5.2955258031    1.9151380008
H       -5.5518391375   -0.4085942923    4.1297650906
H       -4.8800101313    0.1849452953    2.6239349568
H       -6.6167394106   -0.1622156538    2.7300214443
H       -5.9837273715   -4.3115678998    6.9288989710
H       -7.0252517844   -2.9254175009    6.5069135995
H       -5.7777615298   -2.7655039115    7.7694776214
H       -2.1611893903   -1.5489875780    5.3309686881
H       -2.1121210674   -3.2073459308    4.7506786567
H       -5.3920925106   -2.6689303608    4.8437178710
29   
torsion grid (-45,)
C       -5.9565362927   -3.9115118618    1.2337581514
C       -4.8013662852   -4.5513981297    1.6804012683
C       -6.1948701686   -2.5863418429    1.6056611937
C       -3.8727412566   -3.9063401121    2.5135417746
C       -5.3068507507   -1.9080905114    2.4458436490
C       -4.1648589979   -2.5894146244    2.9141665520
C       -3.7707437543   -3.1895266011    5.8125835071
C       -2.5985578121   -4.6299601045    2.8905553915
C       -5.5452538019   -0.4669880755    2.8329292617
C       -6.1186152557   -3.4924875234    6.5005350064
C       -2.8013560775   -2.3840948415    4.9396273958
N       -5.0587429433   -2.7508835655    5.8301812998
O       -3.3499239212   -4.1298149898    6.4862520534
O       -3.3467399825   -1.8253970296    3.7387834882
H       -6.6552165064   -4.4341665492    0.5862008693
H       -4.5953244367   -5.5718536919    1.3657977611
H       -7.0803327359   -2.0693972781    1.2431130317
H       -1.7203799262   -3.9939478315    2.7417158336
H       -2.5985483013   -4.9682187525    3.9316505646
H       -2.4757025024   -5.5140400874    2.2597851332
H       -5.6006297260   -0.3267026683    3.9189697722
H       -4.7280691574    0.1747491673    2.4883150634
H       -6.4792090521   -0.1015230534    2.3984881058
H       -6.6290286862   -4.1740508047    5.8095501738
H       -6.8484252466   -2.7953420429    6.9214730988
H       -5.6721481675   -4.0767526084    7.3052086034
H       -2.4571970452   -1.5204315192    5.5165484316
H       -1.9408077343   -3.0222549793    4.7433891007
H       -5.3240419977   -2.0689413713    5.1325348283
29   
torsion grid (-30,)
C       -5.9912803725   -3.9454506408    1.4226846609
C       -4.8210268046   -4.5819080889    1.8371075743
C       -6.2021210010   -2.6038943243    1.7516806344
C       -3.8522459967   -3.9109804169    2.5990013857
C       -5.2690495470   -1.9003740408    2.5210565414
C       -4.1165667018   -2.5785163096    2.9609611859
C       -3.7790189821   -3.1762940359    5.7790241476
C       -2.5592761825   -4.6043342206    2.9624025363
C       -5.4719213623   -0.4422112732    2.8608195612
C       -6.1368783289   -3.5618390893    6.3649144009
C       -2.7925502879   -2.2961088608    4.9993506899
N       -5.0664653483   -2.7319112905    5.8246687382
O       -3.3805733810   -4.1789595843    6.3704637485
O       -3.2290454511   -1.8201301179    3.7147043366
H       -6.7252008352   -4.4848100620    0.8299682754
H       -4.6382268312   -5.6154663427    1.5520557103
H       -7.1000138255   -2.0942107614    1.4097978655
H       -1.7021508050   -3.9419567845    2.8060968099
H       -2.5434266215   -4.9328488666    4.0064817607
H       -2.4187067569   -5.4883751238    2.3350306554
H       -5.4395272360   -0.2534455958    3.9404490461
H       -4.6811868963    0.1768515819    2.4247825722
H       -6.4350195591   -0.0880185804    2.4844498038
H       -6.5106023089   -4.2718732371    5.6172605958
H       -6.9584990969   -2.9220382149    6.6964687041
H       -5.7490260627   -4.1214209333    7.2162606302
H       -2.5801115944   -1.3951770379    5.5835351702
H       -1.8707406013   -2.8722536251    4.9065429932
H       -5.3267493497   -2.0101055368    5.1661601182
29   
torsion grid (-15,)
C       -6.0377739594   -3.9591660764    1.5362796290
C       -4.8652453938   -4.6071950373    1.9286964137
C       -6.2150643759   -2.6043638625    1.8306119262
C       -3.8614080885   -3.9303234627    2.6367019367
C       -5.2421919355   -1.8943148447    2.5440087301
C       -4.0901303118   -2.5830454603    2.9629409388
C       -3.7931587470   -3.1316539692    5.7483728245
C       -2.5666516305   -4.6183242641    2.9995253857
C       -5.4032872971   -0.4232207986    2.8481925372
C       -6.1466954432   -3.6253635733    6.2529910189
C       -2.8216812417   -2.1895585194    5.0215368380
N       -5.0941958218   -2.7240008615    5.7965379272
O       -3.3821854868   -4.1506253221    6.3017816608
O       -3.1423606009   -1.8436418828    3.6578040365
H       -6.8019228825   -4.5015859630    0.9858992204
H       -4.7121813654   -5.6524404095    1.6698774343
H       -7.1160211549   -2.0900178122    1.5039288949
H       -1.7137759521   -3.9550161736    2.8247453812
H       -2.5426229413   -4.9186467288    4.0517288559
H       -2.4303671789   -5.5168225027    2.3918811424
H       -5.3261314231   -0.2049806966    3.9202302479
H       -4.6167260727    0.1655025573    2.3652888382
H       -6.3723912035   -0.0583233278    2.4982851945
H       -6.4352985407   -4.3338326197    5.4670893578
H       -7.0195282092   -3.0383165818    6.5485645294
H       -5.7806644995   -4.1860254485    7.1132579665
H       -2.7583353176   -1.2416173790    5.5666908460
H       -1.8455597588   -2.6776513065    5.0500147856
H       -5.3681012166   -1.9881887876    5.1592709429
29   
torsion grid (0,)
C       -5.9011376001   -4.0335946568    1.0032732021
C       -4.5325621253   -4.3120750647    0.9865545600
C       -6.4351197685   -3.2165922194    2.0037437386
C       -3.6703935699   -3.7687993094    1.9494771631
C       -5.6061145095   -2.6493091723    2.9799815743
C       -4.2277248970   -2.9174977225    2.9179931702
C       -2.4923972917   -0.7709555108    2.1278835940
C       -2.1978203625   -4.1023428982    1.9641729620
C       -6.1602067899   -1.7774347534    4.0826704296
C       -3.7854457862    0.0236777254    0.1995796189
C       -2.5276523695   -1.2742090375    3.5796649971
N       -3.6660907413   -0.2954008300    1.6185556793
O       -1.4297657186   -0.7368708821    1.5080572725
O       -3.4268550628   -2.3587362940    3.9023807253
H       -6.5531082343   -4.4658701165    0.2488394198
H       -4.1235618194   -4.9712840173    0.2241884388
H       -7.5039556339   -3.0169396764    2.0310267479
H       -1.5905944240   -3.2929509091    1.5469698895
H       -1.8513721082   -4.2745720791    2.9876822175
H       -2.0036114641   -5.0038147711    1.3769723944
H       -5.9796291206   -2.2267671618    5.0643787154
H       -5.6868043434   -0.7887303678    4.1083751051
H       -7.2368618292   -1.6334377322    3.9606967016
H       -4.6599491730    0.6610300329    0.0496393616
H       -3.8900279306   -0.8832338331   -0.4083631699
H       -2.8899731802    0.5571576777   -0.1199651496
H       -1.5124550862   -1.5999110040    3.8112861289
H       -2.7907618424   -0.4372008398    4.2375675020
H       -4.5179596070   -0.5594493823    2.0960715971
29   
torsion grid (15,)
C       -5.8509623664   -4.1020296083    0.9907501577
C       -4.4817600042   -4.3725040747    1.0202032229
C       -6.4108666616   -3.2504502400    1.9472343310
C       -3.6428510161   -3.7888159245    1.9807565353
C       -5.6082378944   -2.6388693397    2.9174555916
C       -4.2262382893   -2.8972088878    2.8963975839
C       -2.4865178855   -0.7942959879    2.0682270011
C       -2.1748707055   -4.1382180445    2.0481322932
C       -6.1987521440   -1.7369410378    3.9759547625
C       -3.9002480118    0.1536318655    0.2971938744
C       -2.4417790459   -1.3343775070    3.5055657924
N       -3.6530177300   -0.1953500822    1.6920933080
O       -1.4932556422   -0.8528288509    1.3447560730
O       -3.4640332981   -2.2814199941    3.8802151682
H       -6.4826751476   -4.5677346489    0.2389802807
H       -4.0515738195   -5.0619021717    0.2973148367
H       -7.4812396064   -3.0573706535    1.9437597413
H       -1.5473455637   -3.3582970385    1.6055335875
H       -1.8557225138   -4.2707535943    3.0865913618
H       -1.9807652206   -5.0697970271    1.5099725495
H       -6.0436720448   -2.1528960221    4.9766456388
H       -5.7340113502   -0.7435984825    3.9885842713
H       -7.2724056672   -1.6052648683    3.8188686138
H       -4.7084913072    0.8871455405    0.2492196719
H       -4.1754284579   -0.7284999631   -0.2934882216
H       -2.9932913312    0.5879162010   -0.1240570738
H       -1.4599578460   -1.7960356559    3.6272923874
H       -2.5293211921   -0.5004485061    4.2103253641
H       -4.4641097708   -0.3654214788    2.2714959943
29   
torsion grid (30,)
C       -5.8318471425   -4.2045141101    1.0609109294
C       -4.4622751653   -4.4651245416    1.1107268979
C       -6.3982946275   -3.3091344843    1.9720006679
C       -3.6284096576   -3.8315595316    2.0448588569
C       -5.6024197090   -2.6448372884    2.9114433245
C       -4.2170578221   -2.8949213555    2.9122224941
C       -2.3762563559   -0.8199663596    2.0749105862
C       -2.1641266812   -4.1975333156    2.1259225629
C       -6.2061140169   -1.6951538812    3.9196121190
C       -3.7719120140    0.2473294762    0.3540726199
C       -2.3421149102   -1.4303962862    3.4827828266
N       -3.5379611672   -0.2014762503    1.7217600280
O       -1.3738528352   -0.8480681819    1.3619446811
O       -3.4868228909   -2.2075443506    3.8741149517
H       -6.4577038841   -4.7107936661    0.3309419078
H       -4.0249974994   -5.1884896036    0.4263090471
H       -7.4694200841   -3.1211835955    1.9561031484
H       -1.5206235230   -3.4390133801    1.6689609501
H       -1.8486270452   -4.3225504934    3.1664574772
H       -1.9842443428   -5.1416750788    1.6052354777
H       -6.0526420289   -2.0566084273    4.9415544443
H       -5.7517424367   -0.6978366288    3.8830345753
H       -7.2801140279   -1.5832605466    3.7502695304
H       -4.5389040972    1.0256541114    0.3563224897
H       -4.0970082911   -0.5789180266   -0.2896306537
H       -2.8434196644    0.6569214673   -0.0442583458
H       -1.4305440633   -2.0271166086    3.5397707675
H       -2.2752631350   -0.6243924534    4.2203135779
H       -4.3501465717   -0.3886346897    2.2941460157
29   
torsion grid (45,)
C       -5.8766622749   -4.3675130461    1.1399108838
C       -4.5068428247   -4.6156730112    1.2142849368
C       -6.4541642661   -3.4359940616    2.0058169477
C       -3.6797503102   -3.9403461376    2.1265081010
C       -5.6687242005   -2.7276660393    2.9201528819
C       -4.2801376442   -2.9698774653    2.9497749185
C       -2.3052373586   -0.8559489938    2.2114505406
C       -2.2176394287   -4.3199595694    2.2132364378
C       -6.2892146981   -1.7372066661    3.8779910829
C       -3.6033453211    0.3708105787    0.5149326317
C       -2.3500004266   -1.5886169204    3.5574613939
N       -3.4591917308   -0.2465984921    1.8268037534
O       -1.2491241658   -0.7954214367    1.5820241288
O       -3.5925631492   -2.2167541948    3.8948625112
H       -6.4920839389   -4.9089705183    0.4266609572
H       -4.0597392103   -5.3647991493    0.5649437435
H       -7.5255627020   -3.2521494190    1.9733755691
H       -1.5605287122   -3.5685802548    1.7637080692
H       -1.9044949293   -4.4650935146    3.2517791168
H       -2.0484681246   -5.2610244322    1.6837288355
H       -6.1373470174   -2.0456785557    4.9174295144
H       -5.8480823979   -0.7370802294    3.7939020368
H       -7.3634635576   -1.6482890075    3.6972529643
H       -4.3110011496    1.2017344294    0.5772892697
H       -3.9590098054   -0.3496503608   -0.2314679895
H       -2.6298928808    0.7482373654    0.2012100556
H       -1.5175049378   -2.2907405918    3.5674673844
H       -2.1841408557   -0.8559874665    4.3531046827
H       -4.2995714117   -0.4819734147    2.3369908235
29   
torsion grid (60,)
C       -5.9035772221   -4.2965015008    1.1095804082
C       -4.5535362817   -4.6204287964    1.2439941303
C       -6.4619799989   -3.3156516502    1.9325791733
C       -3.7282362660   -3.9667283312    2.1719971331
C       -5.6757846830   -2.6296257691    2.8651715516
C       -4.3018724339   -2.9423023771    2.9483181637
C       -2.4373524039   -0.4319281057    2.4945790612
C       -2.2942543333   -4.4155348012    2.3377946013
C       -6.2737950647   -1.5906472453    3.7849302856
C       -3.6460595136    0.7277645747    0.7082435543
C       -2.3915792710   -1.5293681620    3.5644951614
N       -3.5837719336   -0.2489047566    1.7896429007
O       -1.4250048131    0.2504065713    2.3305707973
O       -3.5987012076   -2.2223070624    3.9014491276
H       -6.5208834941   -4.8197062686    0.3844568170
H       -4.1255455465   -5.4112572904    0.6320765819
H       -7.5201330702   -3.0770730674    1.8553293895
H       -1.5917225524   -3.7760479357    1.7911626155
H       -1.9960343717   -4.4196492101    3.3901040605
H       -2.1736251878   -5.4310640464    1.9516526196
H       -6.1917316109   -1.9036954436    4.8309776683
H       -5.7557336736   -0.6294081832    3.7096363965
H       -7.3308088074   -1.4349249240    3.5539491338
H       -4.6912394844    0.8756418620    0.4284154940
H       -3.0797247789    0.3967127102   -0.1699070460
H       -3.2241576488    1.6754562749    1.0478992791
H       -1.5893114915   -2.2123635815    3.2795278857
H       -2.0860583702   -1.0395702714    4.4907782056
H       -4.3116514114   -0.9491714887    1.8495212885
29   
torsion grid (75,)
C       -5.8956565686   -4.3571411993    1.1412258328
C       -4.5696670808   -4.7448587107    1.3335974844
C       -6.4195713668   -3.2967139484    1.8849786079
C       -3.7329883981   -4.0729265890    2.2378334055
C       -5.6199439812   -2.5911663652    2.7918102609
C       -4.2654484894   -2.9648846244    2.9235326752
C       -2.4955817289   -0.2835038016    2.5941064832
C       -2.3349938637   -4.5910191687    2.4900638318
C       -6.1901073661   -1.4811952727    3.6435161097
C       -3.7647265912    0.9497949331    0.8895253430
C       -2.3311818618   -1.5654185930    3.4204265124
N       -3.5704146465   -0.1979219027    1.7665176331
O       -1.6353134400    0.5937178494    2.6779015418
O       -3.5273240068   -2.2332252831    3.8417389135
H       -6.5244977888   -4.8942917682    0.4364022623
H       -4.1733488939   -5.6006958847    0.7916114515
H       -7.4627914370   -3.0128676058    1.7677137706
H       -1.5909026255   -4.1203452222    1.8365547647
H       -2.0275228864   -4.4224348685    3.5255070017
H       -2.2953387451   -5.6666660677    2.2976075479
H       -6.1759033622   -1.7612920002    4.7022331916
H       -5.6080975015   -0.5594162428    3.5580596650
H       -7.2244006966   -1.2703491407    3.3590341845
H       -4.8102597071    0.9824468277    0.5748950464
H       -3.1230004225    0.8955520290    0.0023494705
H       -3.5198578500    1.8653766684    1.4310389672
H       -1.6669488067   -2.2302752024    2.8620446016
H       -1.8206784199   -1.2749830067    4.3386247826
H       -4.1785745194   -1.0005325509    1.6635552025
29   
torsion grid (90,)
C       -5.0022039759   -4.4983408744    1.2724063787
C       -3.6396791720   -4.5590689594    1.5666910326
C       -5.8155342319   -3.5985575716    1.9613773100
C       -3.0762385420   -3.7599387871    2.5709126520
C       -5.2923191726   -2.7727554036    2.9649199692
C       -3.9267823607   -2.8986996532    3.2863656213
C       -2.9375470928   -3.3303691282    6.3822456720
C       -1.5909785075   -3.8287088841    2.8373449627
C       -6.1794977605   -1.7495037236    3.6378016994
C       -0.6307415170   -4.1799599741    6.6680406973
C       -3.8058200319   -2.3283584280    5.6143843062
N       -1.6156868760   -3.2959909110    6.0657965942
O       -3.4289968377   -4.0313580331    7.2657016988
O       -3.3815320982   -2.0661727825    4.2671134178
H       -5.4213044015   -5.1284765136    0.4924952849
H       -2.9946547096   -5.2324217404    1.0068412662
H       -6.8695581517   -3.5141791967    1.7061378048
H       -1.1708842944   -2.8354364508    3.0213027984
H       -1.3693541068   -4.4572590228    3.7055835872
H       -1.0706696010   -4.2586187440    1.9773535787
H       -6.6807946644   -2.1570128770    4.5236260594
H       -5.6076757392   -0.8734574203    3.9537401999
H       -6.9616748420   -1.4176689492    2.9494062616
H        0.2314386428   -3.6076735437    7.0249325693
H       -0.2832567607   -4.9374938947    5.9548343015
H       -1.1019280340   -4.6822308924    7.5134137217
H       -4.8262974642   -2.7091493656    5.6498939765
H       -3.7731760237   -1.3696537620    6.1417039759
H       -1.3549681799   -2.7231657712    5.2740405350
29   
torsion grid (105,)
C       -5.0304396181   -4.3308536893    1.1061831722
C       -3.7072772604   -4.5533477374    1.4901927533
C       -5.8103043788   -3.4115289177    1.8098451223
C       -3.1476739334   -3.8872176026    2.5899243965
C       -5.2878763506   -2.7190487495    2.9094249675
C       -3.9631515442   -2.9900671208    3.2988282545
C       -2.8605213440   -3.4811453483    6.4774681694
C       -1.7081545869   -4.1315144118    2.9741987616
C       -6.1159681130   -1.6864175854    3.6378175800
C       -0.4443954469   -3.9252231580    6.7652533601
C       -3.8878372001   -2.6772325995    5.6762308810
N       -1.5651188312   -3.2335426487    6.1493407634
O       -3.2277928041   -4.2231177681    7.3878267128
O       -3.4307697054   -2.2743441392    4.3735997454
H       -5.4461163267   -4.8586780306    0.2519829264
H       -3.0921399800   -5.2538643835    0.9302846256
H       -6.8327417560   -3.2135675369    1.4962488213
H       -1.1591720934   -3.1901574318    3.0817009078
H       -1.6300249078   -4.6704798080    3.9230213378
H       -1.2046170381   -4.7264421374    2.2079512257
H       -6.5418881337   -2.0827944853    4.5668790831
H       -5.5105543742   -0.8155788227    3.9047551493
H       -6.9491318819   -1.3525301044    3.0139799981
H        0.3180704201   -3.2089914959    7.0873994861
H        0.0121368339   -4.6420128737    6.0716010780
H       -0.8184956926   -4.4655862454    7.6353970891
H       -4.7895871153   -3.2879931445    5.6093450965
H       -4.1244810032   -1.7688686472    6.2403596301
H       -1.4128845679   -2.6645912659    5.3262350774
29   
torsion grid (120,)
C       -5.0772221384   -4.2108530559    0.9410642954
C       -3.7825620850   -4.5450122787    1.3438754553
C       -5.8183218154   -3.2865631952    1.6798036997
C       -3.2125160974   -3.9770884708    2.4915624734
C       -5.2827967703   -2.6922355056    2.8298567504
C       -3.9856209392   -3.0618822992    3.2237744145
C       -2.7777424431   -3.5067292342    6.4908491860
C       -1.8092614485   -4.3364887631    2.9166565129
C       -6.0660955446   -1.6715037191    3.6202678413
C       -0.3285399709   -3.6573504050    6.7879435693
C       -3.8948166588   -2.9315069434    5.6184432095
N       -1.5185372207   -3.1849022605    6.0992417417
O       -3.0613831654   -4.1629691072    7.4929269080
O       -3.4287634159   -2.4488361421    4.3461294269
H       -5.5031354009   -4.6625418876    0.0490689338
H       -3.2020759527   -5.2580448666    0.7631807819
H       -6.8203645167   -3.0118990253    1.3583380980
H       -1.1686557926   -3.4486402015    2.9624431493
H       -1.7919060709   -4.8014323245    3.9068591816
H       -1.3600549414   -5.0358522022    2.2070120512
H       -6.4789587525   -2.1015216209    4.5403135926
H       -5.4306897514   -0.8305669360    3.9132365369
H       -6.9040134069   -1.2869383796    3.0331608979
H        0.3501902696   -2.8240725717    6.9959219046
H        0.2036294624   -4.4095365455    6.1932392583
H       -0.6406170980   -4.1091561006    7.7301359988
H       -4.6456344408   -3.7144129963    5.4901933769
H       -4.3531077051   -2.1007695837    6.1657925361
H       -1.4350954274   -2.6856163828    5.2225562855
29   
torsion grid (135,)
C       -5.1325419896   -4.0363383492    0.8076869000
C       -3.8895989328   -4.5012957445    1.2440737105
C       -5.8255828068   -3.0865802321    1.5611785627
C       -3.3240278136   -4.0318473507    2.4370986858
C       -5.2934527313   -2.5926397163    2.7597715082
C       -4.0466073589   -3.0833466880    3.1778624412
C       -2.7898485697   -3.4901801353    6.5279153737
C       -1.9751742191   -4.5181764627    2.9093819477
C       -6.0300558945   -1.5638794470    3.5832708843
C       -0.3521266807   -3.3103898198    6.8909239196
C       -3.9373964808   -3.1716794576    5.5703089644
N       -1.5608564010   -3.0929335576    6.1129788574
O       -3.0305926264   -4.0545592716    7.5954078285
O       -3.4795259157   -2.5749404147    4.3457582465
H       -5.5570792379   -4.4095847702   -0.1205523238
H       -3.3484051497   -5.2373275634    0.6541351773
H       -6.7888024583   -2.7174450128    1.2164169738
H       -1.2504733150   -3.6969703708    2.9479914470
H       -2.0246970992   -4.9487684363    3.9141402434
H       -1.5808313294   -5.2807795108    2.2330190587
H       -6.5144281260   -2.0215581496    4.4540310811
H       -5.3465199655   -0.7969960128    3.9586802480
H       -6.8100803045   -1.0776577630    2.9916727748
H        0.1495825956   -2.3604139793    7.1044013904
H        0.3443089286   -3.9685597262    6.3591440692
H       -0.6378159758   -3.7818458670    7.8318622946
H       -4.4718294138   -4.1050055325    5.3716637216
H       -4.6217656770   -2.4889439627    6.0853543448
H       -1.5143793687   -2.6504405417    5.2034223408
29   
torsion grid (150,)
C       -5.1503692591   -3.9746042747    0.7626683016
C       -3.9390106206   -4.5333216755    1.1794303502
C       -5.7828319984   -3.0096134473    1.5490886789
C       -3.3479233170   -4.1399897344    2.3866954835
C       -5.2233173381   -2.5921770186    2.7649470392
C       -4.0107791939   -3.1749417444    3.1615647038
C       -2.7587447919   -3.4918297559    6.5879156819
C       -2.0284239333   -4.7131429778    2.8450590029
C       -5.8981931780   -1.5501398811    3.6242421430
C       -0.3843949869   -3.0055848438    7.0684337876
C       -3.8591487030   -3.4162645024    5.5324968495
N       -1.5473353768   -3.0228259397    6.1956713439
O       -3.0118634665   -3.9661727972    7.6955899134
O       -3.4039092259   -2.7538978453    4.3436669645
H       -5.5970652638   -4.2868800798   -0.1776130300
H       -3.4441562419   -5.2798158953    0.5624833828
H       -6.7202006679   -2.5684869395    1.2177398263
H       -1.2570239838   -3.9363097935    2.8918710446
H       -2.0976693836   -5.1518595962    3.8455131079
H       -1.6834668027   -5.4899342582    2.1579255633
H       -6.4719725144   -2.0138383992    4.4356516873
H       -5.1647393902   -0.8823920600    4.0842154375
H       -6.5948959116   -0.9500143857    3.0329902174
H       -0.0443112346   -1.9797869936    7.2489637939
H        0.4390342107   -3.5814034054    6.6320000648
H       -0.6703287483   -3.4573905737    8.0188404300
H       -4.1779127521   -4.4395044246    5.3075520025
H       -4.7095681798   -2.8835225205    5.9712325028
H       -1.4920324201   -2.6459100572    5.2573289015
29   
torsion grid (165,)
C       -5.3233177357   -3.8172029458    0.7452119710
C       -4.1240712841   -4.4650322565    1.0552233824
C       -5.8397028472   -2.8511687516    1.6107203655
C       -3.4315965325   -4.1631422367    2.2342097764
C       -5.1769851817   -2.5221381631    2.8020098900
C       -3.9822216848   -3.1971209886    3.0917843633
C       -2.6598280232   -3.4350364763    6.5388432955
C       -2.1217719355   -4.8309087201    2.5787127630
C       -5.7265309384   -1.4742433509    3.7404221174
C       -0.3995017228   -2.6170198412    7.1098191390
C       -3.6973319234   -3.5614594491    5.4276885477
N       -1.4983774532   -2.8303454294    6.1814887821
O       -2.9106466006   -3.8839320767    7.6576301903
O       -3.2719103952   -2.8703370578    4.2459215607
H       -5.8491564690   -4.0591220116   -0.1746852598
H       -3.7172645655   -5.2094104195    0.3746924427
H       -6.7656046168   -2.3379978351    1.3607215188
H       -1.3168378386   -4.0942794646    2.6722935208
H       -2.1744282185   -5.3647948768    3.5333925507
H       -1.8382447061   -5.5502039452    1.8062012275
H       -6.3269757157   -1.9279040908    4.5381683792
H       -4.9214817770   -0.9096364052    4.2179171174
H       -6.3734259259   -0.7743407879    3.2046371783
H       -0.2141499724   -1.5475991307    7.2605123512
H        0.5181340937   -3.0882941059    6.7413579026
H       -0.6731166555   -3.0677191182    8.0643178132
H       -3.8443932065   -4.6275430558    5.2206916118
H       -4.6425783215   -3.1551966465    5.8026712789
H       -1.4380454262   -2.4920148194    5.2288401672
29   
torsion grid (180,)
C       -5.4869928905   -3.6677189483    0.8216820164
C       -4.3607364586   -4.4603875894    1.0516552781
C       -5.8314768400   -2.6621576948    1.7289207578
C       -3.5679710568   -4.2708229643    2.1923151583
C       -5.0651071622   -2.4410249310    2.8803605609
C       -3.9467704467   -3.2629849330    3.0922025444
C       -2.5855252774   -3.4904114272    6.5396530505
C       -2.3458250177   -5.1208828498    2.4473999409
C       -5.4133587546   -1.3491691069    3.8638615646
C       -0.6855443579   -2.1109482715    7.3084851950
C       -3.4993811065   -3.8125364048    5.3621818379
N       -1.6445471095   -2.5410829077    6.3032585564
O       -2.7409549355   -4.0836147158    7.6074478262
O       -3.1544145016   -3.0262018342    4.2149273056
H       -6.0894109264   -3.8251183632   -0.0691544778
H       -4.0849869737   -5.2322417600    0.3365827189
H       -6.7007792514   -2.0361850073    1.5410822625
H       -1.5515163057   -4.5406428507    2.9237915503
H       -2.5761059366   -5.9633990289    3.1107822668
H       -1.9614020075   -5.5382961575    1.5128776614
H       -5.8076509787   -1.7596654924    4.8006391508
H       -4.5325933208   -0.7544292178    4.1225021130
H       -6.1742774536   -0.6826578187    3.4497894959
H       -0.7938250021   -1.0414372460    7.5200144736
H        0.3408512066   -2.3058760014    6.9785315581
H       -0.8790229659   -2.6753416242    8.2211939002
H       -3.4056092239   -4.8823712003    5.1461374097
H       -4.5322993392   -3.6189895253    5.6718352175
H       -1.6288317002   -2.1363260774    5.3751335180
