13   
torsion grid (-165,)
C       -0.1461362828   -1.3613391952   -1.8019101368
C        0.0678470186   -2.7318719327   -1.7826481798
C        0.1512547797   -0.9472029223   -0.4723925997
C       -0.5714787126    1.2794878008   -0.6987376467
N        0.5054651978   -1.9664565499    0.3090036650
N        0.4556692069   -3.0427567667   -0.5204368268
O        0.1220007251    0.2975002936    0.0676948747
H       -0.4605631191   -0.7647884750   -2.6457139729
H       -0.0250106572   -3.4807537777   -2.5581977209
H       -0.5780089180    2.1868336668   -0.0931850196
H       -1.6026824684    0.9664605877   -0.9034511735
H       -0.0571150657    1.4830189033   -1.6467284810
H        0.6904820874   -3.9509449202   -0.1464300278
13   
torsion grid (-150,)
C       -0.0368998343   -1.3495772262   -1.8606987323
C        0.0864317775   -2.7291327528   -1.7981039514
C        0.2267137818   -0.9181027251   -0.5296751544
C       -0.5988753025    1.2811382344   -0.6740591510
N        0.4730520761   -1.9360319252    0.2931708515
N        0.3963320043   -3.0294456629   -0.5109587238
O        0.2652557757    0.3446224935   -0.0300674577
H       -0.2713054941   -0.7557587386   -2.7322943247
H       -0.0171093130   -3.4919688541   -2.5586323835
H       -0.5450533167    2.1978180375   -0.0846682055
H       -1.6320660768    0.9144845082   -0.6940406899
H       -0.2677854380    1.4948063206   -1.6982864559
H        0.5572352200   -3.9399359466   -0.1048042341
13   
torsion grid (-135,)
C        0.0764459891   -1.3641021853   -1.9246212610
C        0.1108463033   -2.7450741836   -1.8171497612
C        0.2820905606   -0.9067319795   -0.5924440588
C       -0.6247952642    1.2646807500   -0.6310913729
N        0.4160052596   -1.9113189570    0.2714520854
N        0.3221230070   -3.0231877674   -0.5039244420
O        0.3774321401    0.3717905608   -0.1375069774
H       -0.0606214550   -0.7821948275   -2.8248438220
H        0.0122768041   -3.5243149873   -2.5616038958
H       -0.4768358202    2.2087469201   -0.1038336229
H       -1.6294546551    0.8784088278   -0.4226380407
H       -0.5168344469    1.4358544423   -1.7094209592
H        0.4083935180   -3.9284980779   -0.0647182112
13   
torsion grid (-120,)
C        0.1897322050   -1.3768432972   -1.9796510244
C        0.1447543320   -2.7527446730   -1.8292012729
C        0.3112854703   -0.8848863384   -0.6501370814
C       -0.6667191267    1.2517141035   -0.5753087992
N        0.3283030087   -1.8647265574    0.2516432923
N        0.2350306706   -2.9956459041   -0.4937129419
O        0.4417867277    0.4081624542   -0.2422341728
H        0.1579174218   -0.8151488139   -2.9025766045
H        0.0703265068   -3.5524516209   -2.5545626153
H       -0.4307948549    2.2388898661   -0.1736168663
H       -1.5898695109    0.8773140691   -0.1171794958
H       -0.8032133552    1.3257080883   -1.6612689121
H        0.2535348935   -3.8894210956   -0.0236815681
13   
torsion grid (-105,)
C        0.2916160167   -1.4008939167   -2.0371626327
C        0.1726454774   -2.7665003646   -1.8405779869
C        0.3358681197   -0.8615757498   -0.7226223044
C       -0.6921738123    1.2395616830   -0.5229310664
N        0.2435715203   -1.8045192780    0.2142245534
N        0.1476990024   -2.9582094297   -0.4930251658
O        0.4918568821    0.4457155104   -0.3691122430
H        0.3561194929   -0.8710894022   -2.9771447920
H        0.1179797456   -3.5919630971   -2.5383157397
H       -0.4231125532    2.2541040135   -0.2226100690
H       -1.4954952825    0.8639148432    0.1217770680
H       -1.0333901986    1.2450007682   -1.5657252918
H        0.0972860902   -3.8331888185    0.0091996093
13   
torsion grid (-90,)
C        0.3848172817   -1.4335617965   -2.0938828317
C        0.2094163952   -2.7856639833   -1.8493467404
C        0.3469594269   -0.8377487016   -0.8052756281
C       -0.7097792522    1.2296220836   -0.4642249651
N        0.1602950719   -1.7358592047    0.1621967697
N        0.0762265420   -2.9158486341   -0.5005147315
O        0.5146779782    0.4827442188   -0.5099044141
H        0.5332755977   -0.9442969957   -3.0461084538
H        0.1806122792   -3.6400935719   -2.5128766605
H       -0.4331118465    2.2602163646   -0.2332141822
H       -1.3718596380    0.8399235755    0.3173106277
H       -1.2252660229    1.1954136367   -1.4324147956
H       -0.0402636287   -3.7659630597    0.0326329220
13   
torsion grid (-75,)
C        0.4669015401   -1.4705330606   -2.1441589531
C        0.2580260493   -2.8092358512   -1.8539682318
C        0.3272827201   -0.8157999821   -0.8929071061
C       -0.7245033797    1.2286187126   -0.4041975429
N        0.0551753360   -1.6675377831    0.0968657130
N        0.0088856851   -2.8757406935   -0.5172782351
O        0.4959915416    0.5159829071   -0.6578784455
H        0.6959998587   -1.0242272647   -3.1013065624
H        0.2713117173   -3.6926441680   -2.4788368937
H       -0.4429639519    2.2718206591   -0.2479809457
H       -1.2229891621    0.8407769782    0.4903842682
H       -1.4014522568    1.1542613616   -1.2646014458
H       -0.1654325395   -3.6990180836    0.0415304670
13   
torsion grid (-60,)
C        0.5489916169   -1.5122009835   -2.1754151161
C        0.3163287620   -2.8371375565   -1.8427048786
C        0.2953843577   -0.8018535052   -0.9738744510
C       -0.7166911996    1.2306167014   -0.3459614924
N       -0.0594764792   -1.6085884488    0.0275669030
N       -0.0505527238   -2.8450022725   -0.5324231364
O        0.4572221914    0.5382234693   -0.7997302341
H        0.8584958118   -1.1077132361   -3.1283613100
H        0.3827037161   -3.7472433936   -2.4243298244
H       -0.4429225207    2.2857609558   -0.2880870022
H       -1.0271653254    0.8720093508    0.6401363250
H       -1.5387938010    1.1000827966   -1.0602576265
H       -0.2899117255   -3.6408636754    0.0415245621
13   
torsion grid (-45,)
C        0.6129194976   -1.5367735450   -2.2012412777
C        0.3663154329   -2.8512326500   -1.8396542163
C        0.2391454445   -0.7863246611   -1.0562851014
C       -0.7192265923    1.2290360128   -0.2922871092
N       -0.1939152625   -1.5599465963   -0.0598878817
N       -0.1169425615   -2.8182878306   -0.5686830828
O        0.3783154959    0.5588710592   -0.9316444914
H        1.0004412376   -1.1630343315   -3.1379728483
H        0.4936024841   -3.7800625614   -2.3800828247
H       -0.4962855774    2.2956776729   -0.3539465375
H       -0.8096797089    0.9260474936    0.7550109900
H       -1.6574905682    1.0125562783   -0.8159870601
H       -0.4149910415   -3.5941122109    0.0048135612
13   
torsion grid (-30,)
C        0.6650350605   -1.5544183948   -2.2100401913
C        0.4095952211   -2.8589569982   -1.8218906456
C        0.1829789355   -0.7716555394   -1.1278287358
C       -0.7125436427    1.2259513224   -0.2501600185
N       -0.3207341372   -1.5168347839   -0.1436806749
N       -0.1782828369   -2.7929143240   -0.5974786653
O        0.2844077460    0.5776002396   -1.0535658519
H        1.1233922401   -1.2069993983   -3.1246089775
H        0.5954238751   -3.8026559590   -2.3178267180
H       -0.5534577343    2.2968880801   -0.3860611943
H       -0.6006980147    0.9603403737    0.8053543496
H       -1.7173405301    0.9474982404   -0.5862161636
H       -0.5153644636   -3.5531759539   -0.0251736865
13   
torsion grid (-15,)
C       -1.0902687861   -1.9966093900   -1.6008539050
C       -0.1686414495   -3.0272241102   -1.5316194593
C       -0.3655825034   -0.8566765989   -1.1607723669
C       -0.0921601793    1.3476935585   -0.3721928836
N        0.8985704638   -1.1430615853   -0.8502674499
N        0.9934030581   -2.4837250301   -1.0810006370
O       -0.8770790233    0.3944774242   -1.1015919039
H       -2.1229640006   -2.0436868946   -1.9146918692
H       -0.2564739894   -4.0808717712   -1.7623252777
H       -0.6783127374    2.2677547225   -0.3632902453
H        0.8714679064    1.5176071894   -0.8625608660
H        0.0854640083    0.9996431190    0.6507692431
H        1.8708379025   -2.9478795836   -0.8980852797
13   
torsion grid (0,)
C       -1.0914760088   -1.9959244846   -1.6326465599
C       -0.1601552513   -3.0181332024   -1.5736804566
C       -0.4045950006   -0.8738214935   -1.0957726305
C       -0.0861511729    1.3539468938   -0.3972542095
N        0.8445966604   -1.1637674598   -0.7331780506
N        0.9702851603   -2.4883307121   -1.0350810307
O       -0.9479313711    0.3572315836   -0.9625268105
H       -2.1066470568   -2.0371135008   -1.9999239350
H       -0.2214831368   -4.0576683389   -1.8681911273
H       -0.6773945093    2.2700739036   -0.3641519767
H        0.8029467669    1.4972590410   -1.0197525192
H        0.2292602202    1.0680752575    0.6113832575
H        1.8496969283   -2.9477745479   -0.8501880997
13   
torsion grid (15,)
C       -1.0719665237   -1.9828467609   -1.6530748508
C       -0.1407935989   -3.0063274803   -1.6109104236
C       -0.4149438597   -0.8935242392   -1.0206700609
C       -0.0751710828    1.3604531638   -0.4205779893
N        0.8146883674   -1.2058437247   -0.6120001663
N        0.9618340835   -2.5074576583   -0.9911305838
O       -0.9795899265    0.3178716962   -0.8102204653
H       -2.0683416849   -2.0027675578   -2.0702176789
H       -0.1831151687   -4.0259152079   -1.9711300158
H       -0.6771992420    2.2686436808   -0.3664859610
H        0.7227810200    1.4763521139   -1.1615128764
H        0.3731032475    1.1449723377    0.5543690581
H        1.8378466118   -2.9726197894   -0.8039823201
13   
torsion grid (30,)
C       -1.0647719540   -1.9546804851   -1.6699325865
C       -0.1412651449   -2.9864156316   -1.6501392765
C       -0.4365875702   -0.9150523885   -0.9345206424
C       -0.1027202422    1.3670251304   -0.4411807009
N        0.7685940285   -1.2648321629   -0.4842316841
N        0.9303093583   -2.5363963539   -0.9441940300
O       -1.0134022348    0.2773335912   -0.6484820993
H       -2.0388195237   -1.9386697360   -2.1370540311
H       -0.1680688532   -3.9792890686   -2.0797161352
H       -0.7242560087    2.2573444396   -0.3329772475
H        0.5675346896    1.4762385087   -1.3007879755
H        0.4947260248    1.2136522542    0.4625347204
H        1.7951428112   -3.0185589529   -0.7473737592
13   
torsion grid (45,)
C       -1.0285494140   -1.9166393177   -1.6888533189
C       -0.1220961780   -2.9643485757   -1.6871699516
C       -0.4333948279   -0.9419275293   -0.8465153182
C       -0.1218632839    1.3672247463   -0.4795701946
N        0.7375007092   -1.3445085454   -0.3507769043
N        0.9109261677   -2.5803707029   -0.8900475806
O       -1.0090509136    0.2380637541   -0.4990201328
H       -1.9726610041   -1.8508897050   -2.2100527301
H       -0.1357334368   -3.9257913397   -2.1835895136
H       -0.7480583282    2.2371312598   -0.2737418333
H        0.3712449597    1.4834448285   -1.4515953935
H        0.6362962619    1.2592131627    0.3016651325
H        1.7536917067   -3.0922906328   -0.6725225442
13   
torsion grid (60,)
C       -0.9766772080   -1.8593523665   -1.7074422020
C       -0.0949820173   -2.9282910977   -1.7223091076
C       -0.4213183065   -0.9637040736   -0.7576730273
C       -0.1452877848    1.3647800489   -0.5296397363
N        0.7061909111   -1.4299107639   -0.2183226611
N        0.8905457724   -2.6253123267   -0.8343309079
O       -0.9821435892    0.2100533620   -0.3575822536
H       -1.8832333521   -1.7335963619   -2.2817726918
H       -0.0954536004   -3.8534225139   -2.2836642338
H       -0.7350664643    2.2194493039   -0.1930169083
H        0.1203605698    1.4914872666   -1.5863140440
H        0.7659662713    1.2819554462    0.0704156432
H        1.6946829775   -3.1827300812   -0.5838418176
13   
torsion grid (75,)
C       -0.9169294244   -1.7908479666   -1.7116275235
C       -0.0665963875   -2.8840963446   -1.7524491395
C       -0.3982636414   -0.9841607672   -0.6657020469
C       -0.1786977684    1.3542736797   -0.5747581655
N        0.6820183490   -1.5229064569   -0.0983331486
N        0.8694235012   -2.6765820421   -0.7860205232
O       -0.9301585458    0.1856936545   -0.2119508370
H       -1.7847407746   -1.5983640398   -2.3261692069
H       -0.0600859254   -3.7689340214   -2.3754029254
H       -0.7204615444    2.2071956473   -0.1612749529
H       -0.1169032789    1.4506511051   -1.6660816050
H        0.8304995844    1.3151142654   -0.1514940519
H        1.6326984023   -3.2826768572   -0.5205235820
13   
torsion grid (90,)
C       -0.8435347485   -1.7179508663   -1.7101224658
C       -0.0381353398   -2.8432253114   -1.7718604196
C       -0.3556768702   -1.0006440328   -0.5856477949
C       -0.2228003543    1.3420258716   -0.6162358954
N        0.6682621206   -1.6184036690    0.0036879175
N        0.8448672510   -2.7378912478   -0.7407086626
O       -0.8500855295    0.1665361460   -0.0833969563
H       -1.6666338136   -1.4534806060   -2.3587522349
H       -0.0336613813   -3.6900654012   -2.4456538619
H       -0.7159672963    2.1944064223   -0.1447893882
H       -0.3544203657    1.3965864888   -1.7043450980
H        0.8462720706    1.3531065434   -0.3754774022
H        1.5620411642   -3.3950325246   -0.4680725733
13   
torsion grid (105,)
C       -0.7576606226   -1.6437251428   -1.7094045354
C       -0.0142289710   -2.8097703085   -1.7822999025
C       -0.2934275525   -1.0071494080   -0.5261372700
C       -0.2716849343    1.3368490860   -0.6542227215
N        0.6621229011   -1.7076010405    0.0834584807
N        0.8126409029   -2.8042225475   -0.7008419609
O       -0.7422897417    0.1601327649    0.0163174127
H       -1.5284452196   -1.3071698106   -2.3884047951
H       -0.0208294466   -3.6241759172   -2.4949834466
H       -0.7149336580    2.1865089091   -0.1312622254
H       -0.5882376367    1.3481091147   -1.7047204864
H        0.8216422389    1.3999752143   -0.6019807989
H        1.4740841759   -3.5145127918   -0.4209533942
13   
torsion grid (120,)
C       -0.6607604091   -1.5737135455   -1.7138894605
C        0.0072919092   -2.7845960596   -1.7862312963
C       -0.2264619500   -1.0093766933   -0.4820971761
C       -0.3237597103    1.3310374293   -0.6824716644
N        0.6444732488   -1.7915951729    0.1528754829
N        0.7633454724   -2.8734165909   -0.6587680661
O       -0.6211351348    0.1621392797    0.0898934077
H       -1.3641478101   -1.1674425541   -2.4269774989
H       -0.0100422472   -3.5710882227   -2.5294333766
H       -0.6765245706    2.1819752210   -0.0968145764
H       -0.8424105397    1.3166105720   -1.6490166562
H        0.7561341640    1.4201675750   -0.8502492900
H        1.3642202915   -3.6324120441   -0.3707031836
13   
torsion grid (135,)
C       -0.5525974646   -1.5096522673   -1.7280894706
C        0.0357541864   -2.7623829758   -1.7937003981
C       -0.1646734656   -1.0102786891   -0.4527981258
C       -0.3900766012    1.3188295877   -0.7044259263
N        0.6095480784   -1.8665108026    0.2111597133
N        0.7046030666   -2.9345274078   -0.6234049893
O       -0.5020025783    0.1680918836    0.1373660829
H       -1.1742803735   -1.0398711490   -2.4768406571
H        0.0176337660   -3.5230284209   -2.5632691733
H       -0.5928659110    2.1817815893   -0.0677613749
H       -1.1236976258    1.2949797842   -1.5198867961
H        0.6192258984    1.3988431266   -1.1250286681
H        1.2433081616   -3.7351653831   -0.3255764599
13   
torsion grid (150,)
C       -0.4400385283   -1.4429177971   -1.7347205363
C        0.0576710313   -2.7358331584   -1.7891011229
C       -0.0853447956   -0.9903595112   -0.4321578677
C       -0.4392232073    1.3180462268   -0.7239422290
N        0.5889759160   -1.9092406994    0.2569624939
N        0.6486426507   -2.9710942310   -0.5897790233
O       -0.3502454155    0.2021436559    0.1622597305
H       -0.9791005723   -0.9196070890   -2.5111245482
H        0.0278706553   -3.4816063983   -2.5726682163
H       -0.5275192404    2.2018385747   -0.0901479516
H       -1.3252570427    1.2500386591   -1.3678638607
H        0.4591521852    1.3984037031   -1.3474658306
H        1.1165580447   -3.8105330840   -0.2795509297
13   
torsion grid (165,)
C       -0.3228885509   -1.4022857526   -1.7466954227
C        0.0808675677   -2.7288997471   -1.7866676613
C        0.0128641364   -0.9792935481   -0.4291580002
C       -0.4723591742    1.3023610574   -0.7297028022
N        0.5855849363   -1.9479853764    0.2839745957
N        0.6048823883   -3.0083306559   -0.5670113001
O       -0.1729234240    0.2291801090    0.1598250304
H       -0.7888126617   -0.8407854307   -2.5431723724
H        0.0295290823   -3.4681730718   -2.5751863834
H       -0.5030780579    2.2040594801   -0.1165060170
H       -1.4482836301    1.1613366757   -1.2117477437
H        0.3024739281    1.4070031342   -1.4990892981
H        0.9998737473   -3.8794531617   -0.2430480108
13   
torsion grid (180,)
C       -0.2322074427   -1.3811538178   -1.7660937128
C        0.0755366616   -2.7340604774   -1.7826994566
C        0.0874341195   -0.9715269165   -0.4402998212
C       -0.5205897008    1.2827517216   -0.7167801049
N        0.5519988738   -1.9752218495    0.3027504848
N        0.5338097069   -3.0394980999   -0.5433690515
O       -0.0173903936    0.2543129649    0.1315189951
H       -0.6235630107   -0.7945977987   -2.5841890347
H        0.0010447357   -3.4741763088   -2.5685384702
H       -0.5425111209    2.1901117559   -0.1118234762
H       -1.5358739900    1.0515218820   -1.0631566834
H        0.1337484956    1.4389087077   -1.5837954968
H        0.8489577613   -3.9348031255   -0.1985001678
