17   
torsion grid (-165,)
C        4.2432184074   -2.0177195543   -2.4290021555
C        4.9640013940   -0.9696714209   -1.9521086679
C        2.8481905093   -0.6621364127   -1.5320505268
C        0.4189107785   -0.8029258990   -1.0065180037
C        1.4331559728    1.3748188095   -1.8510113448
C        1.6616414687    0.0956169345   -1.0149098231
N        2.8925091224   -1.8055668397   -2.1523942206
O        4.0828252478   -0.0860957159   -1.3701001257
H        4.5886650949   -2.9034975602   -2.9447430361
H        6.0096006932   -0.7017987952   -1.9282061319
H        0.1970005413   -1.1601398090   -2.0154861284
H       -0.4452174038   -0.2404902052   -0.6378681939
H        0.5630617589   -1.6783068797   -0.3674936127
H        0.7735531195    2.0693492758   -1.3222040568
H        0.9620809557    1.1173868006   -2.8061812628
H        2.3752834857    1.8809701724   -2.0787818370
H        1.9013818278    0.3969518460    0.0126107892
17   
torsion grid (-150,)
C        3.9538283733   -2.0986765970   -2.9556040434
C        4.4502697028   -2.2263393121   -1.6977725273
C        2.9332672709   -0.6622567459   -1.7372248968
C        1.0712359967   -0.2755776293   -0.1381829146
C        1.3092836956    1.1874911492   -2.2162182286
C        2.0513977053    0.3884058087   -1.1285435155
N        2.9849405056   -1.0948425675   -2.9636764659
O        3.8048285438   -1.3092988658   -0.8984557076
H        4.2174238579   -2.6455434876   -3.8507822608
H        5.1964377691   -2.8460319633   -1.2236414218
H        0.4277251887   -0.9885488267   -0.6635996418
H        0.4321660424    0.4833675567    0.3256849663
H        1.6026724778   -0.8084331777    0.6554589742
H        1.1081769954    2.2081062134   -1.8793220088
H        0.3490486328    0.7132572763   -2.4444955026
H        1.8691814570    1.2075963806   -3.1531156795
H        2.7077159246    1.0614377845   -0.5631113374
17   
torsion grid (-135,)
C        3.9901345504   -2.0927765727   -2.9258407317
C        4.4693888339   -2.2142430199   -1.6608292460
C        2.9379269230   -0.6644542897   -1.7246673862
C        1.0516645621   -0.2937791146   -0.1468792985
C        1.3080438484    1.1909384018   -2.2173373332
C        2.0393457234    0.3780502435   -1.1252203375
N        3.0124779198   -1.0978177320   -2.9496847216
O        3.8035806049   -1.3021339558   -0.8726434392
H        4.2718426022   -2.6381454727   -3.8163889476
H        5.2141224311   -2.8263942489   -1.1747706835
H        0.4124820141   -1.0041140257   -0.6813349150
H        0.4091125422    0.4627722194    0.3156540119
H        1.5772378336   -0.8309504146    0.6478361602
H        1.3479851635    2.2623124500   -2.0035044540
H        0.2533754256    0.9020222688   -2.2669599510
H        1.7308250144    1.0039584406   -3.2057567055
H        2.6861187079    1.0448417822   -0.5424217669
17   
torsion grid (-120,)
C        4.0046688725   -2.0624932906   -2.9689920839
C        4.4990525523   -2.1791271442   -1.7093508556
C        2.9330181974   -0.6632490266   -1.7504448828
C        1.0297615252   -0.3355528358   -0.1712058246
C        1.2930492055    1.1982915743   -2.2108150181
C        2.0189412554    0.3552805272   -1.1350055155
N        3.0051433284   -1.0894069113   -2.9782104225
O        3.8214252194   -1.2853229788   -0.9104002647
H        4.2894861450   -2.5972601303   -3.8649644642
H        5.2617608341   -2.7770451945   -1.2335439876
H        0.3602434688   -1.0030000127   -0.7239825809
H        0.4189360549    0.4168650110    0.3380178343
H        1.5545706712   -0.9235130219    0.5873531363
H        1.5814188188    2.2512336937   -2.1461478812
H        0.2083299109    1.1438894003   -2.0807862330
H        1.5287362260    0.8447606140   -3.2159212015
H        2.6558116155    1.0096480581   -0.5278667450
17   
torsion grid (-105,)
C        4.0221065531   -2.0486388748   -2.9558982943
C        4.5230793197   -2.1525952987   -1.6976462102
C        2.9306990181   -0.6649970491   -1.7376867383
C        0.9950881452   -0.3575252534   -0.1808863896
C        1.2956750810    1.1934678342   -2.2007439252
C        1.9999768848    0.3379638758   -1.1247659094
N        3.0057722955   -1.0932603216   -2.9646007786
O        3.8329334102   -1.2684204101   -0.8988321508
H        4.3131642759   -2.5809897002   -3.8513051394
H        5.2976488780   -2.7358481906   -1.2228015812
H        0.3256657029   -1.0148731675   -0.7461836241
H        0.3856789652    0.3941661057    0.3305210695
H        1.5083192318   -0.9576677283    0.5761773997
H        1.7963022750    2.1594065188   -2.3187736473
H        0.2548858096    1.3872575785   -1.9276923068
H        1.3252122983    0.7006519546   -3.1744444357
H        2.6211576442    0.9885213196   -0.4969781767
17   
torsion grid (-90,)
C        4.0412923047   -2.0209695308   -2.9668121194
C        4.5430315844   -2.1297763648   -1.7091868243
C        2.9340936209   -0.6602357580   -1.7373643497
C        0.9743878082   -0.3790562059   -0.1994409443
C        1.3006023799    1.1868272850   -2.1952915717
C        1.9912022412    0.3277508711   -1.1210966799
N        3.0136802474   -1.0776624298   -2.9677313231
O        3.8433550444   -1.2597206854   -0.9033002723
H        4.3387398526   -2.5424753860   -3.8664984787
H        5.3238489669   -2.7084869737   -1.2390533747
H        0.3051727808   -1.0212969443   -0.7822038637
H        0.3656840338    0.3660956127    0.3222368018
H        1.4777577535   -0.9973169482    0.5496066991
H        1.9423380401    2.0216718330   -2.4945508876
H        0.3607211416    1.5985086143   -1.8174571330
H        1.1106747553    0.6027278640   -3.0986336545
H        2.5987180052    0.9792153005   -0.4801107743
17   
torsion grid (-75,)
C        4.0642989863   -1.9868694516   -2.9793609117
C        4.5510723331   -2.1209127183   -1.7182229317
C        2.9421028459   -0.6519489688   -1.7359742413
C        0.9684337047   -0.3994508595   -0.2152514062
C        1.3031192244    1.1791657489   -2.1901298139
C        1.9904801221    0.3250255071   -1.1162429405
N        3.0363585038   -1.0438394777   -2.9736214671
O        3.8410497337   -1.2681863438   -0.9029128902
H        4.3729009048   -2.4900691850   -3.8857032199
H        5.3265228928   -2.7088895685   -1.2507312127
H        0.3164415525   -1.0448831491   -0.8136161649
H        0.3420369478    0.3334443267    0.3031794751
H        1.4674985382   -1.0176148443    0.5366246692
H        2.0153885938    1.8645668253   -2.6594869756
H        0.4961436527    1.7694423007   -1.7460150229
H        0.8965772231    0.5494281947   -2.9856451456
H        2.5872912803    0.9807843882   -0.4690375283
17   
torsion grid (-60,)
C        4.0877062980   -1.9543118573   -2.9888071938
C        4.5508583882   -2.1196182363   -1.7224999169
C        2.9511310884   -0.6403733710   -1.7364629681
C        0.9700997906   -0.4185491567   -0.2325882672
C        1.3018592920    1.1779005943   -2.1878518715
C        1.9923689360    0.3287120370   -1.1139944329
N        3.0656674136   -1.0047770723   -2.9806811805
O        3.8309826848   -1.2808272325   -0.9012460945
H        4.4097089636   -2.4393372168   -3.9003919278
H        5.3144857756   -2.7224811672   -1.2545112134
H        0.3484196785   -1.0803146346   -0.8448055162
H        0.3132434174    0.2978916338    0.2715340406
H        1.4681524873   -1.0231201437    0.5307781331
H        2.0303116875    1.7042196188   -2.8102436281
H        0.6491658907    1.9169534333   -1.7121933315
H        0.6927253417    0.5511466868   -2.8451733940
H        2.5811716401    0.9868708228   -0.4619856160
17   
torsion grid (-45,)
C        4.1188153222   -1.9098872153   -3.0248423738
C        4.5440484547   -2.1322832048   -1.7540474731
C        2.9646618424   -0.6310700154   -1.7524103293
C        0.9921215960   -0.4440056624   -0.2450648625
C        1.2976010289    1.1811890829   -2.1809911519
C        2.0035775628    0.3289397269   -1.1167309310
N        3.1087901418   -0.9476444264   -3.0065658622
O        3.8116624938   -1.3175949885   -0.9196777642
H        4.4597639737   -2.3627176565   -3.9460442604
H        5.2865135953   -2.7638740721   -1.2899031066
H        0.4108654480   -1.1374419972   -0.8615363498
H        0.2960460420    0.2532432674    0.2332180087
H        1.4955353154   -1.0175901358    0.5382796071
H        1.9917391842    1.5369424572   -2.9450341174
H        0.8277947770    2.0470439493   -1.7024181943
H        0.5035905867    0.6101762682   -2.6713260022
H        2.5926454726    0.9836554129   -0.4619420525
17   
torsion grid (-30,)
C        4.1417363945   -1.8993373847   -3.0084433140
C        4.5539311521   -2.1213835181   -1.7334222986
C        2.9682013040   -0.6262710155   -1.7472343168
C        0.9816004425   -0.4661388478   -0.2629584083
C        1.2922435039    1.1892445346   -2.1797155988
C        1.9953894754    0.3260566036   -1.1154191560
N        3.1278251602   -0.9409438365   -2.9999965366
O        3.8092853245   -1.3101489248   -0.9064052962
H        4.4944262067   -2.3496515114   -3.9264454981
H        5.2942831349   -2.7498952586   -1.2617739588
H        0.4158304837   -1.1586888871   -0.8944291285
H        0.2720962220    0.2192171231    0.2130304445
H        1.4810411750   -1.0420480407    0.5212741571
H        1.9191031712    1.3503613827   -3.0579324944
H        1.0327224196    2.1630738970   -1.7514325328
H        0.3526681189    0.7269257147   -2.4969789923
H        2.5768263387    0.9721918762   -0.4464075522
17   
torsion grid (-15,)
C        4.1698185849   -1.8801543393   -3.0014481504
C        4.5665059861   -2.1094753233   -1.7228813516
C        2.9684734878   -0.6272127088   -1.7455488823
C        0.9676140559   -0.4936386602   -0.2739032103
C        1.2832015752    1.1949142947   -2.1722886252
C        1.9822237300    0.3119439269   -1.1137848469
N        3.1478737823   -0.9304155935   -2.9985346502
O        3.8042406772   -1.3110961329   -0.8994604134
H        4.5384355606   -2.3197283711   -3.9183833424
H        5.3053473739   -2.7360536522   -1.2463054546
H        0.3996644929   -1.1747230935   -0.9159937218
H        0.2604468127    0.1860570570    0.2131167870
H        1.4665087015   -1.0831167096    0.5006377098
H        1.7848877180    1.1433497811   -3.1393643774
H        1.2671193845    2.2393171727   -1.8459653040
H        0.2409610095    0.8903491070   -2.3064421335
H        2.5559939429    0.9462298170   -0.4275950673
17   
torsion grid (0,)
C        4.1749381472   -1.8505167812   -3.0428174949
C        4.6065725907   -2.0558361373   -1.7714616231
C        2.9684655493   -0.6178383610   -1.7717973970
C        0.9472825740   -0.5347424100   -0.3133872381
C        1.2792668575    1.2162170055   -2.1590545523
C        1.9675047012    0.2935904261   -1.1246953122
N        3.1280394241   -0.9287430693   -3.0256180726
O        3.8414390196   -1.2700320444   -0.9386121809
H        4.5349813994   -2.2888464874   -3.9637466025
H        5.3732384949   -2.6567239922   -1.3058820864
H        0.3607344098   -1.1771103417   -0.9786642800
H        0.2580407693    0.1341816997    0.2119769385
H        1.4446889188   -1.1674212872    0.4275451629
H        1.5969487936    0.9759977871   -3.1751148307
H        1.5131681662    2.2672472984   -1.9684355895
H        0.1919901949    1.1036404147   -2.1167412203
H        2.5292271010    0.9038472138   -0.4075939616
17   
torsion grid (15,)
C        4.1974883974   -1.8331725964   -3.0253803232
C        4.6229367871   -2.0376987919   -1.7517396625
C        2.9667153164   -0.6207339193   -1.7582094237
C        0.9157726284   -0.5524408712   -0.3252279978
C        1.2837145007    1.2123380116   -2.1479158000
C        1.9508526170    0.2762032735   -1.1164813648
N        3.1385764369   -0.9252723945   -3.0120203452
O        3.8432016166   -1.2638351510   -0.9214982017
H        4.5693274048   -2.2635329538   -3.9453831764
H        5.3934849624   -2.6312081101   -1.2830980480
H        0.3161503341   -1.1697499792   -1.0028990081
H        0.2404260112    0.1172424581    0.2163869915
H        1.4024296475   -1.2111056145    0.4000633017
H        1.3833435088    0.8049470861   -3.1565284420
H        1.7351013898    2.2078957607   -2.1421518367
H        0.2132526183    1.3084703809   -1.9443758350
H        2.4970871951    0.8801676399   -0.3814941231
17   
torsion grid (30,)
C        4.2168900610   -1.7923528920   -3.0526947516
C        4.6510051859   -1.9997590494   -1.7823261946
C        2.9724848724   -0.6101243820   -1.7710334915
C        0.9026318880   -0.5765543098   -0.3580974458
C        1.2864101339    1.2095431363   -2.1463390057
C        1.9445662063    0.2668693833   -1.1231652557
N        3.1436407934   -0.9017222021   -3.0280185548
O        3.8621249718   -1.2459060347   -0.9425535668
H        4.5919774377   -2.2093776582   -3.9775156803
H        5.4328593960   -2.5846774647   -1.3216902772
H        0.3032920449   -1.1746511208   -1.0531432767
H        0.2278096263    0.0816708313    0.1979531771
H        1.3835878363   -1.2554096774    0.3522209205
H        1.1614950036    0.7002817323   -3.1054971353
H        1.8895184278    2.1044824648   -2.3207516858
H        0.2897564347    1.5044737376   -1.8045981850
H        2.4768350504    0.8672133668   -0.3743589333
17   
torsion grid (45,)
C        4.2295006624   -1.7670795862   -3.0578849507
C        4.6681576359   -1.9765662990   -1.7893491145
C        2.9787329168   -0.6007373820   -1.7684889842
C        0.8931531698   -0.5968110699   -0.3841398011
C        1.2917321918    1.2061669441   -2.1415920333
C        1.9419131410    0.2639569060   -1.1193133673
N        3.1492288047   -0.8850899467   -3.0271790369
O        3.8752765846   -1.2324770213   -0.9445113135
H        4.6060818894   -2.1771130656   -3.9852352727
H        5.4560548619   -2.5567640619   -1.3330891457
H        0.3164926770   -1.1948006498   -1.0979528392
H        0.1981524904    0.0476043994    0.1635726402
H        1.3662591670   -1.2768340149    0.3302883011
H        0.9571934394    0.6451743952   -3.0186109394
H        1.9916291306    1.9729219866   -2.4845548926
H        0.4153763844    1.6905563668   -1.6997224389
H        2.4610107318    0.8634912265   -0.3604649272
17   
torsion grid (60,)
C        4.0623144483   -2.2170679576   -2.5117544224
C        4.8880277064   -1.1907219652   -2.1797015780
C        2.8509244562   -0.7288224314   -1.5610947325
C        0.4866062207   -0.6806036618   -0.7642465197
C        1.5260102566    1.3667492228   -1.8651946240
C        1.7708793809    0.1298328450   -0.9761967202
N        2.7632995798   -1.9060069380   -2.1093607056
O        4.1257589688   -0.2221602503   -1.5657622134
H        4.2999968117   -3.1505913196   -3.0036477139
H        5.9434169878   -0.9876685954   -2.2821697645
H        0.1136488794   -1.0713396556   -1.7149986640
H       -0.2859082211   -0.0431055497   -0.3225378803
H        0.6580964277   -1.5321082853   -0.1002216727
H        1.1471005128    1.0643062341   -2.8471406261
H        2.4459137093    1.9397066362   -2.0129908358
H        0.7844003462    2.0237200401   -1.3991690754
H        2.1358823340    0.4827921704   -0.0029435084
17   
torsion grid (75,)
C        4.0706917561   -2.2147521058   -2.5056066156
C        4.8945492186   -1.1928565105   -2.1558197897
C        2.8510031533   -0.7321670109   -1.5557899965
C        0.4861289791   -0.6967968555   -0.7815317179
C        1.5205129250    1.3627396411   -1.8656209902
C        1.7666281113    0.1249647153   -0.9740864062
N        2.7679417256   -1.9046271289   -2.1149124937
O        4.1271035622   -0.2283921637   -1.5420062479
H        4.3120191795   -3.1444091785   -3.0030196582
H        5.9515254326   -0.9913352661   -2.2441265908
H        0.1387070942   -1.0960137501   -1.7380123407
H       -0.3025018983   -0.0644189472   -0.3607276514
H        0.6512627039   -1.5422914954   -0.1082000738
H        0.9392482172    1.0930771104   -2.7527829728
H        2.4651425917    1.8055373129   -2.1952790168
H        0.9819530612    2.1332355978   -1.3044835359
H        2.1273576241    0.4753978445    0.0010186185
17   
torsion grid (90,)
C        4.0976112939   -2.1809587283   -2.4983320006
C        4.9052646692   -1.1496207233   -2.1387570690
C        2.8504339824   -0.7156899652   -1.5573347365
C        0.4791715577   -0.7154543126   -0.8168521793
C        1.4999315421    1.3766686941   -1.8642065972
C        1.7507794322    0.1265693405   -0.9818198905
N        2.7874224049   -1.8879989953   -2.1192839475
O        4.1200025548   -0.1960647068   -1.5302958514
H        4.3551751927   -3.1064565985   -2.9953505453
H        5.9603917641   -0.9346254853   -2.2168450377
H        0.1549977049   -1.1111510697   -1.7828117078
H       -0.3257695917   -0.0976185783   -0.4052310476
H        0.6445678595   -1.5638855757   -0.1472842416
H        0.7351477969    1.1761372796   -2.6199645102
H        2.4136156681    1.6868001088   -2.3797168170
H        1.1888113336    2.2267278692   -1.2492209872
H        2.0967939615    0.4650045360    0.0022207218
17   
torsion grid (105,)
C        4.1137185821   -2.1719057464   -2.4944332813
C        4.9159524250   -1.1471164864   -2.1054316557
C        2.8519957556   -0.7203986931   -1.5512508973
C        0.4726157936   -0.7280033590   -0.8313096133
C        1.4987838758    1.3774012855   -1.8662542392
C        1.7440880099    0.1167516580   -0.9863435567
N        2.7974434738   -1.8835375531   -2.1326978335
O        4.1211638507   -0.2025721509   -1.4946947382
H        4.3788964621   -3.0899006076   -3.0012851555
H        5.9724398535   -0.9321251389   -2.1620720384
H        0.1520596636   -1.1189427146   -1.8005145610
H       -0.3338181061   -0.1127264556   -0.4190841245
H        0.6363860582   -1.5796384800   -0.1652828718
H        0.5702143845    1.2809448558   -2.4356845154
H        2.3124414232    1.5336416626   -2.5798996557
H        1.4457261946    2.2812332813   -1.2525524210
H        2.0786352744    0.4470197069    0.0039203909
17   
torsion grid (120,)
C        4.1598153525   -2.1432363950   -2.4455232037
C        4.9235129247   -1.0719952249   -2.1075594192
C        2.8489494675   -0.7046800465   -1.5520321069
C        0.4469066604   -0.7498276858   -0.8892375924
C        1.4816927902    1.3922286322   -1.8543420557
C        1.7147466205    0.1061730053   -1.0046690599
N        2.8357785177   -1.8926268815   -2.0833548721
O        4.0962810079   -0.1340907694   -1.5304388579
H        4.4573724079   -3.0703574552   -2.9164999283
H        5.9697818891   -0.8171736679   -2.1848255790
H        0.1159962083   -1.0864995635   -1.8758152907
H       -0.3555757968   -0.1597803351   -0.4354054164
H        0.6188075552   -1.6378660981   -0.2752496821
H        0.4462196316    1.4364776116   -2.2042738992
H        2.1285760790    1.4226803966   -2.7347573808
H        1.6767953041    2.2966232665   -1.2718683359
H        2.0144238043    0.4145116424    0.0042698330
17   
torsion grid (135,)
C        4.1882742502   -2.1218186808   -2.4239946095
C        4.9341434522   -1.0411950599   -2.0762567156
C        2.8490198657   -0.7013916517   -1.5441061396
C        0.4300966890   -0.7621928235   -0.9156384623
C        1.4771204325    1.3861680451   -1.8518711048
C        1.6983260292    0.0950148086   -1.0128885360
N        2.8568448066   -1.8884921581   -2.0772988159
O        4.0884756992   -0.1150523541   -1.5068198337
H        4.5031637931   -3.0445442001   -2.8923253835
H        5.9777903417   -0.7726934649   -2.1415797023
H        0.0932293153   -1.0756896299   -1.9082309301
H       -0.3690765402   -0.1819514771   -0.4443647544
H        0.6038602089   -1.6650832436   -0.3243498214
H        0.4053322706    1.5797480525   -1.9611656237
H        1.9005291137    1.3001728171   -2.8559457426
H        1.9112464393    2.2625017684   -1.3634280337
H        1.9749967266    0.4005781160    0.0040579018
17   
torsion grid (150,)
C        4.2053964602   -2.1028284475   -2.4231228124
C        4.9445520045   -1.0283321533   -2.0433683763
C        2.8504860669   -0.6978879876   -1.5422105032
C        0.4222065951   -0.7705360680   -0.9370425107
C        1.4727805954    1.3746905846   -1.8578122467
C        1.6893224367    0.0892046013   -1.0201869334
N        2.8680814034   -1.8755440896   -2.0958620046
O        4.0887758356   -0.1122102917   -1.4729897835
H        4.5289323778   -3.0173502408   -2.9015528416
H        5.9890750124   -0.7586359362   -2.0855736626
H        0.0943357476   -1.0834146014   -1.9329249363
H       -0.3824617998   -0.1934711013   -0.4714696987
H        0.5930704497   -1.6743922646   -0.3463499897
H        0.4372869511    1.7137216929   -1.7475266745
H        1.6555481227    1.2003608213   -2.9219255909
H        2.1119185145    2.1913008480   -1.5112770008
H        1.9522817266    0.3998897503   -0.0006134811
17   
torsion grid (165,)
C        4.2132345084   -2.0947142012   -2.4196957787
C        4.9503886994   -1.0252289790   -2.0222076694
C        2.8516215018   -0.6951652049   -1.5400631765
C        0.4201159192   -0.7754900198   -0.9593084363
C        1.4727491768    1.3688035615   -1.8562629269
C        1.6858013497    0.0877984404   -1.0203578263
N        2.8731501287   -1.8678229587   -2.1042299344
O        4.0904565719   -0.1126764493   -1.4528010913
H        4.5400683815   -3.0053419903   -2.9032743705
H        5.9958358917   -0.7573092218   -2.0509279651
H        0.1096978167   -1.0858300850   -1.9614083399
H       -0.3944922699   -0.2031246785   -0.5049636623
H        0.5842073429   -1.6809064309   -0.3691769367
H        0.5286759904    1.8435498622   -1.5680256589
H        1.4240825916    1.1394592249   -2.9252409254
H        2.2709306383    2.0959386530   -1.6826795776
H        1.9407997567    0.3988055060    0.0014755146
17   
torsion grid (180,)
C        4.2260265950   -2.0609959736   -2.4231226222
C        4.9570222304   -1.0025850631   -1.9863435066
C        2.8500434775   -0.6815300427   -1.5340142415
C        0.4193178634   -0.7900206306   -0.9796940886
C        1.4547599586    1.3671694478   -1.8504230547
C        1.6747453205    0.0895345735   -1.0143076853
N        2.8810503602   -1.8405684380   -2.1254491553
O        4.0878706726   -0.1031466906   -1.4104694920
H        4.5606837853   -2.9598683781   -2.9230720837
H        6.0030740953   -0.7354655898   -1.9896959796
H        0.1548548329   -1.1278707468   -1.9855639743
H       -0.4215373259   -0.2202224267   -0.5715456972
H        0.5722426254   -1.6784605998   -0.3612618976
H        0.6364705794    1.9579119340   -1.4260259088
H        1.1911664755    1.1094501668   -2.8816988194
H        2.3534850803    1.9900900277   -1.8712443304
H        1.9226477520    0.3975912212    0.0099242004
