43
0 1 C13H23N5O2
C                     3.759092687719     3.329688522180    -7.937707664578
C                     2.432789666220     4.259970469557    -6.324612243536
C                     1.753274252478     1.998873905119    -5.394814980150
C                     1.526700579059    -3.054902375656    -3.573479500033
C                     1.815786829517    -1.785754837454    -2.759499230999
C                     0.581064644875    -2.759944152614    -4.746715510337
C                     2.359551519096    -0.661261906244    -3.651533165066
C                     1.118233479197    -1.630494831230    -5.637611665775
C                     1.403817301492    -0.366218956640    -4.819050605967
C                     4.663901880419     3.220450835713    -9.116847138802
C                     5.043415218536     6.341125599402    -5.881421265374
C                     5.110501463624     7.704984533922    -8.018317652421
C                     4.942290951149     6.314157432262    -7.406170699264
N                     3.256480331778     2.311904709970    -7.303913040127
N                     3.308502997219     4.524890223407    -7.410435592410
N                     2.450396725546     2.856781465458    -6.301696362014
N                     1.921078499733     0.682806546736    -5.694376478704
N                     3.605242335499     5.824955707448    -7.810873766919
O                     1.861093066673     5.066284252000    -5.627177323076
O                     1.084531394465     2.445202676594    -4.477579119011
H                     1.096679398184    -3.830708007091    -2.929256650171
H                     2.471966872379    -3.457699288788    -3.963472340832
H                     0.890205436300    -1.445832537949    -2.275496619362
H                     2.527391417020    -2.001868847044    -1.954444334681
H                     0.423364337944    -3.663153261599    -5.347341471268
H                    -0.402587676463    -2.469308963419    -4.353908425755
H                     2.510298416312     0.255838750117    -3.073269068867
H                     3.336767754360    -0.953301584675    -4.061431414111
H                     2.048761626271    -1.963064562650    -6.121605408401
H                     0.407040427519    -1.396233938058    -6.437605172576
H                     0.463406256707     0.012281568047    -4.406822320871
H                     4.233961287941     3.720036890688    -9.991845953564
H                     4.806913540341     2.165248865895    -9.353975262271
H                     5.638935159146     3.674424863189    -8.917261910594
H                     4.244025317720     6.954809611269    -5.458021446098
H                     4.956998066442     5.337621972896    -5.455391684074
H                     6.013292808368     6.749977797396    -5.580562102588
H                     4.340494016302     8.383165368030    -7.638273761232
H                     5.036132173753     7.676823982356    -9.112385545195
H                     6.092616699793     8.113198475406    -7.763535960242
H                     5.737759288994     5.659511495301    -7.799537674503
H                     2.574235453734     0.448426186517    -6.432496003650
H                     3.456694794023     5.907329527603    -8.814025146615
