41
0 1 C13H21N3O2S2
C                     4.412585605747    -2.699034310469    -6.084166888053
C                     5.180412657749    -1.794240199319    -8.107834878077
C                     3.806606080687    -3.499591047035    -4.970285674452
C                    -0.192924241819    -1.956621057511    -0.617477180571
C                     0.379381064982    -1.200910734856    -1.824684330469
C                    -0.061804966565    -3.475128560446    -0.799731468831
C                     1.830879603869    -1.613267604723    -2.108733962195
C                     1.390298204912    -3.883513278001    -1.086042809247
C                     1.966229132330    -3.132392064784    -2.296736041022
C                     8.037247771192    -1.015911530320   -10.958660110064
C                     7.872154472329    -2.873099147468    -9.219030443250
C                     3.421360467477    -3.558682445781    -2.540744722380
C                     7.442820025887    -1.467601475493    -9.623878849425
N                     5.045065870426    -1.563973191768    -5.912950982404
N                     5.488313915059    -1.031396409111    -7.094051698498
N                     4.008640065853    -2.970383593887    -3.740867200154
O                     3.196893961836    -4.543157928729    -5.210829271683
O                     5.151180691669    -2.604680606195   -10.630543404872
S                     4.295074228300    -3.241944468813    -7.731921050972
S                     5.579119824808    -1.387225812611    -9.832423365316
H                    -1.242869984364    -1.682592412289    -0.461110723010
H                     0.349575629558    -1.653097164672     0.288913527016
H                    -0.234424160217    -1.415284905029    -2.710164081983
H                     0.322965112128    -0.118708968976    -1.659037284697
H                    -0.429428502399    -3.998839550450     0.090432490559
H                    -0.696502340878    -3.795358059233    -1.637091427336
H                     2.199297985042    -1.088178166295    -2.997960500031
H                     2.466880267568    -1.299045902435    -1.267170976651
H                     2.007231126723    -3.667170817317    -0.201232170565
H                     1.451715824342    -4.965468494926    -1.255436345002
H                     1.390692283181    -3.424747365670    -3.185249475525
H                     7.765738099453    -1.710251584323   -11.759611803333
H                     7.699809175509    -0.012637788978   -11.237608584606
H                     9.129043832116    -0.996293528801   -10.882504868274
H                     7.459096141027    -3.611796629179    -9.912380443733
H                     7.548105838111    -3.123826596073    -8.205788712501
H                     8.964299673793    -2.944098642152    -9.251646772764
H                     3.475192961313    -4.645207166130    -2.647810813743
H                     4.048228807837    -3.271473657857    -1.689538223020
H                     7.644110718160    -0.736059549192    -8.834231720195
H                     4.482959501842    -2.075636097294    -3.697049400906
