
  -OEChem-05262117483D

 26 27  0     0  0  0  0  0  0999 V2000
    1.3104    1.4946    0.4031 C   0  0  0  0  0  0  0  0  0  0  0  0
    1.1305    0.1260    0.1922 C   0  0  0  0  0  0  0  0  0  0  0  0
    3.5363   -0.1862    0.3848 C   0  0  0  0  0  0  0  0  0  0  0  0
    3.7267    1.1840    0.5828 C   0  0  0  0  0  0  0  0  0  0  0  0
    2.5923    2.0219    0.5967 C   0  0  0  0  0  0  0  0  0  0  0  0
    2.2539   -0.6902    0.1931 C   0  0  0  0  0  0  0  0  0  0  0  0
    3.8887    4.0025    1.3060 C   0  0  0  0  0  0  0  0  0  0  0  0
    4.9892    3.0269    1.6750 C   0  0  0  0  0  0  0  0  0  0  0  0
    5.1061    1.8256    0.7128 C   0  0  0  0  0  0  0  0  0  0  0  0
    6.1601    0.8549    1.2677 C   0  0  0  0  0  0  0  0  0  0  0  0
    5.5524    2.3192   -0.6841 C   0  0  0  0  0  0  0  0  0  0  0  0
    2.7582    3.4075    0.7889 N   0  0  0  0  0  0  0  0  0  0  0  0
    3.9601    5.2161    1.4680 O   0  0  0  0  0  0  0  0  0  0  0  0
    2.1005   -2.0284    0.0001 F   0  0  0  0  0  0  0  0  0  0  0  0
    0.4464    2.1547    0.4221 H   0  0  0  0  0  0  0  0  0  0  0  0
    0.1444   -0.3012    0.0408 H   0  0  0  0  0  0  0  0  0  0  0  0
    4.3731   -0.8757    0.3687 H   0  0  0  0  0  0  0  0  0  0  0  0
    5.9240    3.5895    1.7211 H   0  0  0  0  0  0  0  0  0  0  0  0
    4.7716    2.6659    2.6893 H   0  0  0  0  0  0  0  0  0  0  0  0
    7.1036    1.3851    1.4332 H   0  0  0  0  0  0  0  0  0  0  0  0
    6.3679    0.0374    0.5706 H   0  0  0  0  0  0  0  0  0  0  0  0
    5.8417    0.4202    2.2208 H   0  0  0  0  0  0  0  0  0  0  0  0
    6.5322    2.8056   -0.6211 H   0  0  0  0  0  0  0  0  0  0  0  0
    4.8438    3.0392   -1.1043 H   0  0  0  0  0  0  0  0  0  0  0  0
    5.6287    1.4778   -1.3795 H   0  0  0  0  0  0  0  0  0  0  0  0
    1.9758    4.0298    0.6168 H   0  0  0  0  0  0  0  0  0  0  0  0
  1  2  1  0  0  0  0
  1  5  2  0  0  0  0
  1 15  1  0  0  0  0
  2  6  2  0  0  0  0
  2 16  1  0  0  0  0
  3  4  2  0  0  0  0
  3  6  1  0  0  0  0
  3 17  1  0  0  0  0
  4  5  1  0  0  0  0
  4  9  1  0  0  0  0
  5 12  1  0  0  0  0
  6 14  1  0  0  0  0
  7  8  1  0  0  0  0
  7 12  1  0  0  0  0
  7 13  2  0  0  0  0
  8  9  1  0  0  0  0
  8 18  1  0  0  0  0
  8 19  1  0  0  0  0
  9 10  1  0  0  0  0
  9 11  1  0  0  0  0
 10 20  1  0  0  0  0
 10 21  1  0  0  0  0
 10 22  1  0  0  0  0
 11 23  1  0  0  0  0
 11 24  1  0  0  0  0
 11 25  1  0  0  0  0
 12 26  1  0  0  0  0
M  END
$$$$
