
  -OEChem-05262117483D

 43 44  0     0  0  0  0  0  0999 V2000
    3.7591    3.3297   -7.9377 C   0  0  0  0  0  0  0  0  0  0  0  0
    2.4328    4.2600   -6.3246 C   0  0  0  0  0  0  0  0  0  0  0  0
    1.7533    1.9989   -5.3948 C   0  0  0  0  0  0  0  0  0  0  0  0
    1.5267   -3.0549   -3.5735 C   0  0  0  0  0  0  0  0  0  0  0  0
    1.8158   -1.7858   -2.7595 C   0  0  0  0  0  0  0  0  0  0  0  0
    0.5811   -2.7599   -4.7467 C   0  0  0  0  0  0  0  0  0  0  0  0
    2.3596   -0.6613   -3.6515 C   0  0  0  0  0  0  0  0  0  0  0  0
    1.1182   -1.6305   -5.6376 C   0  0  0  0  0  0  0  0  0  0  0  0
    1.4038   -0.3662   -4.8191 C   0  0  0  0  0  0  0  0  0  0  0  0
    4.6639    3.2205   -9.1168 C   0  0  0  0  0  0  0  0  0  0  0  0
    5.0434    6.3411   -5.8814 C   0  0  0  0  0  0  0  0  0  0  0  0
    5.1105    7.7050   -8.0183 C   0  0  0  0  0  0  0  0  0  0  0  0
    4.9423    6.3142   -7.4062 C   0  0  0  0  0  0  0  0  0  0  0  0
    3.2565    2.3119   -7.3039 N   0  0  0  0  0  0  0  0  0  0  0  0
    3.3085    4.5249   -7.4104 N   0  0  0  0  0  0  0  0  0  0  0  0
    2.4504    2.8568   -6.3017 N   0  0  0  0  0  0  0  0  0  0  0  0
    1.9211    0.6828   -5.6944 N   0  0  0  0  0  0  0  0  0  0  0  0
    3.6052    5.8250   -7.8109 N   0  0  0  0  0  0  0  0  0  0  0  0
    1.8611    5.0663   -5.6272 O   0  0  0  0  0  0  0  0  0  0  0  0
    1.0845    2.4452   -4.4776 O   0  0  0  0  0  0  0  0  0  0  0  0
    1.0967   -3.8307   -2.9293 H   0  0  0  0  0  0  0  0  0  0  0  0
    2.4720   -3.4577   -3.9635 H   0  0  0  0  0  0  0  0  0  0  0  0
    0.8902   -1.4458   -2.2755 H   0  0  0  0  0  0  0  0  0  0  0  0
    2.5274   -2.0019   -1.9544 H   0  0  0  0  0  0  0  0  0  0  0  0
    0.4234   -3.6632   -5.3473 H   0  0  0  0  0  0  0  0  0  0  0  0
   -0.4026   -2.4693   -4.3539 H   0  0  0  0  0  0  0  0  0  0  0  0
    2.5103    0.2558   -3.0733 H   0  0  0  0  0  0  0  0  0  0  0  0
    3.3368   -0.9533   -4.0614 H   0  0  0  0  0  0  0  0  0  0  0  0
    2.0488   -1.9631   -6.1216 H   0  0  0  0  0  0  0  0  0  0  0  0
    0.4070   -1.3962   -6.4376 H   0  0  0  0  0  0  0  0  0  0  0  0
    0.4634    0.0123   -4.4068 H   0  0  0  0  0  0  0  0  0  0  0  0
    4.2340    3.7200   -9.9918 H   0  0  0  0  0  0  0  0  0  0  0  0
    4.8069    2.1652   -9.3540 H   0  0  0  0  0  0  0  0  0  0  0  0
    5.6389    3.6744   -8.9173 H   0  0  0  0  0  0  0  0  0  0  0  0
    4.2440    6.9548   -5.4580 H   0  0  0  0  0  0  0  0  0  0  0  0
    4.9570    5.3376   -5.4554 H   0  0  0  0  0  0  0  0  0  0  0  0
    6.0133    6.7500   -5.5806 H   0  0  0  0  0  0  0  0  0  0  0  0
    4.3405    8.3832   -7.6383 H   0  0  0  0  0  0  0  0  0  0  0  0
    5.0361    7.6768   -9.1124 H   0  0  0  0  0  0  0  0  0  0  0  0
    6.0926    8.1132   -7.7635 H   0  0  0  0  0  0  0  0  0  0  0  0
    5.7378    5.6595   -7.7995 H   0  0  0  0  0  0  0  0  0  0  0  0
    2.5742    0.4484   -6.4325 H   0  0  0  0  0  0  0  0  0  0  0  0
    3.4567    5.9073   -8.8140 H   0  0  0  0  0  0  0  0  0  0  0  0
  1 10  1  0  0  0  0
  1 14  2  0  0  0  0
  1 15  1  0  0  0  0
  2 15  1  0  0  0  0
  2 16  1  0  0  0  0
  2 19  2  0  0  0  0
  3 16  1  0  0  0  0
  3 17  1  0  0  0  0
  3 20  2  0  0  0  0
  4  5  1  0  0  0  0
  4  6  1  0  0  0  0
  4 21  1  0  0  0  0
  4 22  1  0  0  0  0
  5  7  1  0  0  0  0
  5 23  1  0  0  0  0
  5 24  1  0  0  0  0
  6  8  1  0  0  0  0
  6 25  1  0  0  0  0
  6 26  1  0  0  0  0
  7  9  1  0  0  0  0
  7 27  1  0  0  0  0
  7 28  1  0  0  0  0
  8  9  1  0  0  0  0
  8 29  1  0  0  0  0
  8 30  1  0  0  0  0
  9 17  1  0  0  0  0
  9 31  1  0  0  0  0
 10 32  1  0  0  0  0
 10 33  1  0  0  0  0
 10 34  1  0  0  0  0
 11 13  1  0  0  0  0
 11 35  1  0  0  0  0
 11 36  1  0  0  0  0
 11 37  1  0  0  0  0
 12 13  1  0  0  0  0
 12 38  1  0  0  0  0
 12 39  1  0  0  0  0
 12 40  1  0  0  0  0
 13 18  1  0  0  0  0
 13 41  1  0  0  0  0
 14 16  1  0  0  0  0
 15 18  1  0  0  0  0
 17 42  1  0  0  0  0
 18 43  1  0  0  0  0
M  END
$$$$
