25
0 1 C7H11N3O2S2
C                     1.349009105424     8.728598000413     0.586462501137
C                     0.215120008409     6.691491216452     0.208504017959
C                     1.969460203710    10.022494426493     1.053141438428
C                     0.789805840060     0.129933113953     0.057683358732
C                     1.275249893376     1.582281262728    -0.001915145243
C                     0.121160689327     2.589108466082     0.108374376181
C                     0.620978074119     4.029880942750     0.046407259136
N                     1.488189072540     8.298115181215    -0.641622843472
N                     0.824158283583     7.121185424020    -0.858276629693
N                     2.284239510609    10.053867141937     2.393082489085
O                     2.121172605913    10.968720959487     0.299588079126
O                    -1.233149009588     5.079501955700     1.734042656158
S                     0.365870752743     7.703771559211     1.615032611808
S                    -0.804056550592     5.185745610426     0.283450402037
H                     0.097620722662    -0.089925321829    -0.762808446462
H                     1.628452233656    -0.569865958613    -0.016077895940
H                     0.265946183010    -0.072628312723     0.998394812128
H                     1.990762803837     1.764556871537     0.809849802775
H                     1.820429322353     1.751434636698    -0.939142670513
H                    -0.598040131200     2.412275275549    -0.701384408113
H                    -0.413306626541     2.432818972054     1.052033923444
H                     1.332572353250     4.251035592818     0.847900808701
H                     1.065346492742     4.285416183278    -0.920603116274
H                     2.794981785374    10.873623999362     2.701827090824
H                     2.458110208364     9.195314382284     2.900606450933
