41
0 1 C13H21N3O2S2
C                     4.249670781291    -2.593707751599    -6.085929852514
C                     5.342533689930    -1.047753356069    -7.502479512244
C                     3.497272213665    -3.367281683984    -5.029769616852
C                     0.043436871033    -1.611799730642    -0.330043111326
C                     0.747783369750    -0.843182008511    -1.456713463880
C                    -0.163048261782    -3.085458083820    -0.706841865604
C                     2.069248372725    -1.516448749580    -1.853911025944
C                     1.159658074510    -3.754136286961    -1.107458658589
C                     1.864296388000    -2.989553853277    -2.238983434160
C                     5.465287864133     1.612917718043   -10.634331213012
C                     3.516959383937     0.798249968436    -9.203668402365
C                     3.183952144675    -3.682835367646    -2.604166965627
C                     4.923082601584     0.514191726997    -9.718973020786
N                     4.616082871737    -3.127943303725    -7.221988184501
N                     5.259196682584    -2.231056079081    -8.035261710911
N                     3.859988096546    -3.072151335471    -3.749045258229
O                     2.625606844906    -4.173100362937    -5.331159486171
O                     5.863461615273     1.542251996592    -7.346088876576
S                     4.648989126862    -0.894142149615    -5.913486525616
S                     6.133376606196     0.384709763074    -8.290766783046
H                    -0.918752768780    -1.142166650989    -0.094526110209
H                     0.653146026492    -1.553876966848     0.582549648422
H                     0.088240776139    -0.802084735762    -2.334257721569
H                     0.931532176163     0.194238231168    -1.153916327146
H                    -0.620864708486    -3.631059251159     0.126469754945
H                    -0.866354615065    -3.149117504294    -1.548128625936
H                     2.531046190009    -0.970230630407    -2.685248408031
H                     2.771475045746    -1.461356131345    -1.008101356242
H                     1.823908286797    -3.794410964320    -0.231368749212
H                     0.980293776460    -4.791665283141    -1.414476015329
H                     1.221972675771    -3.029632989073    -3.128562599815
H                     5.467639786954     2.579821638873   -10.122039840755
H                     6.482614065058     1.395951288635   -10.975181800471
H                     4.824366767852     1.698482603781   -11.517504836701
H                     3.523657518566     1.665613089430    -8.536781384705
H                     3.097732756688    -0.056171689945    -8.666477601897
H                     2.857892229590     1.020247687761   -10.049317186319
H                     2.996294226830    -4.731961488776    -2.848926274275
H                     3.877008324804    -3.651749281038    -1.756841314344
H                     4.990245000563    -0.468040610798   -10.198638898179
H                     4.639971941900    -2.450241845960    -3.586252948881
