24
1 1 C10H10N3O
C                     0.459893165624     3.795547938600    -2.003515212599
C                    -1.002143196566     2.749824247014    -0.313121765122
C                    -1.404005476909     1.637683343797     0.424974973453
C                     0.678929979702     1.414258100153    -1.464273702270
C                     0.041027093268     2.646181270732    -1.252437571834
C                     0.260173214190     0.312457134420    -0.727112305582
C                    -0.764779060061     0.417696511344     0.222517953441
C                     0.599048917592    -1.982681886822    -0.105377714430
C                    -0.146752418916    -1.654982612490     1.179504061447
C                     0.822566169277    -1.172935961534     2.263596683336
N                     0.807345815590     4.721525823134    -2.617609548474
N                     0.814823433542    -0.983823361996    -0.944899536470
N                     1.032171214507    -3.218440999500    -0.325184629519
O                    -1.176983421056    -0.705015288751     0.897764521083
H                    -1.489550931259     3.707101084980    -0.160692264296
H                    -2.206220056883     1.701675002890     1.153188650272
H                     1.478389509656     1.332676712288    -2.195587293897
H                    -0.679749955666    -2.548338780485     1.511717286180
H                     1.368199362420    -0.280481479755     1.946929293317
H                     1.544959161367    -1.955104022867     2.514296974568
H                     0.245685501060    -0.932833904475     3.159534717526
H                     1.334931779804    -1.134169407475    -1.807097099413
H                     1.561061357124    -3.484030151938    -1.151475200922
H                     0.831642055866    -3.955791889255     0.342053645389
