
  -OEChem-05262117483D

 50 50  0     1  0  0  0  0  0999 V2000
   -5.0882   -1.3493    1.4391 C   0  0  0  0  0  0  0  0  0  0  0  0
   -5.9203   -3.2688   -0.9252 C   0  0  0  0  0  0  0  0  0  0  0  0
   -5.4842   -0.8079    2.7991 C   0  0  0  0  0  0  0  0  0  0  0  0
   -7.0221   -0.8401    2.7844 C   0  0  0  0  0  0  0  0  0  0  0  0
   -7.3959   -0.8280    1.2826 C   0  0  1  0  0  0  0  0  0  0  0  0
   -6.2829   -7.5805   -1.9652 C   0  0  0  0  0  0  0  0  0  0  0  0
   -8.1251   -7.7853   -0.2649 C   0  0  0  0  0  0  0  0  0  0  0  0
   -6.3329   -4.7380    2.1664 C   0  0  0  0  0  0  0  0  0  0  0  0
   -5.9564   -7.2315    2.5610 C   0  0  0  0  0  0  0  0  0  0  0  0
   -6.1183   -1.7594   -0.7681 C   0  0  0  0  0  0  0  0  0  0  0  0
   -4.2764   -5.0987   -1.0671 C   0  0  0  0  0  0  0  0  0  0  0  0
   -4.6291   -6.1067    0.0327 C   0  0  0  0  0  0  0  0  0  0  0  0
   -6.6201   -7.6016   -0.4719 C   0  0  0  0  0  0  0  0  0  0  0  0
   -6.5760   -6.1626    1.6644 C   0  0  0  0  0  0  0  0  0  0  0  0
   -7.6994    0.5916    0.7816 C   0  0  0  0  0  0  0  0  0  0  0  0
   -6.2087   -1.3856    0.6418 N   0  0  0  0  0  0  0  0  0  0  0  0
   -4.6562   -3.7185   -0.7869 N   0  0  0  0  0  0  0  0  0  0  0  0
   -6.1251   -6.3116    0.2040 N   0  3  0  0  0  0  0  0  0  0  0  0
   -3.9729   -1.7183    1.0710 O   0  0  0  0  0  0  0  0  0  0  0  0
   -6.8862   -4.0274   -1.1470 O   0  0  0  0  0  0  0  0  0  0  0  0
   -8.7887    1.0831    1.4042 F   0  0  0  0  0  0  0  0  0  0  0  0
   -6.6661    1.4332    1.0102 F   0  0  0  0  0  0  0  0  0  0  0  0
   -7.9451    0.6056   -0.5512 F   0  0  0  0  0  0  0  0  0  0  0  0
   -5.0339   -1.4085    3.5913 H   0  0  0  0  0  0  0  0  0  0  0  0
   -5.0874    0.2076    2.8881 H   0  0  0  0  0  0  0  0  0  0  0  0
   -7.3913   -1.7686    3.2261 H   0  0  0  0  0  0  0  0  0  0  0  0
   -7.4803   -0.0117    3.3251 H   0  0  0  0  0  0  0  0  0  0  0  0
   -8.2825   -1.4295    1.0640 H   0  0  0  0  0  0  0  0  0  0  0  0
   -6.7564   -6.7324   -2.4682 H   0  0  0  0  0  0  0  0  0  0  0  0
   -5.2097   -7.5618   -2.1635 H   0  0  0  0  0  0  0  0  0  0  0  0
   -6.6704   -8.4968   -2.4164 H   0  0  0  0  0  0  0  0  0  0  0  0
   -8.6832   -6.9002   -0.5879 H   0  0  0  0  0  0  0  0  0  0  0  0
   -8.3941   -8.0224    0.7657 H   0  0  0  0  0  0  0  0  0  0  0  0
   -8.4571   -8.6239   -0.8812 H   0  0  0  0  0  0  0  0  0  0  0  0
   -5.2749   -4.4762    2.2426 H   0  0  0  0  0  0  0  0  0  0  0  0
   -6.8315   -4.0027    1.5321 H   0  0  0  0  0  0  0  0  0  0  0  0
   -6.7611   -4.6590    3.1695 H   0  0  0  0  0  0  0  0  0  0  0  0
   -4.8692   -7.1377    2.6312 H   0  0  0  0  0  0  0  0  0  0  0  0
   -6.1979   -8.2452    2.2329 H   0  0  0  0  0  0  0  0  0  0  0  0
   -6.3579   -7.1135    3.5706 H   0  0  0  0  0  0  0  0  0  0  0  0
   -5.2949   -1.2117   -1.2358 H   0  0  0  0  0  0  0  0  0  0  0  0
   -7.0464   -1.4994   -1.2713 H   0  0  0  0  0  0  0  0  0  0  0  0
   -3.1911   -5.1223   -1.1903 H   0  0  0  0  0  0  0  0  0  0  0  0
   -4.7190   -5.3897   -2.0207 H   0  0  0  0  0  0  0  0  0  0  0  0
   -4.2207   -5.7613    0.9796 H   0  0  0  0  0  0  0  0  0  0  0  0
   -4.1767   -7.0750   -0.1858 H   0  0  0  0  0  0  0  0  0  0  0  0
   -6.0732   -8.4135    0.0134 H   0  0  0  0  0  0  0  0  0  0  0  0
   -7.6543   -6.3067    1.6264 H   0  0  0  0  0  0  0  0  0  0  0  0
   -3.9777   -3.0613   -0.3963 H   0  0  0  0  0  0  0  0  0  0  0  0
   -6.5771   -5.5259   -0.3226 H   0  0  0  0  0  0  0  0  0  0  0  0
  1  3  1  0  0  0  0
  1 16  1  0  0  0  0
  1 19  2  0  0  0  0
  2 10  1  0  0  0  0
  2 17  1  0  0  0  0
  2 20  2  0  0  0  0
  3  4  1  0  0  0  0
  3 24  1  0  0  0  0
  3 25  1  0  0  0  0
  4  5  1  0  0  0  0
  4 26  1  0  0  0  0
  4 27  1  0  0  0  0
  5 15  1  0  0  0  0
  5 16  1  0  0  0  0
  5 28  1  0  0  0  0
  6 13  1  0  0  0  0
  6 29  1  0  0  0  0
  6 30  1  0  0  0  0
  6 31  1  0  0  0  0
  7 13  1  0  0  0  0
  7 32  1  0  0  0  0
  7 33  1  0  0  0  0
  7 34  1  0  0  0  0
  8 14  1  0  0  0  0
  8 35  1  0  0  0  0
  8 36  1  0  0  0  0
  8 37  1  0  0  0  0
  9 14  1  0  0  0  0
  9 38  1  0  0  0  0
  9 39  1  0  0  0  0
  9 40  1  0  0  0  0
 10 16  1  0  0  0  0
 10 41  1  0  0  0  0
 10 42  1  0  0  0  0
 11 12  1  0  0  0  0
 11 17  1  0  0  0  0
 11 43  1  0  0  0  0
 11 44  1  0  0  0  0
 12 18  1  0  0  0  0
 12 45  1  0  0  0  0
 12 46  1  0  0  0  0
 13 18  1  0  0  0  0
 13 47  1  0  0  0  0
 14 18  1  0  0  0  0
 14 48  1  0  0  0  0
 15 21  1  0  0  0  0
 15 22  1  0  0  0  0
 15 23  1  0  0  0  0
 17 49  1  0  0  0  0
 18 50  1  0  0  0  0
M  CHG  1  18   1
M  END
$$$$
