
  -OEChem-05262117483D

 43 44  0     0  0  0  0  0  0999 V2000
    4.0422    3.6679   -7.8034 C   0  0  0  0  0  0  0  0  0  0  0  0
    2.7598    4.5681   -6.1684 C   0  0  0  0  0  0  0  0  0  0  0  0
    2.1614    2.2842   -5.1993 C   0  0  0  0  0  0  0  0  0  0  0  0
   -0.3873    1.9738   -0.4837 C   0  0  0  0  0  0  0  0  0  0  0  0
   -1.3033    2.2702   -1.6799 C   0  0  0  0  0  0  0  0  0  0  0  0
    0.8607    1.1928   -0.9193 C   0  0  0  0  0  0  0  0  0  0  0  0
   -0.5501    2.9946   -2.8048 C   0  0  0  0  0  0  0  0  0  0  0  0
    1.6152    1.9241   -2.0382 C   0  0  0  0  0  0  0  0  0  0  0  0
    0.6928    2.2071   -3.2348 C   0  0  0  0  0  0  0  0  0  0  0  0
    4.9061    3.5777   -9.0140 C   0  0  0  0  0  0  0  0  0  0  0  0
    5.3429    6.7273   -5.8264 C   0  0  0  0  0  0  0  0  0  0  0  0
    5.2807    8.0755   -7.9736 C   0  0  0  0  0  0  0  0  0  0  0  0
    5.1658    6.6873   -7.3437 C   0  0  0  0  0  0  0  0  0  0  0  0
    3.5917    2.6431   -7.1458 N   0  0  0  0  0  0  0  0  0  0  0  0
    3.5732    4.8643   -7.2657 N   0  0  0  0  0  0  0  0  0  0  0  0
    2.8082    3.1768   -6.1299 N   0  0  0  0  0  0  0  0  0  0  0  0
    1.3888    2.9334   -4.2963 N   0  0  0  0  0  0  0  0  0  0  0  0
    3.8171    6.1740   -7.6773 N   0  0  0  0  0  0  0  0  0  0  0  0
    2.1732    5.3485   -5.4238 O   0  0  0  0  0  0  0  0  0  0  0  0
    2.3272    1.0788   -5.2788 O   0  0  0  0  0  0  0  0  0  0  0  0
   -0.9375    1.4160    0.2832 H   0  0  0  0  0  0  0  0  0  0  0  0
   -0.0775    2.9219   -0.0225 H   0  0  0  0  0  0  0  0  0  0  0  0
   -1.7074    1.3255   -2.0685 H   0  0  0  0  0  0  0  0  0  0  0  0
   -2.1634    2.8713   -1.3631 H   0  0  0  0  0  0  0  0  0  0  0  0
    1.5266    1.0290   -0.0643 H   0  0  0  0  0  0  0  0  0  0  0  0
    0.5606    0.1983   -1.2767 H   0  0  0  0  0  0  0  0  0  0  0  0
   -1.2040    3.1505   -3.6702 H   0  0  0  0  0  0  0  0  0  0  0  0
   -0.2407    3.9895   -2.4534 H   0  0  0  0  0  0  0  0  0  0  0  0
    2.0039    2.8802   -1.6612 H   0  0  0  0  0  0  0  0  0  0  0  0
    2.4725    1.3353   -2.3793 H   0  0  0  0  0  0  0  0  0  0  0  0
    0.3792    1.2487   -3.6613 H   0  0  0  0  0  0  0  0  0  0  0  0
    4.4447    4.0826   -9.8698 H   0  0  0  0  0  0  0  0  0  0  0  0
    5.0430    2.5244   -9.2624 H   0  0  0  0  0  0  0  0  0  0  0  0
    5.8872    4.0315   -8.8444 H   0  0  0  0  0  0  0  0  0  0  0  0
    4.5621    7.3407   -5.3686 H   0  0  0  0  0  0  0  0  0  0  0  0
    5.2862    5.7262   -5.3897 H   0  0  0  0  0  0  0  0  0  0  0  0
    6.3236    7.1448   -5.5772 H   0  0  0  0  0  0  0  0  0  0  0  0
    4.5206    8.7456   -7.5605 H   0  0  0  0  0  0  0  0  0  0  0  0
    5.1517    8.0368   -9.0621 H   0  0  0  0  0  0  0  0  0  0  0  0
    6.2680    8.5004   -7.7723 H   0  0  0  0  0  0  0  0  0  0  0  0
    5.9495    6.0418   -7.7720 H   0  0  0  0  0  0  0  0  0  0  0  0
    1.3769    3.9520   -4.3144 H   0  0  0  0  0  0  0  0  0  0  0  0
    3.6247    6.2440   -8.6742 H   0  0  0  0  0  0  0  0  0  0  0  0
  1 10  1  0  0  0  0
  1 14  2  0  0  0  0
  1 15  1  0  0  0  0
  2 15  1  0  0  0  0
  2 16  1  0  0  0  0
  2 19  2  0  0  0  0
  3 16  1  0  0  0  0
  3 17  1  0  0  0  0
  3 20  2  0  0  0  0
  4  5  1  0  0  0  0
  4  6  1  0  0  0  0
  4 21  1  0  0  0  0
  4 22  1  0  0  0  0
  5  7  1  0  0  0  0
  5 23  1  0  0  0  0
  5 24  1  0  0  0  0
  6  8  1  0  0  0  0
  6 25  1  0  0  0  0
  6 26  1  0  0  0  0
  7  9  1  0  0  0  0
  7 27  1  0  0  0  0
  7 28  1  0  0  0  0
  8  9  1  0  0  0  0
  8 29  1  0  0  0  0
  8 30  1  0  0  0  0
  9 17  1  0  0  0  0
  9 31  1  0  0  0  0
 10 32  1  0  0  0  0
 10 33  1  0  0  0  0
 10 34  1  0  0  0  0
 11 13  1  0  0  0  0
 11 35  1  0  0  0  0
 11 36  1  0  0  0  0
 11 37  1  0  0  0  0
 12 13  1  0  0  0  0
 12 38  1  0  0  0  0
 12 39  1  0  0  0  0
 12 40  1  0  0  0  0
 13 18  1  0  0  0  0
 13 41  1  0  0  0  0
 14 16  1  0  0  0  0
 15 18  1  0  0  0  0
 17 42  1  0  0  0  0
 18 43  1  0  0  0  0
M  END
$$$$
