51
0 1 C22H26N2O
C                    -7.599488310255    -5.972429553656     8.364611483672
C                    -2.314478712591    -2.187314698313    -2.588336724622
C                    -6.955578934390    -4.751927307892     8.121019756914
C                    -7.722524112569    -6.886548275268     7.317615417234
C                    -0.921232990616    -2.055366631003    -2.599753204348
C                    -2.926238297447    -2.967053312364    -1.604171641150
C                    -6.450142857102    -4.453643264291     6.857891995783
C                    -7.204447293494    -6.600537422839     6.049264819912
C                    -0.144275821944    -2.714915003229    -1.643560766906
C                    -2.168253719309    -3.633191930570    -0.627162351218
C                    -6.559009214627    -5.375510357375     5.794679336058
C                    -0.762608777317    -3.507019139292    -0.674330683602
C                    -1.930631508371    -5.210344518899     1.189775147685
C                    -2.745899170306    -4.425455883441     0.466856328076
C                    -4.655820968696    -4.595135010845     4.467196085335
C                    -6.374355150052    -5.925393870123     3.409814789135
C                    -4.339160749028    -3.953114003856     3.123450668583
C                    -6.034961366286    -5.267325680640     2.074708026302
C                    -0.459203573634    -5.331158798241     0.874579891623
C                    -0.207763556163    -6.490215394058    -0.102874420468
C                     0.370630172576    -5.490058749908     2.147957540152
C                    -4.235689771215    -4.339192002234     0.735242981130
N                    -6.059147490077    -5.028789612409     4.517811568029
N                    -4.624984145722    -4.885759373075     2.030806871059
O                     0.033913411651    -4.100918469401     0.264717269482
H                    -7.999310686535    -6.200031820569     9.348836967431
H                    -2.918861815843    -1.683846165396    -3.337680622091
H                    -6.861500984360    -4.017953108502     8.917776556599
H                    -8.216157670064    -7.841067957088     7.484241843020
H                    -0.436162615787    -1.445644420743    -3.357635556032
H                    -4.008516000256    -3.057985658424    -1.597433029756
H                    -5.991821310750    -3.484725030409     6.683831969006
H                    -7.297820739319    -7.345701989825     5.267593306722
H                     0.938653038715    -2.630945544448    -1.636338122410
H                    -2.332314752188    -5.813143302625     1.999186791729
H                    -3.981865910954    -5.454391121096     4.627710350293
H                    -4.465316839474    -3.872069460979     5.260634695195
H                    -7.445143362555    -6.146064931598     3.426241312313
H                    -5.824843019161    -6.880271074651     3.486770257994
H                    -4.930586307972    -3.024254998123     3.015625303174
H                    -3.280440692695    -3.682594316843     3.093277227452
H                    -6.233313516342    -5.983429200494     1.270147370915
H                    -6.699347682952    -4.395185719300     1.925435268626
H                     0.860992028464    -6.574361740906    -0.325935838904
H                    -0.751771418547    -6.325279678876    -1.037420901150
H                    -0.553328424640    -7.434267781315     0.330702587841
H                     1.436281921192    -5.522460625066     1.903208248830
H                     0.102216875450    -6.418515136452     2.661217153243
H                     0.193326649337    -4.650380021534     2.825739512230
H                    -4.760259986256    -4.903299846032    -0.046551899143
H                    -4.567317593659    -3.290138214337     0.627505972440
