41
0 1 C16H21NO3
C                    -1.434016831060    -3.910637822298     0.242229164234
C                    -2.664310194039    -4.560429521454     0.070245819334
C                    -2.219739560929    -2.106705636530    -1.151222434136
C                    -1.198914106906    -2.677993404348    -0.367245163546
C                    -3.676590092290    -3.994099657257    -0.695396418717
C                    -3.454557055678    -2.739851505596    -1.313910823664
C                     2.030234756410    -1.318227697887     1.113224218928
C                    -5.643069541316    -0.572088005471    -3.278960928002
C                    -5.860712370327    -0.295953070906    -4.576044593713
C                     1.194813623828    -2.522323608584     0.675944986309
C                    -0.056889815170    -0.491484293670     0.344668114192
C                     0.107960877109    -1.924092592581    -0.230716506549
C                    -7.241650176522     0.081506271160    -5.057669903190
C                    -4.809876138955    -0.319650642420    -5.659674122042
C                    -5.233663395326    -5.127691430763    -2.089538175297
C                    -4.341337217853    -0.934491694966    -2.634566651183
N                     1.290632228207    -0.196990471257     0.818523752814
O                     3.131596880774    -1.333170265289     1.646259242591
O                    -4.889431085026    -4.638315146263    -0.784225364742
O                    -4.496812863791    -2.235293269799    -2.039919821221
H                    -0.667121559583    -4.387693490765     0.843121354220
H                    -2.858967792855    -5.521365445203     0.538348169237
H                    -2.036603028424    -1.152120156815    -1.632790163841
H                    -6.486443889868    -0.534463161827    -2.590441093052
H                     1.817579269148    -3.280651183514     0.198820027378
H                     0.772471576878    -2.958234547689     1.588765043544
H                    -0.377204379194     0.229403083420    -0.413175676349
H                    -0.792294745694    -0.484463371526     1.161139283857
H                     0.545485251071    -1.809105041172    -1.230722091772
H                    -7.232991218073     1.072427534709    -5.529366377082
H                    -7.592230311429    -0.626020492633    -5.819694537660
H                    -7.969607175935     0.096678602015    -4.242505044511
H                    -5.141370973874    -0.953804345359    -6.490788561770
H                    -4.663032913230     0.686125196944    -6.073096093340
H                    -3.839854956888    -0.688997136918    -5.323181679336
H                    -6.179383029470    -5.660360687138    -1.970651789078
H                    -4.465992963904    -5.823559102954    -2.451487105772
H                    -5.358217168928    -4.307436173074    -2.801584482893
H                    -4.095741449373    -0.212246242774    -1.842898832314
H                    -3.511219652738    -0.950466803524    -3.347648653832
H                     1.564943940902     0.698698981939     1.203892701356
