66
0 1 C30FH30NO4
C                    -4.305965372643     2.933061016266     4.402986712153
C                    -3.986159305585     1.330768493975     6.174298467284
C                    -0.610321551077     0.189468423586     0.974278788443
C                    -4.637988903221    -1.333023185775    -0.550509402387
C                    -6.519887635577    -2.004967915169     0.804579843353
C                    -1.587698899635    -0.779102209662     1.155236031608
C                    -4.573892011947     3.934137714373     5.341674634230
C                    -4.253977225431     2.314665834945     7.118509046776
C                    -5.499140912540    -0.819565014811    -1.522211611115
C                    -7.399960190852    -1.503542254998    -0.159584701686
C                    -1.540992713584     1.601262023759     2.712616135715
C                    -2.561321852301     0.647458588584     2.901540115328
C                    -4.016334122576     1.616675701755     4.793423765470
C                    -3.693657856537     0.589682486254     3.779664028442
C                    -5.132075579286    -1.923204416259     0.622515894844
C                    -0.572162180241     1.385546738613     1.739895726532
C                    -2.575180093264    -0.542385119300     2.126356044862
C                    -4.549627686349     3.626658835729     6.710513433224
C                    -6.870004613422    -0.916005608792    -1.303254226537
C                    -4.355731594707    -0.606939362561     3.506957050929
C                    -5.590411799721    -1.148594799405     4.114196800934
C                    -2.838943727203     1.871243876222    -3.391313827789
C                    -2.279061426934     0.821574718730    -2.453977260264
C                    -1.439491666731     2.019312708118    -2.829897961380
C                    -5.341172725521     6.641007318962     8.647800567419
C                     0.460679041408     2.444014694924     1.422678727770
C                    -4.180620278024    -2.415430415291     1.696951667651
C                    -1.178189542922     3.063925905452    -1.777951145797
C                    -5.111427592535     5.873118691901     7.357979663128
C                    -0.011137830883     3.362566069441     0.289662535023
N                    -3.655496654747    -1.310759075948     2.518101287745
O                    -5.961396626863    -2.304752509544     3.996499290695
O                    -6.349945141967    -0.281465923995     4.830356270694
O                    -4.795980384620     4.519621195336     7.711360066247
O                    -0.182510791037     2.577625177733    -0.882673281344
F                    -7.720089966193    -0.421196044907    -2.242411295961
H                    -4.335509325731     3.175227880467     3.343922912887
H                    -3.748681104932     0.322833553382     6.503228576058
H                     0.144356145753     0.041768216535     0.208049692865
H                    -3.567494532239    -1.264311578177    -0.711565158509
H                    -6.915005806375    -2.454985533354     1.710130307489
H                    -1.574173114254    -1.685096812232     0.557409052989
H                    -4.802807897785     4.935307648213     4.995310898670
H                    -4.234434330034     2.092224998499     8.181247039835
H                    -5.120827393787    -0.353959719871    -2.427110409393
H                    -8.476637965789    -1.560896952348    -0.031503824389
H                    -1.526311427430     2.505139472977     3.317921526052
H                    -2.940628488508     1.622327896460    -4.443505869384
H                    -3.614559892029     2.530712374441    -3.010788734596
H                    -2.655806279222     0.791428948276    -1.436579720959
H                    -2.007546765054    -0.146309868015    -2.865993456426
H                    -0.615898914832     1.843639087731    -3.517556465167
H                    -6.168763294827     6.204859652432     9.214357919607
H                    -4.444303402942     6.622119693121     9.273486842309
H                    -5.585820139647     7.683764406063     8.421659316450
H                     0.662935995393     3.062037716496     2.304871934257
H                     1.408378205786     1.981856751381     1.125887276118
H                    -4.673259908422    -3.123320453947     2.358006909028
H                    -3.316038692370    -2.911882021352     1.251538351584
H                    -2.106692708731     3.266980774002    -1.221212290453
H                    -0.851692453376     4.010968085740    -2.237276128558
H                    -4.280762069710     6.306877874757     6.785612622513
H                    -6.009806752949     5.888334886255     6.726934855134
H                    -0.964576885213     3.830315770359     0.577313222960
H                     0.719850565473     4.166365339365     0.109550879998
H                    -5.932984610288     0.601490229027     4.862001628820
