
  -OEChem-05262117483D

 65 69  0     0  0  0  0  0  0999 V2000
   -5.3878    2.6862    4.4749 C   0  0  0  0  0  0  0  0  0  0  0  0
   -3.0610    2.7124    5.0830 C   0  0  0  0  0  0  0  0  0  0  0  0
   -0.6545    0.2657    0.6233 C   0  0  0  0  0  0  0  0  0  0  0  0
   -4.5988   -1.9081   -1.2387 C   0  0  0  0  0  0  0  0  0  0  0  0
   -6.1695   -0.4858   -0.0764 C   0  0  0  0  0  0  0  0  0  0  0  0
   -1.7714   -0.5583    0.7835 C   0  0  0  0  0  0  0  0  0  0  0  0
   -5.6433    3.6997    5.4052 C   0  0  0  0  0  0  0  0  0  0  0  0
   -3.3027    3.7270    6.0063 C   0  0  0  0  0  0  0  0  0  0  0  0
   -5.1012   -1.4840   -2.4745 C   0  0  0  0  0  0  0  0  0  0  0  0
   -6.6826   -0.0525   -1.3008 C   0  0  0  0  0  0  0  0  0  0  0  0
   -1.4723    1.8095    2.3142 C   0  0  0  0  0  0  0  0  0  0  0  0
   -2.6057    1.0005    2.5093 C   0  0  0  0  0  0  0  0  0  0  0  0
   -4.0936    2.1695    4.2890 C   0  0  0  0  0  0  0  0  0  0  0  0
   -3.8093    1.1116    3.3067 C   0  0  0  0  0  0  0  0  0  0  0  0
   -5.1204   -1.4212   -0.0353 C   0  0  0  0  0  0  0  0  0  0  0  0
   -0.5086    1.4589    1.3618 C   0  0  0  0  0  0  0  0  0  0  0  0
   -2.7399   -0.1773    1.7142 C   0  0  0  0  0  0  0  0  0  0  0  0
   -4.5992    4.2305    6.1724 C   0  0  0  0  0  0  0  0  0  0  0  0
   -6.1370   -0.5608   -2.4758 C   0  0  0  0  0  0  0  0  0  0  0  0
   -4.6161    0.0283    2.9698 C   0  0  0  0  0  0  0  0  0  0  0  0
   -6.0190   -0.3993    3.4175 C   0  0  0  0  0  0  0  0  0  0  0  0
   -3.6569    1.8116   -2.5144 C   0  0  0  0  0  0  0  0  0  0  0  0
   -2.3683    1.0455   -2.7068 C   0  0  0  0  0  0  0  0  0  0  0  0
   -2.3274    2.5367   -2.4539 C   0  0  0  0  0  0  0  0  0  0  0  0
   -5.9606    6.7991    8.4260 C   0  0  0  0  0  0  0  0  0  0  0  0
    0.6000    2.4252    1.0096 C   0  0  0  0  0  0  0  0  0  0  0  0
   -4.5491   -1.8657    1.3002 C   0  0  0  0  0  0  0  0  0  0  0  0
   -1.8590    3.0558   -1.1228 C   0  0  0  0  0  0  0  0  0  0  0  0
   -6.0573    5.7386    7.3402 C   0  0  0  0  0  0  0  0  0  0  0  0
    0.1224    3.5876    0.1188 C   0  0  0  0  0  0  0  0  0  0  0  0
   -3.9497   -0.7618    2.0365 N   0  0  0  0  0  0  0  0  0  0  0  0
   -6.0785   -1.5111    3.9976 O   0  5  0  0  0  0  0  0  0  0  0  0
   -6.9481    0.3881    3.0807 O   0  0  0  0  0  0  0  0  0  0  0  0
   -4.7455    5.2349    7.1124 O   0  0  0  0  0  0  0  0  0  0  0  0
   -0.4270    3.1544   -1.1228 O   0  0  0  0  0  0  0  0  0  0  0  0
   -6.6258   -0.1218   -3.6761 F   0  0  0  0  0  0  0  0  0  0  0  0
   -6.2026    2.2693    3.8896 H   0  0  0  0  0  0  0  0  0  0  0  0
   -2.0564    2.3081    4.9990 H   0  0  0  0  0  0  0  0  0  0  0  0
    0.0937    0.0128   -0.1240 H   0  0  0  0  0  0  0  0  0  0  0  0
   -3.7783   -2.6225   -1.2189 H   0  0  0  0  0  0  0  0  0  0  0  0
   -6.5809   -0.0885    0.8508 H   0  0  0  0  0  0  0  0  0  0  0  0
   -1.8877   -1.4537    0.1794 H   0  0  0  0  0  0  0  0  0  0  0  0
   -6.6609    4.0600    5.5146 H   0  0  0  0  0  0  0  0  0  0  0  0
   -2.5009    4.1309    6.6195 H   0  0  0  0  0  0  0  0  0  0  0  0
   -4.6884   -1.8387   -3.4141 H   0  0  0  0  0  0  0  0  0  0  0  0
   -7.4890    0.6736   -1.3488 H   0  0  0  0  0  0  0  0  0  0  0  0
   -1.3691    2.7440    2.8611 H   0  0  0  0  0  0  0  0  0  0  0  0
   -4.2969    1.9743   -3.3768 H   0  0  0  0  0  0  0  0  0  0  0  0
   -4.1923    1.6535   -1.5830 H   0  0  0  0  0  0  0  0  0  0  0  0
   -2.0521    0.3963   -1.8974 H   0  0  0  0  0  0  0  0  0  0  0  0
   -2.1251    0.6910   -3.7052 H   0  0  0  0  0  0  0  0  0  0  0  0
   -2.0747    3.1666   -3.3047 H   0  0  0  0  0  0  0  0  0  0  0  0
   -5.5633    6.3683    9.3502 H   0  0  0  0  0  0  0  0  0  0  0  0
   -5.2978    7.6119    8.1127 H   0  0  0  0  0  0  0  0  0  0  0  0
   -6.9514    7.2180    8.6343 H   0  0  0  0  0  0  0  0  0  0  0  0
    1.0410    2.8653    1.9151 H   0  0  0  0  0  0  0  0  0  0  0  0
    1.4040    1.8984    0.4835 H   0  0  0  0  0  0  0  0  0  0  0  0
   -5.3211   -2.2925    1.9441 H   0  0  0  0  0  0  0  0  0  0  0  0
   -3.7851   -2.6346    1.1450 H   0  0  0  0  0  0  0  0  0  0  0  0
   -2.2020    2.3911   -0.3235 H   0  0  0  0  0  0  0  0  0  0  0  0
   -2.2866    4.0542   -0.9327 H   0  0  0  0  0  0  0  0  0  0  0  0
   -6.4635    6.1691    6.4137 H   0  0  0  0  0  0  0  0  0  0  0  0
   -6.7256    4.9236    7.6520 H   0  0  0  0  0  0  0  0  0  0  0  0
   -0.6090    4.1984    0.6672 H   0  0  0  0  0  0  0  0  0  0  0  0
    0.9778    4.2318   -0.1251 H   0  0  0  0  0  0  0  0  0  0  0  0
  1  7  1  0  0  0  0
  1 13  2  0  0  0  0
  1 37  1  0  0  0  0
  2  8  2  0  0  0  0
  2 13  1  0  0  0  0
  2 38  1  0  0  0  0
  3  6  2  0  0  0  0
  3 16  1  0  0  0  0
  3 39  1  0  0  0  0
  4  9  2  0  0  0  0
  4 15  1  0  0  0  0
  4 40  1  0  0  0  0
  5 10  1  0  0  0  0
  5 15  2  0  0  0  0
  5 41  1  0  0  0  0
  6 17  1  0  0  0  0
  6 42  1  0  0  0  0
  7 18  2  0  0  0  0
  7 43  1  0  0  0  0
  8 18  1  0  0  0  0
  8 44  1  0  0  0  0
  9 19  1  0  0  0  0
  9 45  1  0  0  0  0
 10 19  2  0  0  0  0
 10 46  1  0  0  0  0
 11 12  1  0  0  0  0
 11 16  2  0  0  0  0
 11 47  1  0  0  0  0
 12 14  1  0  0  0  0
 12 17  2  0  0  0  0
 13 14  1  0  0  0  0
 14 20  2  0  0  0  0
 15 27  1  0  0  0  0
 16 26  1  0  0  0  0
 17 31  1  0  0  0  0
 18 34  1  0  0  0  0
 19 36  1  0  0  0  0
 20 21  1  0  0  0  0
 20 31  1  0  0  0  0
 21 32  1  0  0  0  0
 21 33  2  0  0  0  0
 22 23  1  0  0  0  0
 22 24  1  0  0  0  0
 22 48  1  0  0  0  0
 22 49  1  0  0  0  0
 23 24  1  0  0  0  0
 23 50  1  0  0  0  0
 23 51  1  0  0  0  0
 24 28  1  0  0  0  0
 24 52  1  0  0  0  0
 25 29  1  0  0  0  0
 25 53  1  0  0  0  0
 25 54  1  0  0  0  0
 25 55  1  0  0  0  0
 26 30  1  0  0  0  0
 26 56  1  0  0  0  0
 26 57  1  0  0  0  0
 27 31  1  0  0  0  0
 27 58  1  0  0  0  0
 27 59  1  0  0  0  0
 28 35  1  0  0  0  0
 28 60  1  0  0  0  0
 28 61  1  0  0  0  0
 29 34  1  0  0  0  0
 29 62  1  0  0  0  0
 29 63  1  0  0  0  0
 30 35  1  0  0  0  0
 30 64  1  0  0  0  0
 30 65  1  0  0  0  0
M  CHG  1  32  -1
M  END
$$$$
