
  -OEChem-05262117483D

 54 58  0     1  0  0  0  0  0999 V2000
   -5.5930   -3.2426    3.5512 C   0  0  0  0  0  0  0  0  0  0  0  0
   -7.4409   -2.1435    2.4802 C   0  0  0  0  0  0  0  0  0  0  0  0
   -5.5946   -4.2366    2.5649 C   0  0  0  0  0  0  0  0  0  0  0  0
   -7.4626   -3.1227    1.4934 C   0  0  0  0  0  0  0  0  0  0  0  0
   -6.5080   -2.1869    3.5287 C   0  0  0  0  0  0  0  0  0  0  0  0
   -6.5342   -4.1756    1.5276 C   0  0  0  0  0  0  0  0  0  0  0  0
   -2.3799   -1.4556    3.9276 C   0  0  0  0  0  0  0  0  0  0  0  0
   -3.8328   -0.6685    2.3985 C   0  0  0  0  0  0  0  0  0  0  0  0
   -1.1839   -0.5637    0.8047 C   0  0  0  0  0  0  0  0  0  0  0  0
   -1.1703   -2.1716    4.4381 C   0  0  0  0  0  0  0  0  0  0  0  0
   -0.0893   -2.2477    3.3461 C   0  0  0  0  0  0  0  0  0  0  0  0
   -0.6923   -2.7449    2.0238 C   0  0  0  0  0  0  0  0  0  0  0  0
   -7.6141   -0.7072    5.3741 C   0  0  0  0  0  0  0  0  0  0  0  0
   -6.4245   -1.4028    6.0054 C   0  0  0  0  0  0  0  0  0  0  0  0
   -2.6306   -0.8449   -1.3225 C   0  0  0  0  0  0  0  0  0  0  0  0
   -1.2452    0.8221   -1.2808 C   0  0  0  0  0  0  0  0  0  0  0  0
   -1.7896   -1.8076    1.4817 C   0  0  1  0  0  0  0  0  0  0  0  0
   -2.4592    0.4433   -2.1567 C   0  0  0  0  0  0  0  0  0  0  0  0
   -6.4134   -1.0745    4.5309 C   0  0  0  0  0  0  0  0  0  0  0  0
   -5.7102   -6.1743    0.5038 C   0  0  0  0  0  0  0  0  0  0  0  0
   -5.5243    0.0821    4.0776 C   0  0  0  0  0  0  0  0  0  0  0  0
   -3.3154   -0.8797    4.6306 N   0  0  0  0  0  0  0  0  0  0  0  0
   -2.6448   -1.3787    2.5764 N   0  0  0  0  0  0  0  0  0  0  0  0
   -4.2032   -0.3685    3.6875 N   0  0  0  0  0  0  0  0  0  0  0  0
   -1.4556   -0.4212   -0.5155 N   0  0  0  0  0  0  0  0  0  0  0  0
   -4.3769   -0.3804    1.3290 O   0  0  0  0  0  0  0  0  0  0  0  0
   -0.4650    0.2226    1.4245 O   0  0  0  0  0  0  0  0  0  0  0  0
   -6.6297   -5.0895    0.5093 O   0  0  0  0  0  0  0  0  0  0  0  0
   -2.1321    0.2064   -3.4913 F   0  0  0  0  0  0  0  0  0  0  0  0
   -4.8588   -3.2870    4.3517 H   0  0  0  0  0  0  0  0  0  0  0  0
   -8.1557   -1.3251    2.4356 H   0  0  0  0  0  0  0  0  0  0  0  0
   -4.8702   -5.0419    2.6208 H   0  0  0  0  0  0  0  0  0  0  0  0
   -8.1835   -3.0916    0.6815 H   0  0  0  0  0  0  0  0  0  0  0  0
   -0.8069   -1.6656    5.3359 H   0  0  0  0  0  0  0  0  0  0  0  0
   -1.4644   -3.1860    4.7385 H   0  0  0  0  0  0  0  0  0  0  0  0
    0.3567   -1.2626    3.1919 H   0  0  0  0  0  0  0  0  0  0  0  0
    0.7035   -2.9311    3.6661 H   0  0  0  0  0  0  0  0  0  0  0  0
    0.0838   -2.8490    1.2601 H   0  0  0  0  0  0  0  0  0  0  0  0
   -1.1348   -3.7377    2.1731 H   0  0  0  0  0  0  0  0  0  0  0  0
   -8.5228   -1.2843    5.2327 H   0  0  0  0  0  0  0  0  0  0  0  0
   -7.7770    0.3429    5.6045 H   0  0  0  0  0  0  0  0  0  0  0  0
   -5.7732   -0.8280    6.6568 H   0  0  0  0  0  0  0  0  0  0  0  0
   -6.5442   -2.4442    6.2875 H   0  0  0  0  0  0  0  0  0  0  0  0
   -3.5525   -0.9059   -0.7405 H   0  0  0  0  0  0  0  0  0  0  0  0
   -2.4562   -1.7565   -1.9021 H   0  0  0  0  0  0  0  0  0  0  0  0
   -0.2979    0.8481   -1.8269 H   0  0  0  0  0  0  0  0  0  0  0  0
   -1.3495    1.7211   -0.6673 H   0  0  0  0  0  0  0  0  0  0  0  0
   -2.4143   -2.3498    0.7679 H   0  0  0  0  0  0  0  0  0  0  0  0
   -3.3021    1.1355   -2.1388 H   0  0  0  0  0  0  0  0  0  0  0  0
   -5.9553   -6.7710   -0.3760 H   0  0  0  0  0  0  0  0  0  0  0  0
   -5.8147   -6.7943    1.4032 H   0  0  0  0  0  0  0  0  0  0  0  0
   -4.6736   -5.8216    0.4246 H   0  0  0  0  0  0  0  0  0  0  0  0
   -5.4203    0.8264    4.8728 H   0  0  0  0  0  0  0  0  0  0  0  0
   -5.9484    0.5682    3.1950 H   0  0  0  0  0  0  0  0  0  0  0  0
  1  3  1  0  0  0  0
  1  5  2  0  0  0  0
  1 30  1  0  0  0  0
  2  4  2  0  0  0  0
  2  5  1  0  0  0  0
  2 31  1  0  0  0  0
  3  6  2  0  0  0  0
  3 32  1  0  0  0  0
  4  6  1  0  0  0  0
  4 33  1  0  0  0  0
  5 19  1  0  0  0  0
  6 28  1  0  0  0  0
  7 10  1  0  0  0  0
  7 22  2  0  0  0  0
  7 23  1  0  0  0  0
  8 23  1  0  0  0  0
  8 24  1  0  0  0  0
  8 26  2  0  0  0  0
  9 17  1  0  0  0  0
  9 25  1  0  0  0  0
  9 27  2  0  0  0  0
 10 11  1  0  0  0  0
 10 34  1  0  0  0  0
 10 35  1  0  0  0  0
 11 12  1  0  0  0  0
 11 36  1  0  0  0  0
 11 37  1  0  0  0  0
 12 17  1  0  0  0  0
 12 38  1  0  0  0  0
 12 39  1  0  0  0  0
 13 14  1  0  0  0  0
 13 19  1  0  0  0  0
 13 40  1  0  0  0  0
 13 41  1  0  0  0  0
 14 19  1  0  0  0  0
 14 42  1  0  0  0  0
 14 43  1  0  0  0  0
 15 18  1  0  0  0  0
 15 25  1  0  0  0  0
 15 44  1  0  0  0  0
 15 45  1  0  0  0  0
 16 18  1  0  0  0  0
 16 25  1  0  0  0  0
 16 46  1  0  0  0  0
 16 47  1  0  0  0  0
 17 23  1  0  0  0  0
 17 48  1  0  0  0  0
 18 29  1  0  0  0  0
 18 49  1  0  0  0  0
 19 21  1  0  0  0  0
 20 28  1  0  0  0  0
 20 50  1  0  0  0  0
 20 51  1  0  0  0  0
 20 52  1  0  0  0  0
 21 24  1  0  0  0  0
 21 53  1  0  0  0  0
 21 54  1  0  0  0  0
 22 24  1  0  0  0  0
M  END
$$$$
