52
1 1 C22H27N2O
C                    -8.344651993516     1.285019467788     4.942303471482
C                    -1.831529904452    -5.836564643635     3.173808150928
C                    -6.955236768405     1.170040250920     5.002708065810
C                    -9.060118511010     0.506351903119     4.024277781606
C                    -0.523989845227    -5.338698319343     3.260320205663
C                    -2.600290218674    -5.554044228212     2.044707843082
C                    -6.278484051294     0.274644872084     4.165518819873
C                    -8.390226724605    -0.372437497963     3.173893189706
C                     0.021849494191    -4.591265688248     2.215585874374
C                    -2.078166453379    -4.783168618050     0.987116140731
C                    -6.994030776178    -0.501354411751     3.243976096544
C                    -0.743507125753    -4.331175221498     1.075851411806
C                    -2.202646824810    -3.829142012971    -1.244049393364
C                    -2.849539463659    -4.334055072671    -0.178377604807
C                    -4.925968093786    -1.242937771965     2.132840603568
C                    -6.665493655568    -2.828423361457     2.594634303853
C                    -4.483220116326    -2.026906004208     0.904369356478
C                    -6.277731804722    -3.674527677029     1.388744217824
C                    -0.690154881403    -3.802725005063    -1.277310959235
C                    -0.172220130534    -2.612490997236    -2.080650866298
C                    -0.127302955047    -5.129270887151    -1.803132339706
C                    -4.347738494651    -4.343209970710    -0.095603679055
N                    -6.352366339377    -1.423539196373     2.347961352826
N                    -4.813609907518    -3.490862348321     1.077734949294
O                    -0.195853888568    -3.577293084395     0.082929159887
H                    -8.865997709557     1.977725459606     5.596234251901
H                    -2.238574269049    -6.448994098046     3.972392501152
H                    -6.389196099554     1.770456684134     5.709410191589
H                   -10.140428574197     0.598975621256     3.956270874008
H                     0.079872791071    -5.551199054021     4.137703736358
H                    -3.596319841508    -5.988748188184     1.967155483496
H                    -5.199397578112     0.192038245707     4.248236250666
H                    -8.946507460653    -0.942530955150     2.433969149305
H                     1.039272942011    -4.214806099519     2.260180442267
H                    -2.741093040001    -3.443318300118    -2.106947872690
H                    -4.314099540760    -1.552962321082     3.000814516774
H                    -4.715217909072    -0.187436563017     1.946370095883
H                    -7.736948774235    -2.947786610428     2.760082347243
H                    -6.155266455440    -3.210408094734     3.499361183038
H                    -5.013788285170    -1.690536949753     0.011214032401
H                    -3.407419955333    -1.953380773156     0.743599816433
H                    -6.442888530765    -4.738078936084     1.575134115944
H                    -6.831409200565    -3.367844702077     0.499059581860
H                     0.918494138710    -2.576059072486    -2.030181674644
H                    -0.568933146193    -1.673171692662    -1.685257417515
H                    -0.467426537687    -2.707297952374    -3.129476769321
H                     0.965935473617    -5.096890258458    -1.796643447038
H                    -0.465139608411    -5.302881250886    -2.829249962719
H                    -0.459111650261    -5.969979039829    -1.187719712271
H                    -4.751299899516    -5.344116898185     0.080619184943
H                    -4.811377229490    -3.933917158604    -0.994063581327
H                    -4.276041390941    -3.820221995529     1.892874714389
