
  -OEChem-05262117483D

 65 69  0     0  0  0  0  0  0999 V2000
   -5.4315    2.3319    5.0650 C   0  0  0  0  0  0  0  0  0  0  0  0
   -3.0809    2.5469    5.5255 C   0  0  0  0  0  0  0  0  0  0  0  0
   -0.7788   -0.0501    1.0807 C   0  0  0  0  0  0  0  0  0  0  0  0
   -4.7761   -2.7972   -0.3114 C   0  0  0  0  0  0  0  0  0  0  0  0
   -6.2934   -1.2764    0.7961 C   0  0  0  0  0  0  0  0  0  0  0  0
   -1.8538   -0.9058    1.3333 C   0  0  0  0  0  0  0  0  0  0  0  0
   -5.7024    3.3786    5.9531 C   0  0  0  0  0  0  0  0  0  0  0  0
   -3.3385    3.5957    6.4053 C   0  0  0  0  0  0  0  0  0  0  0  0
   -5.4322   -2.5921   -1.5320 C   0  0  0  0  0  0  0  0  0  0  0  0
   -6.9563   -1.0566   -0.4132 C   0  0  0  0  0  0  0  0  0  0  0  0
   -1.5803    1.5478    2.7297 C   0  0  0  0  0  0  0  0  0  0  0  0
   -2.6687    0.7054    3.0211 C   0  0  0  0  0  0  0  0  0  0  0  0
   -4.1175    1.8916    4.8274 C   0  0  0  0  0  0  0  0  0  0  0  0
   -3.8229    0.7968    3.8899 C   0  0  0  0  0  0  0  0  0  0  0  0
   -5.1945   -2.1512    0.8566 C   0  0  0  0  0  0  0  0  0  0  0  0
   -0.6363    1.1768    1.7667 C   0  0  0  0  0  0  0  0  0  0  0  0
   -2.7842   -0.5213    2.3011 C   0  0  0  0  0  0  0  0  0  0  0  0
   -4.6549    4.0212    6.6240 C   0  0  0  0  0  0  0  0  0  0  0  0
   -6.5125   -1.7201   -1.5537 C   0  0  0  0  0  0  0  0  0  0  0  0
   -4.5796   -0.3515    3.6743 C   0  0  0  0  0  0  0  0  0  0  0  0
   -5.9133   -0.8372    4.2538 C   0  0  0  0  0  0  0  0  0  0  0  0
    2.1946    6.3689   -2.7062 C   0  0  0  0  0  0  0  0  0  0  0  0
    3.1349    5.2728   -2.2444 C   0  0  0  0  0  0  0  0  0  0  0  0
    2.0233    5.7443   -1.3378 C   0  0  0  0  0  0  0  0  0  0  0  0
   -6.0586    6.6178    8.8190 C   0  0  0  0  0  0  0  0  0  0  0  0
    0.4895    2.1206    1.3982 C   0  0  0  0  0  0  0  0  0  0  0  0
   -4.4733   -2.3792    2.1737 C   0  0  0  0  0  0  0  0  0  0  0  0
    0.8408    4.8477   -1.0800 C   0  0  0  0  0  0  0  0  0  0  0  0
   -6.1441    5.4932    7.7986 C   0  0  0  0  0  0  0  0  0  0  0  0
    0.0704    3.0687    0.2770 C   0  0  0  0  0  0  0  0  0  0  0  0
   -3.9333   -1.1526    2.7385 N   0  0  0  0  0  0  0  0  0  0  0  0
   -5.8466   -1.8844    4.9432 O   0  5  0  0  0  0  0  0  0  0  0  0
   -6.9215   -0.1607    3.9041 O   0  0  0  0  0  0  0  0  0  0  0  0
   -4.8160    5.0672    7.5154 O   0  0  0  0  0  0  0  0  0  0  0  0
    1.1664    3.9239   -0.0536 O   0  0  0  0  0  0  0  0  0  0  0  0
   -7.1624   -1.5069   -2.7394 F   0  0  0  0  0  0  0  0  0  0  0  0
   -6.2488    1.8300    4.5547 H   0  0  0  0  0  0  0  0  0  0  0  0
   -2.0572    2.2053    5.4030 H   0  0  0  0  0  0  0  0  0  0  0  0
   -0.0387   -0.3290    0.3325 H   0  0  0  0  0  0  0  0  0  0  0  0
   -3.9218   -3.4705   -0.2763 H   0  0  0  0  0  0  0  0  0  0  0  0
   -6.6325   -0.7666    1.6971 H   0  0  0  0  0  0  0  0  0  0  0  0
   -1.9633   -1.8347    0.7805 H   0  0  0  0  0  0  0  0  0  0  0  0
   -6.7346    3.6764    6.1057 H   0  0  0  0  0  0  0  0  0  0  0  0
   -2.5324    4.0868    6.9447 H   0  0  0  0  0  0  0  0  0  0  0  0
   -5.1140   -3.0858   -2.4457 H   0  0  0  0  0  0  0  0  0  0  0  0
   -7.8070   -0.3841   -0.4756 H   0  0  0  0  0  0  0  0  0  0  0  0
   -1.4774    2.5049    3.2354 H   0  0  0  0  0  0  0  0  0  0  0  0
    2.5739    7.3854   -2.7621 H   0  0  0  0  0  0  0  0  0  0  0  0
    1.4639    6.1218   -3.4724 H   0  0  0  0  0  0  0  0  0  0  0  0
    3.0282    4.2882   -2.6914 H   0  0  0  0  0  0  0  0  0  0  0  0
    4.1556    5.5435   -1.9898 H   0  0  0  0  0  0  0  0  0  0  0  0
    2.3191    6.3510   -0.4851 H   0  0  0  0  0  0  0  0  0  0  0  0
   -5.5776    6.2677    9.7376 H   0  0  0  0  0  0  0  0  0  0  0  0
   -5.4746    7.4543    8.4223 H   0  0  0  0  0  0  0  0  0  0  0  0
   -7.0623    6.9802    9.0673 H   0  0  0  0  0  0  0  0  0  0  0  0
    0.7928    2.7213    2.2629 H   0  0  0  0  0  0  0  0  0  0  0  0
    1.3732    1.5630    1.0674 H   0  0  0  0  0  0  0  0  0  0  0  0
   -5.1454   -2.8023    2.9241 H   0  0  0  0  0  0  0  0  0  0  0  0
   -3.6504   -3.0876    2.0316 H   0  0  0  0  0  0  0  0  0  0  0  0
    0.5675    4.3111   -2.0053 H   0  0  0  0  0  0  0  0  0  0  0  0
   -0.0350    5.4489   -0.7832 H   0  0  0  0  0  0  0  0  0  0  0  0
   -6.6341    5.8422    6.8783 H   0  0  0  0  0  0  0  0  0  0  0  0
   -6.7337    4.6542    8.1943 H   0  0  0  0  0  0  0  0  0  0  0  0
   -0.2379    2.4923   -0.6095 H   0  0  0  0  0  0  0  0  0  0  0  0
   -0.7953    3.6690    0.5964 H   0  0  0  0  0  0  0  0  0  0  0  0
  1  7  1  0  0  0  0
  1 13  2  0  0  0  0
  1 37  1  0  0  0  0
  2  8  2  0  0  0  0
  2 13  1  0  0  0  0
  2 38  1  0  0  0  0
  3  6  2  0  0  0  0
  3 16  1  0  0  0  0
  3 39  1  0  0  0  0
  4  9  2  0  0  0  0
  4 15  1  0  0  0  0
  4 40  1  0  0  0  0
  5 10  1  0  0  0  0
  5 15  2  0  0  0  0
  5 41  1  0  0  0  0
  6 17  1  0  0  0  0
  6 42  1  0  0  0  0
  7 18  2  0  0  0  0
  7 43  1  0  0  0  0
  8 18  1  0  0  0  0
  8 44  1  0  0  0  0
  9 19  1  0  0  0  0
  9 45  1  0  0  0  0
 10 19  2  0  0  0  0
 10 46  1  0  0  0  0
 11 12  1  0  0  0  0
 11 16  2  0  0  0  0
 11 47  1  0  0  0  0
 12 14  1  0  0  0  0
 12 17  2  0  0  0  0
 13 14  1  0  0  0  0
 14 20  2  0  0  0  0
 15 27  1  0  0  0  0
 16 26  1  0  0  0  0
 17 31  1  0  0  0  0
 18 34  1  0  0  0  0
 19 36  1  0  0  0  0
 20 21  1  0  0  0  0
 20 31  1  0  0  0  0
 21 32  1  0  0  0  0
 21 33  2  0  0  0  0
 22 23  1  0  0  0  0
 22 24  1  0  0  0  0
 22 48  1  0  0  0  0
 22 49  1  0  0  0  0
 23 24  1  0  0  0  0
 23 50  1  0  0  0  0
 23 51  1  0  0  0  0
 24 28  1  0  0  0  0
 24 52  1  0  0  0  0
 25 29  1  0  0  0  0
 25 53  1  0  0  0  0
 25 54  1  0  0  0  0
 25 55  1  0  0  0  0
 26 30  1  0  0  0  0
 26 56  1  0  0  0  0
 26 57  1  0  0  0  0
 27 31  1  0  0  0  0
 27 58  1  0  0  0  0
 27 59  1  0  0  0  0
 28 35  1  0  0  0  0
 28 60  1  0  0  0  0
 28 61  1  0  0  0  0
 29 34  1  0  0  0  0
 29 62  1  0  0  0  0
 29 63  1  0  0  0  0
 30 35  1  0  0  0  0
 30 64  1  0  0  0  0
 30 65  1  0  0  0  0
M  CHG  1  32  -1
M  END
$$$$
