66
0 1 C30FH30NO4
C                    -3.087158256113     1.724902373994     5.649842538645
C                    -5.330942237759     2.035074695847     4.826249559200
C                    -0.807325463435     0.328359317068     0.702020246282
C                    -3.092097612073    -4.078458675134     3.216076148880
C                    -2.333904628075    -4.293337246441     0.936308349746
C                    -1.799891425630    -0.641729361553     0.789006464965
C                    -3.315560099209     2.664904671718     6.656718929021
C                    -5.574447698048     2.966617196257     5.829329193050
C                    -2.212879884373    -5.086678895161     3.613182385541
C                    -1.449271168507    -5.310381893339     1.311260529565
C                    -1.696726285786     1.565921654009     2.589007006936
C                    -2.700328863138     0.588742260062     2.716556013510
C                    -4.085606943773     1.379663812061     4.724684439570
C                    -3.786917624514     0.425697427348     3.637689031967
C                    -3.159100686378    -3.666710824735     1.876455721403
C                    -0.739937724924     1.434761986657     1.589108008586
C                    -2.754078741828    -0.502042850135     1.809361575700
C                    -4.568389870732     3.289743511639     6.755025042006
C                    -1.404438788376    -5.683404677171     2.648887975122
C                    -4.454884057847    -0.746551074780     3.273294651891
C                    -5.572168325423    -1.435335164953     3.955874044017
C                     1.808355493404     1.402945132781     7.369280036083
C                     0.423264296992     1.152314126722     6.810869965023
C                     1.309137047254     2.207620556121     6.188550421383
C                    -4.540240627684     5.625935386496     9.584585552370
C                     0.404631602272     2.418991211699     1.494650474452
C                    -4.112020861286    -2.562855444900     1.459923156501
C                     1.925629683041     1.964940749867     4.837063120872
C                    -3.912419757762     4.592183530244     8.666203244680
C                     1.513853225322     2.131279123330     2.509459130672
N                    -3.836531496459    -1.291317650281     2.136854010536
O                    -6.163119916214    -2.402400818214     3.503160601326
O                    -5.922972974345    -0.970269122758     5.181489803253
O                    -4.901304048890     4.217150402188     7.698259400671
O                     1.005091475644     2.342517542815     3.819981696158
F                    -0.544912723663    -6.665654673610     3.029440125147
H                    -2.113512061983     1.250301595649     5.580404444821
H                    -6.110939333710     1.814759850012     4.102436451272
H                    -0.052231589896     0.235113656955    -0.075821225134
H                    -3.740125214328    -3.616967198537     3.954521710488
H                    -2.378212784094    -3.990198954451    -0.107479288805
H                    -1.817182132235    -1.476821488788     0.097224596477
H                    -2.515543044021     2.899885981453     7.349133201318
H                    -6.534841998339     3.467381236745     5.907602630670
H                    -2.153248015775    -5.417082889469     4.645760182774
H                    -0.804004003295    -5.802744896350     0.590235608734
H                    -1.650896110273     2.401473519821     3.279862714762
H                     1.894132981377     1.902368370511     8.329690285774
H                     2.572224442747     0.651762720220     7.186656302754
H                     0.258346647921     0.238105460859     6.247132524106
H                    -0.427881892041     1.476153503103     7.402348378187
H                     1.043016712024     3.244322887537     6.381011252135
H                    -4.854191830458     6.506548041199     9.016982773560
H                    -5.415266208229     5.210354758478    10.092307638166
H                    -3.815254826015     5.940491952124    10.342103427958
H                     0.847878302795     2.392664772470     0.492913389645
H                     0.047471746721     3.441009552866     1.661983436483
H                    -4.030143615734    -2.384140733043     0.383817416836
H                    -5.140315693972    -2.838731453057     1.680044566898
H                     2.188400882164     0.899722355052     4.729462295937
H                     2.857027437609     2.546026667666     4.733131780053
H                    -3.596494200107     3.705497233523     9.231639958289
H                    -3.033632595100     5.004961095994     8.153262423817
H                     1.861423363212     1.091385927419     2.402023456653
H                     2.374406634672     2.795849175615     2.327783090227
H                    -5.383143585177    -0.195122433369     5.432573848506
