65
-1 1 C30FH29NO4
C                    -5.387073371563     2.884963358740     4.802315270845
C                    -3.064327476870     2.901561748093     5.427999725365
C                    -0.714424287103     0.451575589978     0.935800270831
C                    -4.715488112248    -1.680778832028    -0.886241068183
C                    -6.142721759317    -0.151110812383     0.323707341376
C                    -1.818701130127    -0.383308126105     1.117684023916
C                    -5.637466443673     3.928720633103     5.699401762459
C                    -3.301026591083     3.945638978872     6.318929838104
C                    -5.209555610930    -1.204014676703    -2.107277470716
C                    -6.641176486333     0.340323505791    -0.884566370481
C                    -1.506391842527     1.983738939468     2.649958357742
C                    -2.624359669472     1.158873770383     2.870134511521
C                    -4.097927422220     2.347926294835     4.644053247596
C                    -3.818138847105     1.271359303147     3.680955238059
C                    -5.171413819361    -1.167762947377     0.332670534386
C                    -0.565612363401     1.648308206167     1.673869344021
C                    -2.769033681392    -0.014515907692     2.073830280063
C                    -4.592768202269     4.468934114965     6.459165598424
C                    -6.164871191151    -0.196743525420    -2.077076956879
C                    -4.629546796301     0.189095925164     3.353875011102
C                    -6.028138578674    -0.235373080791     3.817166494564
C                    -4.218116267017     4.217380361437     1.257158240020
C                    -4.830296172038     3.692056285833    -0.021473524366
C                    -3.477093866397     4.377165981127    -0.051479184570
C                    -5.936082059130     7.135590267999     8.606901476826
C                     0.497970254696     2.646980301862     1.281512742707
C                    -4.606462837514    -1.669241350641     1.651257876982
C                    -2.259507916241     3.544484959892    -0.340580881711
C                    -6.038950473437     6.038848172899     7.558277899418
C                     0.110898641436     3.457392307797     0.028454197291
N                    -3.974446603039    -0.601768020604     2.413000433539
O                    -6.083114105868    -1.344735607857     4.401994065666
O                    -6.958767380545     0.553260605288     3.487235748727
O                    -4.734117499610     5.503293360820     7.366536204619
O                    -1.094880312087     4.195109541643     0.192095058173
F                    -6.652307141573     0.283636090320    -3.261805537301
H                    -6.200542053236     2.462904194052     4.219072791867
H                    -2.062744636636     2.487103494355     5.357647223905
H                     0.024594574512     0.198568816372     0.177238355065
H                    -3.957010727249    -2.461159020529    -0.890839575810
H                    -6.508713942355     0.261429840729     1.263234681386
H                    -1.942112251378    -1.276491591826     0.511601198171
H                    -6.650879553753     4.305932706534     5.787948921620
H                    -2.498641642506     4.360936878090     6.923484013764
H                    -4.858990007229    -1.591671559958    -3.059388046826
H                    -7.387021210080     1.129544996624    -0.906135882302
H                    -1.409538474447     2.927689957538     3.178450850144
H                    -4.652700537688     5.104051761820     1.709698636472
H                    -3.847803484348     3.487173300524     1.966512115135
H                    -4.859330850271     2.614245918203    -0.154156396567
H                    -5.679304940233     4.219371274273    -0.448575499158
H                    -3.449931623515     5.379524060682    -0.475206209991
H                    -5.558765975919     6.730711254213     9.551115813477
H                    -5.253933523089     7.924025983592     8.273738135579
H                    -6.921262427290     7.579907404058     8.786984180566
H                     0.673358929031     3.350542157778     2.102633395639
H                     1.454723011428     2.147356532427     1.071704980270
H                    -5.386502278225    -2.093155953507     2.287516731533
H                    -3.865999364448    -2.454980463836     1.468708456008
H                    -2.130721254131     3.422991994902    -1.429658548720
H                    -2.379757129574     2.546770574405     0.093510963107
H                    -6.424557318886     6.443392619685     6.611510192766
H                    -6.726799671524     5.248163628789     7.889627115351
H                     0.901361190414     4.188972657655    -0.187202296266
H                     0.033782350331     2.785369355427    -0.839101570666
