22   
torsion grid (-165,)
C       -2.5740925548    2.8464598455    2.3961432941
C       -1.8696780782    3.9077927770    1.8224789480
C       -1.8810768525    1.6812311605    2.7354503385
C       -0.4953060986    3.7630077537    1.6038272582
C       -0.5092897119    1.6632163685    2.4850903037
C        0.6267354045   -0.4902569663    0.3594548921
C        2.6351658213    0.5637485615    1.3697469812
N        0.1833540522    2.6553234610    1.9305447286
N        1.3807442903   -0.1731014535    1.5749202293
O        1.3948748591    0.5538120399    3.9965132558
O       -0.5089137887   -0.8920251254    3.1045955233
S        0.4668241832    0.1872867515    2.9280866317
H       -3.6434303068    2.9215170334    2.5743718942
H       -2.3699965232    4.8302654146    1.5430338273
H       -2.3675697233    0.8159430575    3.1723794142
H        0.0831075501    4.5650158587    1.1493081220
H       -0.2412155259   -1.0994378979    0.6135338955
H        0.3038246554    0.4156492684   -0.1737491011
H        1.2747964456   -1.0746844589   -0.2998426583
H        3.0815670177    0.7922638879    2.3361342647
H        3.3158072115   -0.0870142665    0.8117110852
H        2.4733162276    1.4948212734    0.8139607573
22   
torsion grid (-150,)
C       -2.6270046106    2.8408507179    2.4591494712
C       -1.9680302863    3.8800570308    1.7975927265
C       -1.9086012605    1.6891803777    2.7917663999
C       -0.6123184878    3.7274711868    1.4865196930
C       -0.5590760937    1.6617282462    2.4427069195
C        0.6227869124   -0.3406196575    0.2703307309
C        2.7222274864    0.4067980381    1.4037409527
N        0.0899210607    2.6313752425    1.8026957605
N        1.3540080956   -0.1029048845    1.5122422322
O        1.3929102922    0.6094787709    3.9315594780
O       -0.4779735019   -0.8930035254    3.0903843404
S        0.4583989244    0.2141370613    2.8768826311
H       -3.6812587317    2.9224821620    2.7095975874
H       -2.4897511987    4.7911695118    1.5200287037
H       -2.3608308510    0.8410120676    3.2944773295
H       -0.0698935859    4.5121559811    0.9627303874
H       -0.3306785214   -0.8241615317    0.4895038235
H        0.4457012419    0.5924884548   -0.2822872010
H        1.2086981717   -1.0207775785   -0.3554411184
H        3.1397832081    0.5370906407    2.4003956046
H        3.3192351177   -0.3352634022    0.8636383493
H        2.7534389625    1.3647004669    0.8689626510
22   
torsion grid (-135,)
C       -2.6727891759    2.8347583629    2.5003621683
C       -2.0619398127    3.8911909105    1.8204141874
C       -1.9124935175    1.7045217077    2.8129545136
C       -0.7111734858    3.7762954385    1.4728897389
C       -0.5734193857    1.7133273028    2.4236758422
C        0.6592358494   -0.2711521871    0.2292668567
C        2.8039116720    0.2821718419    1.4090248242
N        0.0298638293    2.7002513274    1.7677704868
N        1.3662566447    0.0375334634    1.4658812861
O        1.4308045474    0.7106109029    3.8867287462
O       -0.4164980538   -0.8338520468    3.0779723919
S        0.4912370796    0.2945400156    2.8434024222
H       -3.7214487509    2.8865910868    2.7805022439
H       -2.6165139755    4.7869829320    1.5569028034
H       -2.3265527016    0.8450555592    3.3290124435
H       -0.2050735766    4.5763126564    0.9360349400
H       -0.3579379414   -0.5993868901    0.4504929179
H        0.6212864969    0.6041902618   -0.4323919205
H        1.1680396282   -1.0926990678   -0.2866039077
H        3.1715856900    0.5180171255    2.4062816333
H        3.3108534226   -0.6189577174    1.0453701167
H        3.0259992868    1.1224261693    0.7388917992
22   
torsion grid (-120,)
C       -2.7499923886    2.7658590111    2.3659129115
C       -2.1626711865    3.9828805918    2.0170180944
C       -1.9247427823    1.6595515122    2.5942853696
C       -0.7674110188    4.0504819494    1.9079888734
C       -0.5516965595    1.8542946872    2.4528210201
C        0.6748894714   -0.5407850697    0.2976334713
C        2.8148958720    0.2790739405    1.2731730549
N        0.0330288954    3.0006432979    2.1208773632
N        1.3487070021    0.3049721019    1.2858608259
O        1.5765468366    0.8769925678    3.7502162690
O       -0.2878804097   -0.7049521132    3.0100052196
S        0.5776233575    0.4583219051    2.7671227348
H       -3.8286608637    2.6755266032    2.4616768593
H       -2.7657107813    4.8670053573    1.8320787105
H       -2.3133949413    0.6863481947    2.8730949648
H       -0.2757986330    4.9835716807    1.6391691544
H       -0.3979254040   -0.3380687492    0.2947034128
H        1.0718261254   -0.2861661769   -0.6892410498
H        0.8275421764   -1.6107139797    0.4880145323
H        3.1978866506    0.9553806875    2.0355854555
H        3.2129289618   -0.7288931804    1.4531096963
H        3.1476699481    0.6263781343    0.2904121671
22   
torsion grid (-105,)
C       -2.7706254740    2.7054238496    2.3638834171
C       -2.2403643777    3.9435498692    1.9982465796
C       -1.8947095591    1.6407833018    2.6008496643
C       -0.8500626285    4.0735585261    1.8827431041
C       -0.5324934415    1.8964940479    2.4504664354
C        0.6426313986   -0.3433587276    0.2969295759
C        2.8516551290    0.1154720769    1.3248999772
N       -0.0014492538    3.0640228502    2.1044953872
N        1.4129763541    0.4119786513    1.2904778964
O        1.6561502881    1.0247450470    3.7464918806
O       -0.1599838195   -0.6358944509    3.0842122665
S        0.6542211866    0.5544127450    2.7902201620
H       -3.8436350936    2.5671617961    2.4654341751
H       -2.8837678215    4.7970988131    1.8057226628
H       -2.2369782843    0.6539337824    2.8923418040
H       -0.4024180252    5.0249967263    1.6018698400
H       -0.3867538972    0.0214750500    0.2630932928
H        1.0951194311   -0.1649343073   -0.6823401693
H        0.6280506211   -1.4210579183    0.5039508074
H        3.3299578539    0.7304971695    2.0858782504
H        3.0575821948   -0.9441615354    1.5304838003
H        3.2648082245    0.3765519895    0.3464629734
22   
torsion grid (-90,)
C       -2.7757471498    2.6645411471    2.3790744976
C       -2.3046843686    3.9143242313    1.9735087592
C       -1.8524227000    1.6410313292    2.6156970047
C       -0.9243381583    4.0975619264    1.8195089153
C       -0.5058287552    1.9491195681    2.4267128549
C        0.6461155252   -0.1292960336    0.2688586094
C        2.8537172907   -0.0408828806    1.3557202321
N       -0.0300203802    3.1284056101    2.0437732818
N        1.4942143388    0.5201986272    1.2770143830
O        1.7336094505    1.1907537872    3.7200348353
O       -0.0165662132   -0.5538638540    3.1292122674
S        0.7372025963    0.6649498050    2.7873558375
H       -3.8394804638    2.4860962814    2.5107028724
H       -2.9866944674    4.7370292942    1.7795818517
H       -2.1467388827    0.6470857832    2.9344286336
H       -0.5225660341    5.0592551632    1.5062862168
H       -0.3250655630    0.3687409990    0.2179105104
H        1.1344060647   -0.0106405198   -0.7020633705
H        0.4890576625   -1.1967122971    0.4723932918
H        3.4160362260    0.4822258514    2.1286207366
H        2.8526238831   -1.1193126843    1.5667528087
H        3.3355023758    0.1336811102    0.3898874258
22   
torsion grid (-75,)
C       -2.7832182031    2.5863081060    2.4147563672
C       -2.3696674994    3.8359162916    1.9494509149
C       -1.8174111385    1.6035680407    2.6530432311
C       -1.0028897648    4.0604131040    1.7404963133
C       -0.4895742305    1.9516609920    2.4092901400
C        0.6849025744    0.0720477453    0.2284768745
C        2.8105768758   -0.2319813384    1.3968048490
N       -0.0673685003    3.1316323393    1.9700362325
N        1.5832646417    0.5801041278    1.2777140697
O        1.7767801471    1.3009278579    3.7157485059
O        0.1134960551   -0.5248617706    3.1536099548
S        0.8040958390    0.7251395853    2.7873980312
H       -3.8350865110    2.3768714431    2.5890091885
H       -3.0863268910    4.6274658977    1.7509431052
H       -2.0656777351    0.6103980893    3.0111664220
H       -0.6459815833    5.0224895102    1.3781632723
H       -0.1933255558    0.7148502494    0.1400619577
H        1.2278959113    0.1173381885   -0.7191201277
H        0.3603070867   -0.9613088092    0.4119592308
H        3.4313413860    0.1667240201    2.1996409145
H        2.5957183711   -1.2926015599    1.5858976710
H        3.3561903240   -0.1381773718    0.4543600410
22   
torsion grid (-60,)
C       -2.4014293941    2.7134272841    1.4929079354
C       -1.8541858984    3.9219162772    1.9308472835
C       -1.7060658643    1.5280014910    1.7433599285
C       -0.6276084262    3.9009230465    2.6028805508
C       -0.4933758485    1.6369597425    2.4250064356
C        2.4812091916    1.0816359037    1.4899836743
C        2.1546610754   -1.3286306012    1.4924662492
N        0.0494380771    2.7717044247    2.8515370123
N        1.4840044646   -0.0089157026    1.4941505916
O        1.1108448965    0.2479487324    4.0913487798
O       -0.5719636172   -0.9912860596    2.6296878891
S        0.3999094840    0.0931150677    2.8193001598
H       -3.3535843814    2.6910968174    0.9698819002
H       -2.3642751783    4.8654881006    1.7604802270
H       -2.0806082144    0.5555048853    1.4447437851
H       -0.1711596273    4.8223350109    2.9588749504
H        1.9858371162    2.0516565766    1.4834429067
H        3.1564112502    1.0337720758    2.3542644023
H        3.0630698682    0.9818553752    0.5698071005
H        1.4044692613   -2.1194110397    1.5280370758
H        2.7062408238   -1.4110086187    0.5525262869
H        2.8538635113   -1.4424386520    2.3314878177
22   
torsion grid (-45,)
C       -2.5016377478    2.6756234659    1.5688715318
C       -1.9108520481    3.9136117612    1.8331762300
C       -1.7878127694    1.5105399929    1.8597171378
C       -0.6245698118    3.9408366123    2.3815845100
C       -0.5153788133    1.6679313815    2.4099638925
C        2.6466207402    1.0717646054    1.7221121184
C        2.0427347545   -1.2684454766    1.3253866295
N        0.0684905898    2.8322161899    2.6741167219
N        1.5446670791    0.1011771553    1.5653550528
O        1.0765071434    0.3642986297    4.1397457799
O       -0.5023462713   -0.9629669367    2.6406237308
S        0.4182620047    0.1625936505    2.8461476203
H       -3.5005559896    2.6153915601    1.1454888997
H       -2.4321920193    4.8430233285    1.6238271403
H       -2.1888290374    0.5186211961    1.6850328320
H       -0.1322646547    4.8863111123    2.6002701532
H        2.2467342875    2.0671675138    1.9132875184
H        3.3245492288    0.7977087176    2.5404585893
H        3.2016009312    1.0884831990    0.7800174018
H        1.2008227119   -1.9530388690    1.2260487591
H        2.5977098678   -1.2489127720    0.3837198476
H        2.7094672249   -1.6181112185    2.1253849270
22   
torsion grid (-30,)
C       -2.5681346624    2.6216405786    1.6057196324
C       -1.9564523702    3.8711947473    1.7295964221
C       -1.8403223614    1.4765928486    1.9402958146
C       -0.6358314999    3.9304579852    2.1875908208
C       -0.5343116388    1.6666706356    2.3909569715
C        2.7731400475    1.0369514465    1.9047277217
C        1.9601052096   -1.1725175104    1.1595678527
N        0.0708899807    2.8431646838    2.5217237778
N        1.6077221146    0.1734100614    1.6421973986
O        1.0487428566    0.4628652208    4.1772359090
O       -0.4303443148   -0.9621490398    2.6645022685
S        0.4381202074    0.2036894724    2.8711453204
H       -3.5933293331    2.5370144225    1.2555612254
H       -2.4869695677    4.7855439563    1.4808515973
H       -2.2537621546    0.4768995810    1.8678270372
H       -0.1266515894    4.8861492012    2.2953706251
H        2.4388245026    2.0224064233    2.2279759247
H        3.4368056173    0.6126285177    2.6685734516
H        3.3214061005    1.1423642974    0.9642196875
H        1.0540593068   -1.7499283131    0.9810844083
H        2.4961316093   -1.0476045678    0.2146108054
H        2.6033091891   -1.7162067416    1.8651531645
22   
torsion grid (-15,)
C       -2.5996219585    2.6413089233    1.5795216815
C       -1.9930004815    3.8989541350    1.5701757775
C       -1.8520061057    1.5331501730    1.9891413087
C       -0.6566947511    4.0037838876    1.9738444809
C       -0.5327697241    1.7681270542    2.3729223457
C        2.8980742313    1.1066801812    2.0625894028
C        1.9172783552   -0.9568012341    1.0831204697
N        0.0696748864    2.9538458666    2.3752188487
N        1.6892739205    0.3253447633    1.7618437431
O        1.0564127819    0.7266778838    4.2353422830
O       -0.3371677583   -0.8384825481    2.7748122988
S        0.4835690179    0.3681145313    2.9368359183
H       -3.6356927405    2.5216598330    1.2743924993
H       -2.5380286898    4.7853411709    1.2593403712
H       -2.2604150823    0.5290820672    2.0196309814
H       -0.1512420006    4.9675652485    1.9776158878
H        2.6190854795    2.0728072135    2.4813812741
H        3.5615352234    0.5855066470    2.7642045219
H        3.4267668242    1.2743651196    1.1196823799
H        0.9653539851   -1.4466685135    0.8837015972
H        2.4155794457   -0.7439766842    0.1327622798
H        2.5488857458   -1.6337388030    1.6744503456
22   
torsion grid (0,)
C       -2.6163357927    2.6466074680    1.5845288300
C       -1.9750735475    3.8807938715    1.4634261661
C       -1.8839201817    1.5463375002    2.0415695750
C       -0.6199901567    3.9710009398    1.8050510045
C       -0.5431802270    1.7647356267    2.3532525086
C        2.9582947114    0.9780681781    2.1530003393
C        1.7778164862   -0.8711823307    0.9639944338
N        0.0925575994    2.9282765168    2.2465059255
N        1.6986475981    0.2919377159    1.8498738873
O        1.0206992016    0.7895715844    4.2622525933
O       -0.3625275979   -0.8232699754    2.8360243657
S        0.4657358490    0.3812272714    2.9716068419
H       -3.6670792322    2.5385704693    1.3291797092
H       -2.5068340783    4.7602832573    1.1125598468
H       -2.3194417040    0.5600006109    2.1573464603
H       -0.0877091251    4.9166182719    1.7213304184
H        2.7632667858    1.8685564003    2.7478900432
H        3.6533990391    0.3263504923    2.6979692673
H        3.4156169077    1.2837705385    1.2067142989
H        0.7835646873   -1.2830002487    0.7965580523
H        2.1965241204   -0.5471222792    0.0057352081
H        2.4162602491   -1.6587695542    1.3861738907
22   
torsion grid (15,)
C       -2.5039987798    2.6305239312    1.5437240014
C       -1.8129966467    3.8354819575    1.3972613360
C       -1.8243882043    1.5179964052    2.0478782190
C       -0.4619941201    3.8828573299    1.7592785051
C       -0.4816969466    1.6929747167    2.3832679612
C        2.8876740961    1.0629326098    2.1414428286
C        1.7661688988   -0.8419109553    0.9571507997
N        0.2010413493    2.8275193424    2.2481037625
N        1.7682757579    0.1260144380    2.0507307700
O        0.9490942709    0.6875135421    4.3761511734
O       -0.3917543792   -0.8875140291    2.8608843940
S        0.4644714883    0.2876079621    3.0567989101
H       -3.5532600216    2.5553727380    1.2709230416
H       -2.3037311236    4.7234850508    1.0099489353
H       -2.2997163284    0.5525954779    2.1816788862
H        0.1098050057    4.8028458284    1.6532665657
H        2.8197010551    1.6301242610    3.0681782670
H        3.8260888634    0.4967103121    2.1436716938
H        2.8842102941    1.7613544961    1.2961500408
H        0.9150015931   -1.5131429758    1.0607937543
H        1.7175635200   -0.3377822797   -0.0174829136
H        2.6864897117   -1.4347451309    1.0044183978
22   
torsion grid (30,)
C       -2.4617962367    2.5569732373    1.4898627799
C       -1.7718536358    3.7604465915    1.3290455206
C       -1.7964852155    1.4672434394    2.0593042561
C       -0.4360824253    3.8288208018    1.7414463055
C       -0.4699173630    1.6623196467    2.4435881058
C        2.8656167070    1.0404955915    2.2358606087
C        1.6288594774   -0.7387768576    0.9963243140
N        0.2127590412    2.7960274485    2.2931780386
N        1.7853775211    0.0505658785    2.2180873405
O        0.9442104051    0.7288583260    4.4980751158
O       -0.4053336559   -0.8910625391    3.0407411238
S        0.4591744823    0.2834799986    3.1951077462
H       -3.4989513540    2.4651974380    1.1786210943
H       -2.2512272594    4.6312110307    0.8915763112
H       -2.2718985669    0.5042758963    2.2093921283
H        0.1347040364    4.7481878969    1.6250127476
H        2.8897291493    1.5358049076    3.2054293707
H        3.8138003093    0.5140398928    2.0849230286
H        2.7355711289    1.7954430396    1.4510512739
H        0.8779674810   -1.5119348447    1.1521393228
H        1.3451243599   -0.1158985453    0.1351972601
H        2.5873131576   -1.2202308340    0.7799244202
22   
torsion grid (45,)
C       -2.4479728869    2.5055693229    1.5166216579
C       -1.7504773169    3.6884210444    1.2608085707
C       -1.7738854987    1.4417107238    2.1227692212
C       -0.3990422405    3.7629672027    1.6161329135
C       -0.4318054066    1.6418923230    2.4458461907
C        2.9483731432    0.9903574518    2.3460288232
C        1.5651961807   -0.5305548666    0.9536852190
N        0.2579722826    2.7545093604    2.2032949504
N        1.8390343815    0.0294926329    2.2800638520
O        1.0001132376    0.7981265483    4.5373208119
O       -0.3500058213   -0.8829905050    3.1625778492
S        0.5070954626    0.3026267446    3.2546463253
H       -3.4970254401    2.4104691549    1.2494471350
H       -2.2367687510    4.5390533884    0.7924838798
H       -2.2521374439    0.4936569704    2.3429805047
H        0.1778403919    4.6654695283    1.4233789980
H        3.0352411765    1.3722514101    3.3620877155
H        3.8683392920    0.4555303029    2.0897113978
H        2.8038193414    1.8290850247    1.6548420006
H        0.7911928308   -1.2938314508    1.0298916376
H        1.2573823151    0.2414428407    0.2326866870
H        2.4828606695   -1.0018676166    0.5906265553
22   
torsion grid (60,)
C       -2.5169180394    2.4565930007    1.5394956063
C       -1.7938561279    3.5940831998    1.1726068189
C       -1.8456851588    1.4028331267    2.1661078020
C       -0.4212263577    3.6350126946    1.4416407242
C       -0.4807589640    1.5688144585    2.3968137986
C        2.9680943193    0.8179223400    2.4721601224
C        1.4888206536   -0.3346307791    0.8694612129
N        0.2337509509    2.6365985359    2.0484582294
N        1.7969164317   -0.0530472452    2.2766579211
O        0.9424142036    0.7746121962    4.5166981305
O       -0.3992731425   -0.9403695380    3.1963623835
S        0.4534711390    0.2502968789    3.2422780736
H       -3.5830480818    2.3881442616    1.3407197291
H       -2.2766656795    4.4346649267    0.6830531644
H       -2.3424661005    0.4870798813    2.4677386617
H        0.1752106990    4.5006290706    1.1601046700
H        3.0845438566    1.0348847507    3.5325749910
H        3.8474477629    0.2662440207    2.1258049658
H        2.8770927159    1.7575128879    1.9144922959
H        0.6323137642   -1.0077662885    0.8071708888
H        1.2859777254    0.5822780742    0.2984215078
H        2.3520395681   -0.8410894976    0.4288086034
22   
torsion grid (75,)
C       -2.5268697170    2.4044213066    1.5327752118
C       -1.8295650308    3.5391893176    1.1120412971
C       -1.8276223868    1.3881641506    2.1904996727
C       -0.4540918766    3.6156920652    1.3599204225
C       -0.4633760296    1.5883676933    2.3931956630
C        3.0534080097    0.6878056920    2.5384238146
C        1.4756041283   -0.1370476238    0.8564059213
N        0.2279388628    2.6537145273    1.9946239988
N        1.8095542410   -0.0641763007    2.2860652342
O        1.0520433389    0.9507758360    4.4985475806
O       -0.3472175239   -0.8565383908    3.4004561568
S        0.5028977657    0.3312660897    3.2915756033
H       -3.5943249785    2.3097158684    1.3529101889
H       -2.3344636476    4.3514960010    0.5976552257
H       -2.3030164355    0.4776923998    2.5392441443
H        0.1218876852    4.4808121564    1.0375383291
H        3.2336482601    0.7489844148    3.6097157583
H        3.8683572005    0.1245911155    2.0739450469
H        3.0177477753    1.6993500964    2.1150260158
H        0.5281366176   -0.6637268290    0.7213034465
H        1.4176592028    0.8557942793    0.3921660878
H        2.2542033383   -0.7206969171    0.3571598598
22   
torsion grid (90,)
C       -2.5853345108    2.3472548698    1.4772380203
C       -1.9236124722    3.4929705089    1.0300107126
C       -1.8544622155    1.3686560069    2.1575568082
C       -0.5510702340    3.6189075365    1.2754633905
C       -0.4966246441    1.6153721396    2.3511534566
C        3.0823594360    0.4404537333    2.5929764980
C        1.4646026245    0.0334836977    0.8121606479
N        0.1607675519    2.6928602833    1.9301775481
N        1.7503884028   -0.0941384164    2.2490095718
O        1.1225856479    1.1211466861    4.4179030701
O       -0.3611945395   -0.7394853631    3.5609753697
S        0.4993838554    0.4157956251    3.2952257036
H       -3.6497154361    2.2160373531    1.3022828066
H       -2.4540348304    4.2776853931    0.4987470601
H       -2.3015476472    0.4546504613    2.5334159449
H       -0.0030927733    4.4952936122    0.9352585419
H        3.2663682182    0.3257248002    3.6591637951
H        3.8149330403   -0.1573707129    2.0427854322
H        3.1922946940    1.4975702978    2.3187648745
H        0.4584364173   -0.3321506357    0.5928180065
H        1.5655826318    1.0653915593    0.4542123203
H        2.1702181490   -0.6063376080    0.2746038024
22   
torsion grid (105,)
C       -2.6496363140    2.2835251001    1.4397955594
C       -2.0440906553    3.4466388893    0.9596242038
C       -1.8712673602    1.3582027812    2.1418035448
C       -0.6782974890    3.6438870398    1.1969925842
C       -0.5249425623    1.6724622627    2.3188592440
C        3.0739643385    0.1559411675    2.6596574564
C        1.5051564398    0.2241043789    0.7860030882
N        0.0787358249    2.7692672403    1.8706509508
N        1.6889420766   -0.0785340525    2.2122704531
O        1.2187272419    1.3281048169    4.3228935821
O       -0.3440832876   -0.5662458829    3.7212345773
S        0.5172381695    0.5432501421    3.3023278550
H       -3.7076291298    2.0986696713    1.2749688852
H       -2.6128101096    4.1918936407    0.4113766402
H       -2.2745467819    0.4369916652    2.5481015030
H       -0.1740129027    4.5375781623    0.8349360127
H        3.1858549012   -0.1290593318    3.7047608477
H        3.7162432200   -0.4891561379    2.0532568757
H        3.3851605483    1.2017994270    2.5406878895
H        0.4755332481    0.0221585149    0.4825543946
H        1.7609579839    1.2606504963    0.5331926960
H        2.1507810911   -0.4562325294    0.2232810328
22   
torsion grid (120,)
C       -2.6984065805    2.2066492111    1.4143343154
C       -2.1563545564    3.3893085087    0.9073573786
C       -1.8719025382    1.3428481762    2.1395886458
C       -0.8042383713    3.6676739260    1.1430757504
C       -0.5443180263    1.7330807190    2.3079718028
C        2.9885693923   -0.1421206395    2.7302211177
C        1.5687337682    0.3961431563    0.7996520065
N       -0.0019419589    2.8515412330    1.8368452109
N        1.6185628294   -0.0553027130    2.1967038050
O        1.3210945962    1.5327533602    4.2307295387
O       -0.3046774048   -0.3766030504    3.8815320587
S        0.5471548318    0.6788875667    3.3233716665
H       -3.7443824936    1.9602159531    1.2534674793
H       -2.7638368027    4.0892704152    0.3412297275
H       -2.2265516018    0.4133600169    2.5712147279
H       -0.3495640304    4.5804348221    0.7632523301
H        2.9712625206   -0.5466498167    3.7428622048
H        3.5386945781   -0.8394411489    2.0922945406
H        3.4997464306    0.8290480557    2.7454826372
H        0.5477855565    0.3441934701    0.4177203920
H        1.9576546576    1.4126143313    0.6562835970
H        2.1724778506   -0.3061428098    0.2178490047
22   
torsion grid (135,)
C       -2.2809789197    3.0070072003    1.8566412728
C       -1.5379908287    4.1718130435    2.0577751443
C       -1.6786597289    1.7705621185    2.1079703689
C       -0.2153554854    4.0571633622    2.5017540975
C       -0.3549851522    1.7859594907    2.5499471626
C        0.9087874912   -1.2800579328    0.7303511295
C        1.8490009291    0.9725697498    0.7594136765
N        0.3738538756    2.8802145674    2.7448520041
N        1.4311469852   -0.1844917362    1.5650185941
O        1.3206992135    0.3703440415    4.0754713717
O       -0.6555539468   -0.7929446157    2.9320583011
S        0.4472847660    0.1802055078    2.9248100543
H       -3.3121550707    3.0563191205    1.5173961194
H       -1.9683835740    5.1527222853    1.8787891068
H       -2.2069043738    0.8307796332    1.9931780943
H        0.3936171346    4.9431133778    2.6707109175
H        0.6334836064   -2.1297737055    1.3520200456
H        0.0386020870   -0.9814336996    0.1274524358
H        1.7184021784   -1.5820670371    0.0598069660
H        2.2553827957    1.7529513534    1.4033316979
H        2.6421315828    0.6353172298    0.0865884397
H        1.0289005210    1.3899178760    0.1563856783
22   
torsion grid (150,)
C       -2.3342345295    2.9040642963    1.8923938542
C       -1.6004743716    4.0891507927    1.9753080039
C       -1.6987094505    1.6949183586    2.1894957364
C       -0.2536757728    4.0205758571    2.3501430930
C       -0.3529004823    1.7549782229    2.5559120936
C        0.7270470178   -1.1074946622    0.6352590228
C        2.0539091612    0.9245754746    0.9053464479
N        0.3678888199    2.8699311214    2.6362789712
N        1.4201459345   -0.2183722621    1.5831312283
O        1.4425379923    0.4560042435    4.0482846789
O       -0.5692438998   -0.8057982062    3.0693597474
S        0.5064287658    0.1889007539    2.9645871997
H       -3.3833072821    2.9178218850    1.6092904809
H       -2.0562738556    5.0506017370    1.7577582973
H       -2.2167837546    0.7428952190    2.1649638668
H        0.3492642141    4.9234424678    2.4255397783
H        0.2873357687   -1.9491500613    1.1661870052
H       -0.0564685040   -0.5882231586    0.0624577273
H        1.4806436176   -1.4821163375   -0.0631667037
H        2.5194539178    1.5829426599    1.6391631897
H        2.8326861062    0.5300273153    0.2469222592
H        1.3387874655    1.5029484829    0.3039821769
22   
torsion grid (165,)
C       -2.4223040623    2.8396791341    1.9798824780
C       -1.6819710050    4.0211451277    1.9002558405
C       -1.7627835734    1.6505580863    2.3034005125
C       -0.3048270509    3.9688862910    2.1438055101
C       -0.3878917440    1.7263749602    2.5339313139
C        0.6142431776   -0.9059096415    0.5328883370
C        2.2616134525    0.8378154779    1.0396610907
N        0.3400893525    2.8379338464    2.4567656912
N        1.3961923696   -0.2251813904    1.5765050964
O        1.4796455837    0.5087059799    4.0092443306
O       -0.5263514280   -0.8253999783    3.1212562856
S        0.5160065463    0.1947130029    2.9616569335
H       -3.4939621301    2.8416291806    1.7997097949
H       -2.1555137045    4.9676107221    1.6565104618
H       -2.2800201166    0.7021299246    2.3948526031
H        0.3042958974    4.8690573780    2.0882005900
H        0.0241725879   -1.7059253037    0.9760303892
H       -0.0483923147   -0.2169874700   -0.0135243446
H        1.3243965118   -1.3400807996   -0.1763136647
H        2.7612828222    1.3553343299    1.8582081969
H        3.0186924147    0.3632382621    0.4086447737
H        1.7005757924    1.5673359805    0.4413135539
22   
torsion grid (180,)
C       -2.5152812443    2.8153276576    2.1759692645
C       -1.7707728966    3.9564763153    1.8693859876
C       -1.8398534005    1.6380652242    2.5100759759
C       -0.3739900246    3.8769322312    1.9039220507
C       -0.4454596077    1.6868380407    2.5251488201
C        0.5772608674   -0.7100731688    0.4549297392
C        2.4623575684    0.6916649876    1.2107748448
N        0.2869311480    2.7585523566    2.2286358015
N        1.3763482868   -0.2269890999    1.5888892140
O        1.4507364508    0.5223355843    4.0080949278
O       -0.5200479603   -0.8637316558    3.1400787269
S        0.4923805518    0.1816592913    2.9616191717
H       -3.6015704426    2.8388236839    2.1576784396
H       -2.2556531653    4.8919582580    1.6063520554
H       -2.3554578562    0.7173424054    2.7593834728
H        0.2382227519    4.7442169608    1.6642176147
H       -0.1611355456   -1.4295693769    0.8064351641
H        0.0737475815    0.1089721715   -0.0807153413
H        1.2555572369   -1.2143929337   -0.2387062130
H        2.9607858887    1.0538341226    2.1090072603
H        3.1812898254    0.1246529176    0.6116052318
H        2.0958458794    1.5471113013    0.6309037740
