
  -OEChem-05262117483D

 66 69  0     1  0  0  0  0  0999 V2000
    1.5037    8.2811    1.4089 C   0  0  0  0  0  0  0  0  0  0  0  0
    2.9154    3.1530    2.4601 C   0  0  0  0  0  0  0  0  0  0  0  0
    4.4062    3.7863    4.2708 C   0  0  0  0  0  0  0  0  0  0  0  0
    3.2361    1.8176    2.6839 C   0  0  0  0  0  0  0  0  0  0  0  0
    4.7220    2.4521    4.4921 C   0  0  0  0  0  0  0  0  0  0  0  0
    2.4476    7.6033    2.1837 C   0  0  0  0  0  0  0  0  0  0  0  0
    0.5088    7.5730    0.7390 C   0  0  0  0  0  0  0  0  0  0  0  0
    3.4946    4.1619    3.2578 C   0  0  0  0  0  0  0  0  0  0  0  0
    4.1282    1.4624    3.6996 C   0  0  0  0  0  0  0  0  0  0  0  0
    0.5217    6.1572    0.8583 C   0  0  0  0  0  0  0  0  0  0  0  0
    2.3475    6.2063    2.2753 C   0  0  0  0  0  0  0  0  0  0  0  0
   -1.3509    7.4884   -0.8254 C   0  0  0  0  0  0  0  0  0  0  0  0
   -0.7112    0.6584   -0.1661 C   0  0  0  0  0  0  0  0  0  0  0  0
   -2.1558    1.1954   -0.1759 C   0  0  0  0  0  0  0  0  0  0  0  0
    0.3848    1.6784    0.1904 C   0  0  0  0  0  0  0  0  0  0  0  0
   -2.4933    2.2330    0.9101 C   0  0  0  0  0  0  0  0  0  0  0  0
    0.2123    3.0877   -0.4047 C   0  0  0  0  0  0  0  0  0  0  0  0
   -2.1454    3.6795    0.5187 C   0  0  0  0  0  0  0  0  0  0  0  0
   -0.9302    6.0389   -1.0556 C   0  0  1  0  0  0  0  0  0  0  0  0
   -0.6456    4.0101    0.4871 C   0  0  0  0  0  0  0  0  0  0  0  0
    0.0896    5.9929   -2.2127 C   0  0  0  0  0  0  0  0  0  0  0  0
   -0.7986    9.6251    0.2299 C   0  0  0  0  0  0  0  0  0  0  0  0
    3.3568   -0.1243    6.4634 C   0  0  0  0  0  0  0  0  0  0  0  0
    1.8904   -0.7648    4.5941 C   0  0  0  0  0  0  0  0  0  0  0  0
    1.4147    5.5095    1.6165 N   0  0  0  0  0  0  0  0  0  0  0  0
   -0.5460    8.1997    0.0376 N   0  0  0  0  0  0  0  0  0  0  0  0
   -0.4489    5.4427    0.1926 N   0  0  0  0  0  0  0  0  0  0  0  0
    3.2504    5.5231    3.0935 N   0  0  0  0  0  0  0  0  0  0  0  0
    3.2527   -0.7450    5.1381 N   0  0  0  0  0  0  0  0  0  0  0  0
   -2.3063    7.9821   -1.4200 O   0  0  0  0  0  0  0  0  0  0  0  0
    4.1936   -1.0157    2.8053 O   0  0  0  0  0  0  0  0  0  0  0  0
    5.7230   -0.3512    4.7520 O   0  0  0  0  0  0  0  0  0  0  0  0
    4.4502   -0.2605    4.0335 S   0  0  0  0  0  0  0  0  0  0  0  0
    1.5438    9.3633    1.3500 H   0  0  0  0  0  0  0  0  0  0  0  0
    2.2288    3.4288    1.6762 H   0  0  0  0  0  0  0  0  0  0  0  0
    4.8738    4.5541    4.8844 H   0  0  0  0  0  0  0  0  0  0  0  0
    2.8088    1.0462    2.0515 H   0  0  0  0  0  0  0  0  0  0  0  0
    5.4373    2.1733    5.2593 H   0  0  0  0  0  0  0  0  0  0  0  0
    3.2296    8.1482    2.7043 H   0  0  0  0  0  0  0  0  0  0  0  0
   -0.6395   -0.1744    0.5443 H   0  0  0  0  0  0  0  0  0  0  0  0
   -0.4984    0.2288   -1.1525 H   0  0  0  0  0  0  0  0  0  0  0  0
   -2.3751    1.6442   -1.1531 H   0  0  0  0  0  0  0  0  0  0  0  0
   -2.8356    0.3402   -0.0876 H   0  0  0  0  0  0  0  0  0  0  0  0
    0.4524    1.7736    1.2807 H   0  0  0  0  0  0  0  0  0  0  0  0
    1.3490    1.2678   -0.1297 H   0  0  0  0  0  0  0  0  0  0  0  0
   -3.5723    2.2023    1.0993 H   0  0  0  0  0  0  0  0  0  0  0  0
   -2.0127    1.9670    1.8609 H   0  0  0  0  0  0  0  0  0  0  0  0
    1.1956    3.5576   -0.5038 H   0  0  0  0  0  0  0  0  0  0  0  0
   -0.2087    3.0243   -1.4158 H   0  0  0  0  0  0  0  0  0  0  0  0
   -2.6018    3.8718   -0.4598 H   0  0  0  0  0  0  0  0  0  0  0  0
   -2.6176    4.3742    1.2227 H   0  0  0  0  0  0  0  0  0  0  0  0
   -1.8390    5.5231   -1.3582 H   0  0  0  0  0  0  0  0  0  0  0  0
   -0.2676    3.8924    1.5050 H   0  0  0  0  0  0  0  0  0  0  0  0
    1.0227    6.4891   -1.9285 H   0  0  0  0  0  0  0  0  0  0  0  0
   -0.3236    6.5024   -3.0882 H   0  0  0  0  0  0  0  0  0  0  0  0
    0.3198    4.9617   -2.4868 H   0  0  0  0  0  0  0  0  0  0  0  0
    0.0037   10.2291   -0.2088 H   0  0  0  0  0  0  0  0  0  0  0  0
   -0.8763    9.8520    1.2975 H   0  0  0  0  0  0  0  0  0  0  0  0
   -1.7356    9.8675   -0.2685 H   0  0  0  0  0  0  0  0  0  0  0  0
    4.3874   -0.1850    6.8123 H   0  0  0  0  0  0  0  0  0  0  0  0
    2.7230   -0.6916    7.1508 H   0  0  0  0  0  0  0  0  0  0  0  0
    3.0255    0.9257    6.4642 H   0  0  0  0  0  0  0  0  0  0  0  0
    1.8924   -1.2720    3.6295 H   0  0  0  0  0  0  0  0  0  0  0  0
    1.4666    0.2452    4.4816 H   0  0  0  0  0  0  0  0  0  0  0  0
    1.2612   -1.3333    5.2848 H   0  0  0  0  0  0  0  0  0  0  0  0
    3.8444    6.1275    3.6452 H   0  0  0  0  0  0  0  0  0  0  0  0
  1  6  1  0  0  0  0
  1  7  2  0  0  0  0
  1 34  1  0  0  0  0
  2  4  2  0  0  0  0
  2  8  1  0  0  0  0
  2 35  1  0  0  0  0
  3  5  1  0  0  0  0
  3  8  2  0  0  0  0
  3 36  1  0  0  0  0
  4  9  1  0  0  0  0
  4 37  1  0  0  0  0
  5  9  2  0  0  0  0
  5 38  1  0  0  0  0
  6 11  2  0  0  0  0
  6 39  1  0  0  0  0
  7 10  1  0  0  0  0
  7 26  1  0  0  0  0
  8 28  1  0  0  0  0
  9 33  1  0  0  0  0
 10 25  2  0  0  0  0
 10 27  1  0  0  0  0
 11 25  1  0  0  0  0
 11 28  1  0  0  0  0
 12 19  1  0  0  0  0
 12 26  1  0  0  0  0
 12 30  2  0  0  0  0
 13 14  1  0  0  0  0
 13 15  1  0  0  0  0
 13 40  1  0  0  0  0
 13 41  1  0  0  0  0
 14 16  1  0  0  0  0
 14 42  1  0  0  0  0
 14 43  1  0  0  0  0
 15 17  1  0  0  0  0
 15 44  1  0  0  0  0
 15 45  1  0  0  0  0
 16 18  1  0  0  0  0
 16 46  1  0  0  0  0
 16 47  1  0  0  0  0
 17 20  1  0  0  0  0
 17 48  1  0  0  0  0
 17 49  1  0  0  0  0
 18 20  1  0  0  0  0
 18 50  1  0  0  0  0
 18 51  1  0  0  0  0
 19 21  1  0  0  0  0
 19 27  1  0  0  0  0
 19 52  1  0  0  0  0
 20 27  1  0  0  0  0
 20 53  1  0  0  0  0
 21 54  1  0  0  0  0
 21 55  1  0  0  0  0
 21 56  1  0  0  0  0
 22 26  1  0  0  0  0
 22 57  1  0  0  0  0
 22 58  1  0  0  0  0
 22 59  1  0  0  0  0
 23 29  1  0  0  0  0
 23 60  1  0  0  0  0
 23 61  1  0  0  0  0
 23 62  1  0  0  0  0
 24 29  1  0  0  0  0
 24 63  1  0  0  0  0
 24 64  1  0  0  0  0
 24 65  1  0  0  0  0
 28 66  1  0  0  0  0
 29 33  1  0  0  0  0
 31 33  2  0  0  0  0
 32 33  2  0  0  0  0
M  END
$$$$
