39
0 1 C17ClH19O2
C                     0.643495252364    -1.162163522224    -0.727857630516
C                    -1.051689238576    -0.344199183806    -2.811679104406
C                    -0.315747717070    -0.161064815636    -0.470181450121
C                     0.747177562388    -1.745308981851    -1.985378071169
C                    -0.099499026587    -1.335897470004    -3.020945370386
C                    -1.141100983338     0.232545200111    -1.542344973028
C                    -0.479245694812    -0.131636281390     2.049217083805
C                    -0.411654593499     0.484701607106     0.854542104406
C                    -0.817278715256    -3.262978368628    -4.487313630141
C                     1.678428459696    -2.837894792136    -2.461905567863
C                    -0.535205967878    -1.624698382818     2.268580977025
C                    -0.476406018773     0.657316609675     3.337618830068
C                     1.598988863674    -2.714241344765    -4.002308005435
C                     0.634354927865    -2.089304395389     3.159779763617
C                     0.694417562588     0.210506165227     4.238201569055
C                     0.669837117108    -1.305622146385     4.480015265677
C                     0.180751763654    -2.117901549903    -4.285371790602
O                    -1.405344454005    -3.829195089446    -3.598068872733
O                    -0.967240609830    -3.683299408433    -5.781648871131
Cl                   -2.352509810872     1.487140904780    -1.293574395289
H                     1.322409478461    -1.447883639402     0.070651899342
H                    -1.720637544349    -0.017969651550    -3.602765278143
H                    -0.449194985752     1.573232819269     0.842920663762
H                     2.701488639664    -2.728588735974    -2.089413935071
H                     1.307170635322    -3.814845719114    -2.130644084219
H                    -1.476128748193    -1.853446493021     2.790567600753
H                    -0.556061561432    -2.176771048770     1.327396232823
H                    -0.417206514414     1.731637408149     3.135945177540
H                    -1.419315372671     0.478073233909     3.874724189584
H                     2.346975707353    -1.996483214776    -4.353066097346
H                     1.774810415550    -3.662335222425    -4.518355826790
H                     0.547999207954    -3.164229815869     3.356556352029
H                     1.579522042792    -1.938495907238     2.620865925109
H                     1.639561393717     0.487614478938     3.753110720360
H                     0.655718314578     0.748576008419     5.192621823770
H                     1.539129697588    -1.607061795404     5.076234429302
H                    -0.220342701723    -1.561314499626     5.071279912415
H                     0.189448817570    -1.475037404865    -5.173832815393
H                    -0.436155630647    -3.124801234660    -6.373849695856
