
  -OEChem-05262117483D

 50 52  0     1  0  0  0  0  0999 V2000
   -0.7732    4.7488    0.0657 C   0  0  0  0  0  0  0  0  0  0  0  0
   -2.3323    4.9685   -1.7518 C   0  0  0  0  0  0  0  0  0  0  0  0
   -1.8228    4.5248    0.9597 C   0  0  0  0  0  0  0  0  0  0  0  0
   -3.3955    4.7498   -0.8732 C   0  0  0  0  0  0  0  0  0  0  0  0
   -1.0028    4.9683   -1.3005 C   0  0  0  0  0  0  0  0  0  0  0  0
   -3.1322    4.5239    0.4785 C   0  0  0  0  0  0  0  0  0  0  0  0
   -3.8013    2.1463   -7.7738 C   0  0  0  0  0  0  0  0  0  0  0  0
   -2.3594    1.2907   -5.9070 C   0  0  0  0  0  0  0  0  0  0  0  0
   -2.7513    3.6634   -6.0702 C   0  0  0  0  0  0  0  0  0  0  0  0
   -0.1277    6.0528   -3.4475 C   0  0  0  0  0  0  0  0  0  0  0  0
    0.1758    5.1747   -2.2320 C   0  0  2  0  0  0  0  0  0  0  0  0
   -2.8162    1.0500   -7.3498 C   0  0  1  0  0  0  0  0  0  0  0  0
   -3.2298    3.5464   -7.5207 C   0  0  2  0  0  0  0  0  0  0  0  0
    0.6708    3.8831   -2.9512 C   0  0  2  0  0  0  0  0  0  0  0  0
   -0.1404    3.8608   -4.2855 C   0  0  1  0  0  0  0  0  0  0  0  0
   -3.4152   -0.3506   -7.5101 C   0  0  0  0  0  0  0  0  0  0  0  0
   -4.2447    4.6456   -7.8499 C   0  0  0  0  0  0  0  0  0  0  0  0
    0.6522    2.6113   -2.1032 C   0  0  0  0  0  0  0  0  0  0  0  0
   -1.2188    2.7808   -4.3897 C   0  0  0  0  0  0  0  0  0  0  0  0
   -1.7710    2.6225   -5.7353 N   0  0  0  0  0  0  0  0  0  0  0  0
   -0.7223    5.1802   -4.4107 O   0  0  0  0  0  0  0  0  0  0  0  0
   -4.4660    4.2411    1.5893 Cl  0  0  0  0  0  0  0  0  0  0  0  0
    0.2461    4.7533    0.4456 H   0  0  0  0  0  0  0  0  0  0  0  0
   -2.5432    5.1377   -2.8026 H   0  0  0  0  0  0  0  0  0  0  0  0
   -1.6282    4.3572    2.0145 H   0  0  0  0  0  0  0  0  0  0  0  0
   -4.4193    4.7536   -1.2347 H   0  0  0  0  0  0  0  0  0  0  0  0
   -4.0667    2.0276   -8.8322 H   0  0  0  0  0  0  0  0  0  0  0  0
   -4.7343    2.0309   -7.2013 H   0  0  0  0  0  0  0  0  0  0  0  0
   -3.2239    1.1417   -5.2263 H   0  0  0  0  0  0  0  0  0  0  0  0
   -1.6061    0.5421   -5.6356 H   0  0  0  0  0  0  0  0  0  0  0  0
   -2.2936    4.6388   -5.9065 H   0  0  0  0  0  0  0  0  0  0  0  0
   -3.6310    3.5984   -5.3942 H   0  0  0  0  0  0  0  0  0  0  0  0
   -0.8359    6.8611   -3.2483 H   0  0  0  0  0  0  0  0  0  0  0  0
    0.8007    6.4890   -3.8463 H   0  0  0  0  0  0  0  0  0  0  0  0
    1.0009    5.5973   -1.6499 H   0  0  0  0  0  0  0  0  0  0  0  0
   -1.9246    1.1281   -7.9863 H   0  0  0  0  0  0  0  0  0  0  0  0
   -2.3485    3.6779   -8.1627 H   0  0  0  0  0  0  0  0  0  0  0  0
    1.7144    4.0783   -3.2250 H   0  0  0  0  0  0  0  0  0  0  0  0
    0.5440    3.7125   -5.1307 H   0  0  0  0  0  0  0  0  0  0  0  0
   -4.3020   -0.4748   -6.8769 H   0  0  0  0  0  0  0  0  0  0  0  0
   -2.6952   -1.1297   -7.2337 H   0  0  0  0  0  0  0  0  0  0  0  0
   -3.7204   -0.5302   -8.5469 H   0  0  0  0  0  0  0  0  0  0  0  0
   -5.1368    4.5601   -7.2174 H   0  0  0  0  0  0  0  0  0  0  0  0
   -4.5711    4.5805   -8.8939 H   0  0  0  0  0  0  0  0  0  0  0  0
   -3.8180    5.6428   -7.6930 H   0  0  0  0  0  0  0  0  0  0  0  0
   -0.3555    2.3459   -1.7755 H   0  0  0  0  0  0  0  0  0  0  0  0
    1.2648    2.7465   -1.2055 H   0  0  0  0  0  0  0  0  0  0  0  0
    1.0682    1.7634   -2.6575 H   0  0  0  0  0  0  0  0  0  0  0  0
   -2.0057    2.9561   -3.6350 H   0  0  0  0  0  0  0  0  0  0  0  0
   -0.7396    1.8326   -4.1290 H   0  0  0  0  0  0  0  0  0  0  0  0
  1  3  1  0  0  0  0
  1  5  2  0  0  0  0
  1 23  1  0  0  0  0
  2  4  2  0  0  0  0
  2  5  1  0  0  0  0
  2 24  1  0  0  0  0
  3  6  2  0  0  0  0
  3 25  1  0  0  0  0
  4  6  1  0  0  0  0
  4 26  1  0  0  0  0
  5 11  1  0  0  0  0
  6 22  1  0  0  0  0
  7 12  1  0  0  0  0
  7 13  1  0  0  0  0
  7 27  1  0  0  0  0
  7 28  1  0  0  0  0
  8 12  1  0  0  0  0
  8 20  1  0  0  0  0
  8 29  1  0  0  0  0
  8 30  1  0  0  0  0
  9 13  1  0  0  0  0
  9 20  1  0  0  0  0
  9 31  1  0  0  0  0
  9 32  1  0  0  0  0
 10 11  1  0  0  0  0
 10 21  1  0  0  0  0
 10 33  1  0  0  0  0
 10 34  1  0  0  0  0
 11 14  1  0  0  0  0
 11 35  1  0  0  0  0
 12 16  1  0  0  0  0
 12 36  1  0  0  0  0
 13 17  1  0  0  0  0
 13 37  1  0  0  0  0
 14 15  1  0  0  0  0
 14 18  1  0  0  0  0
 14 38  1  0  0  0  0
 15 19  1  0  0  0  0
 15 21  1  0  0  0  0
 15 39  1  0  0  0  0
 16 40  1  0  0  0  0
 16 41  1  0  0  0  0
 16 42  1  0  0  0  0
 17 43  1  0  0  0  0
 17 44  1  0  0  0  0
 17 45  1  0  0  0  0
 18 46  1  0  0  0  0
 18 47  1  0  0  0  0
 18 48  1  0  0  0  0
 19 20  1  0  0  0  0
 19 49  1  0  0  0  0
 19 50  1  0  0  0  0
M  END
$$$$
