29
1 1 C11ClH14N2O
C                     2.403293646004    -5.141097966059     1.375518571174
C                     2.618262971202    -6.376272766553     1.998159870434
C                     1.129302633461    -4.577399922385     1.381419928969
C                     1.561443274901    -7.036891796571     2.624117872530
C                     0.046793960674    -5.221119403009     2.003794342994
C                     0.288511696301    -6.456518622265     2.625644268318
C                    -0.854588619083    -2.798185662337     3.611997314344
C                     0.186416563360    -2.756910072743     5.667461922508
C                    -0.465656540461    -1.397854855481     5.352385757777
C                    -1.949208279643    -4.621078553319     0.558833486913
C                    -1.335564114820    -4.589920805534     1.960516690800
N                    -0.367576724819    -3.579523682757     4.576805455290
N                    -1.284444950673    -3.174740016121     2.422601713722
O                    -0.890566710873    -1.517966604449     3.945216441453
Cl                   -1.007813695510    -7.326978488296     3.441525955738
H                     3.222677978548    -4.626758482202     0.882574192912
H                     3.605292358621    -6.829095875929     1.994659220307
H                     0.964744486219    -3.619707764977     0.893343372491
H                     1.713863234661    -7.996562362358     3.107275620999
H                     1.277824790307    -2.727405326394     5.606744092313
H                    -0.116612633456    -3.147065990083     6.639769038998
H                    -1.366034493159    -1.208459691188     5.938068452793
H                     0.213809686259    -0.549992105204     5.409255331919
H                    -1.323233666674    -4.084439774642    -0.160053870201
H                    -2.026692507663    -5.658654418724     0.228611418438
H                    -2.954520374558    -4.188027970499     0.560151191085
H                    -2.002183495814    -5.122084390750     2.642481184299
H                    -0.086185303683    -4.539653981829     4.402495376405
H                    -1.689043452911    -2.446190073644     1.841893887749
