51
1 1 C19ClH29NO
C                     1.854883579572     3.030592620194     0.741455648585
C                     0.942937156869     1.508387417414     2.366199170219
C                     2.669185694185     3.606198579886     1.717655006338
C                     1.746867562198     2.074712418473     3.357067574257
C                     0.983141162612     1.973709898886     1.042690712403
C                     2.609945501391     3.121689418656     3.026168899800
C                    -4.267646105621    -3.354618335746    -3.726463753203
C                    -2.447040281501    -1.626091806957    -3.613133097975
C                    -2.349592451617    -3.624801651266    -2.121919878220
C                    -1.263975846988     0.924086049547     0.288690140148
C                     0.160963224195     1.365119588096    -0.070964902370
C                    -3.933328941092    -1.865208313795    -3.879160477936
C                    -3.832160995417    -3.909302020265    -2.363728150775
C                     0.749806715858     0.087766760360    -0.748579125273
C                    -0.491847642618    -0.351032697841    -1.546584470960
C                    -4.300960933178    -1.322571284976    -5.265448969537
C                    -4.095509172328    -5.414479147089    -2.234047507269
C                     1.292102012618    -0.954204752587     0.233682063264
C                    -0.604443916297    -1.831274798702    -1.898594003473
N                    -2.037758645617    -2.153059184179    -2.256542830494
O                    -1.634665673711    -0.054473062849    -0.721419078476
Cl                    3.619130363847     3.835658084181     4.261850228720
H                     1.900495913994     3.418699431080    -0.273799522073
H                     0.283912664789     0.693041685965     2.649114558221
H                     3.337145565722     4.424819542554     1.469611586879
H                     1.703973060763     1.708853725678     4.378013723018
H                    -5.344100784738    -3.504381354941    -3.854915271511
H                    -3.774407425453    -3.923366169372    -4.526809808446
H                    -1.821731108875    -2.143307040865    -4.347138698741
H                    -2.207150392753    -0.562722479027    -3.633577764257
H                    -2.043587950643    -3.924150547584    -1.116838419900
H                    -1.717426343573    -4.145956974639    -2.847400487040
H                    -1.331276551723     0.440025646467     1.265689492132
H                    -1.980850780212     1.746915923703     0.252269910215
H                     0.073892188989     2.118636402420    -0.861700549123
H                    -4.501913534131    -1.299527739452    -3.127330807563
H                    -4.403073359630    -3.392004742723    -1.579202631427
H                     1.549553160403     0.377200812540    -1.436949806334
H                    -0.551676841398     0.254775813021    -2.461250928027
H                    -3.749438891989    -1.846132750668    -6.053882960013
H                    -4.085796643220    -0.252641969420    -5.350419001881
H                    -5.368230831620    -1.463689167831    -5.455854756468
H                    -3.540776406623    -5.978916620663    -2.991344530748
H                    -5.159070078283    -5.625265056557    -2.374177283977
H                    -3.807907808999    -5.792216270148    -1.247720041669
H                     0.522260293015    -1.323787810466     0.919482736991
H                     2.087633333134    -0.517566978000     0.840471160664
H                     1.722522791080    -1.812666049251    -0.292076054072
H                    -0.361216946098    -2.448818888440    -1.034599079550
H                     0.034709648724    -2.114778943976    -2.737455809236
H                    -2.587051501347    -1.638231767183    -1.550989553732
