28
0 1 C11ClH13N2O
C                    -3.175743600701     3.405887955558     2.833332215642
C                    -3.956940002715     2.905559311495     3.876492885034
C                    -1.912903918352     2.859653294305     2.587713777210
C                    -3.469930479165     1.862840790830     4.668665925261
C                    -1.397780241494     1.810321312656     3.361769345524
C                    -2.207747643320     1.328224331656     4.405634175155
C                     0.693270295812    -1.070435785773     2.338587354254
C                     1.881941971426    -2.868522537194     1.882102470874
C                     2.539627264156    -2.120562522799     3.070869895813
C                     0.919949465999     2.079979086413     2.273382646366
C                    -0.040481596232     1.186552045713     3.069230102640
N                     0.783728128668    -1.993268791311     1.451393661256
N                    -0.275518189110    -0.105963227847     2.407394536548
O                     1.607288404961    -1.044139970030     3.363211046500
Cl                   -1.645724149179     0.020573880774     5.437671798875
H                    -3.544108460890     4.218622356226     2.213479331026
H                    -4.939826551712     3.321614225172     4.080307953689
H                    -1.314384775941     3.263197135779     1.777516262673
H                    -4.061137101621     1.463729268880     5.486778163417
H                     2.588439554338    -3.034959501664     1.062062170260
H                     1.490128110134    -3.848315087583     2.183295957238
H                     2.649426243598    -2.721627827818     3.975906042035
H                     3.502878459912    -1.667957910693     2.815372009905
H                     0.561483706928     2.263091737150     1.255498592118
H                     1.068054689412     3.043915249151     2.771008750663
H                     1.889497934064     1.580330302772     2.198278001260
H                     0.432997411094     0.953971274310     4.024457066845
H                    -0.854277790973    -0.080651099621     1.575558426107
