29
1 1 C11ClH14N2O
C                     1.500785717990    -7.132684153760     2.478948148566
C                     2.573271112935    -6.439935049875     1.912334068581
C                     0.231925120839    -6.549398949015     2.486794454864
C                     2.371429092094    -5.174202673221     1.356559093651
C                    -0.001033419591    -5.279993733263     1.930663962809
C                     1.096047063168    -4.605543445028     1.365600583722
C                    -0.978732576686    -2.974490162503     3.640023608359
C                     0.331232855157    -2.833249002526     5.529378272986
C                    -0.505571266190    -1.554313209957     5.342708387203
C                    -2.095907029406    -4.758671809028     0.567516676386
C                    -1.427044910726    -4.749555387464     1.946221058413
N                    -0.281100140832    -3.708466679690     4.512095554553
N                    -1.526592457572    -3.378061383606     2.512030921333
O                    -1.113069720349    -1.711438327719     4.009773251224
Cl                    0.922758418010    -3.006349620437     0.652413835736
H                     1.647183048414    -8.119043232406     2.908302830744
H                     3.566281435818    -6.879111271667     1.896479030331
H                    -0.603953242020    -7.094195036729     2.920918314903
H                     3.196278407029    -4.627970790149     0.910291595605
H                     1.391639325176    -2.679330825663     5.311284833705
H                     0.219628862833    -3.259887703837     6.526854555187
H                    -1.326387980900    -1.471133061319     6.056146674285
H                     0.077866976605    -0.636147986634     5.321515702474
H                    -1.567469375639    -4.114908713619    -0.138456968169
H                    -2.084396080964    -5.777357841923     0.175530753124
H                    -3.139083367736    -4.435747115455     0.643041673409
H                    -2.008692708887    -5.398071377951     2.609220613281
H                     0.110522544609    -4.608199925209     4.246427533543
H                    -1.984206700371    -2.656645686572     1.962979116406
