50
0 1 C19ClH28NO
C                    -0.798369932910     4.946966940903    -0.032213667991
C                    -2.102579239644     5.058677266095    -2.051608393285
C                    -1.962474175511     4.829826230925     0.731843816609
C                    -3.276431995404     4.945473475812    -1.304408393784
C                    -0.842712141483     5.056552169794    -1.429239075237
C                    -3.197833965774     4.827117145237     0.084184389397
C                    -3.743354142541     2.128414983428    -7.207938852356
C                    -1.420807763532     2.615829925515    -6.380289486170
C                    -3.129700717117     2.008544676854    -4.782230079933
C                     0.322084026781     5.883608958047    -3.549482239589
C                     0.452775922645     5.147886817537    -2.214517402084
C                    -2.463919775080     2.936751603969    -7.456598736807
C                    -4.257289350885     2.309882834976    -5.774276469484
C                     1.005015099497     3.785060164878    -2.729969586863
C                     0.250862923264     3.593036413335    -4.074499101363
C                    -1.897560054704     2.692962737533    -8.858597049847
C                    -5.487440740910     1.442417799743    -5.491493857337
C                     0.972863445783     2.620532289461    -1.740543502939
C                    -0.956743660176     2.643005180864    -3.987575711890
N                    -1.949860744560     2.834697249424    -5.034966697989
O                    -0.160151815611     4.912590705572    -4.483625328484
Cl                   -4.673766352180     4.675154151165     1.028990160957
H                     0.163491511197     4.951439483186     0.475959927676
H                    -2.173413948545     5.124013061763    -3.133479719748
H                    -1.911667273545     4.744847673537     1.812887494038
H                    -4.243797951440     4.944807908467    -1.797433688534
H                    -4.519694094789     2.416707129396    -7.928179019259
H                    -3.534970528272     1.061590646906    -7.381524688727
H                    -1.075836330255     1.567118224225    -6.508013380521
H                    -0.553294456755     3.264820143451    -6.524163641445
H                    -3.473993501788     2.207643347784    -3.760465436905
H                    -2.884066059403     0.926157196232    -4.833514495539
H                    -0.389281584294     6.713595631180    -3.531436010805
H                     1.301305790755     6.269413710481    -3.870584991901
H                     1.207751080568     5.625725837613    -1.581739136551
H                    -2.707445100681     4.002395044503    -7.354832270540
H                    -4.530456310396     3.365245685249    -5.641046385712
H                     2.055826528333     3.971843453337    -2.982909086169
H                     0.948410600804     3.214055115277    -4.831768136659
H                    -1.628233937473     1.638804686182    -8.997539337019
H                    -0.998912982453     3.294616011350    -9.037086178751
H                    -2.631844484234     2.951911515034    -9.629486471534
H                    -5.252287321580     0.376899229155    -5.601776425372
H                    -6.300818123640     1.676258176953    -6.187299467624
H                    -5.862751205451     1.598096427475    -4.473390813683
H                    -0.035758631417     2.400155842107    -1.384881457024
H                     1.585384283807     2.853690573121    -0.863004230100
H                     1.380754705589     1.711089160720    -2.194316892875
H                    -1.469485182318     2.784873738635    -3.034592702480
H                    -0.557243378188     1.607930625007    -3.979092154520
