50
0 1 C19ClH28NO
C                     2.046864261382     7.571453343025    -1.292777703123
C                     0.129543676569     7.093665483802     0.072788679876
C                     2.694534901859     8.160979420372    -0.204758152405
C                     0.757631230638     7.680967445208     1.172950185818
C                     0.759171501454     7.025546935688    -1.180657821228
C                     2.039882731190     8.211507678786     1.025991546542
C                     0.806773420477    -0.307873512549    -4.848344385237
C                    -0.991121800545     0.811077700282    -3.504798785800
C                     0.210866026898     2.111818832495    -5.140081242009
C                    -1.377472579192     6.623848753198    -2.601505892188
C                     0.127200871471     6.366533360534    -2.384215198860
C                     0.075558864365    -0.288462911454    -3.500170538415
C                     1.340838339411     1.079949201372    -5.223066854520
C                     0.208140388547     4.813957137729    -2.459926106421
C                    -0.809660039827     4.573539960933    -3.587739508209
C                    -0.538980165580    -1.650408071299    -3.163419005255
C                     1.990029417140     1.087451812364    -6.610392342951
C                    -0.129967573973     4.091832740116    -1.153651796750
C                    -1.423029254754     3.179309143829    -3.683733037407
N                    -0.418687194584     2.123261448284    -3.816710730108
O                    -1.882951625669     5.504305951996    -3.343605099638
Cl                    2.835762567817     8.956076143520     2.405255432926
H                     2.558754342685     7.537440932902    -2.252056836526
H                    -0.865131739449     6.681322949346     0.208520226657
H                     3.690451381313     8.579525091802    -0.311348746294
H                     0.257020275826     7.726786767295     2.135159484564
H                     1.627567592238    -1.035789537770    -4.823592671553
H                     0.109957785523    -0.647080846016    -5.629722697210
H                    -1.788994343919     0.539482592883    -4.226872832202
H                    -1.461926684921     0.869503409973    -2.516920629886
H                     0.617740245146     3.105265282067    -5.349700289269
H                    -0.537299927392     1.897586714652    -5.931659783390
H                    -1.932408294940     6.691255811969    -1.659562085612
H                    -1.552433392584     7.548042479724    -3.164044609137
H                     0.651784733992     6.742102799110    -3.270164124181
H                     0.803989207501    -0.027216880429    -2.720762167986
H                     2.095500150341     1.367690214567    -4.478727936277
H                     1.207125503145     4.505644349885    -2.783218006644
H                    -0.337171514653     4.840558172303    -4.544916157054
H                    -1.285091785145    -1.942219044631    -3.912273440263
H                    -1.034152840283    -1.636380096746    -2.185676344502
H                     0.228762868956    -2.431536759797    -3.138111708417
H                     1.263435324217     0.820216273204    -7.387073900255
H                     2.812179531419     0.365326250561    -6.662741119139
H                     2.396225484210     2.074980774820    -6.858257345021
H                    -1.143827330787     4.320144263245    -0.808184820766
H                     0.566501788581     4.376243529996    -0.360278042849
H                    -0.054048652143     3.011571678738    -1.300230751377
H                    -2.151554907998     3.170352824830    -4.515280719809
H                    -1.993114229231     3.002647565464    -2.767905581415
