
  -OEChem-05262117483D

 51 53  0     1  0  0  0  0  0999 V2000
    1.8549    3.0306    0.7415 C   0  0  0  0  0  0  0  0  0  0  0  0
    0.9429    1.5084    2.3662 C   0  0  0  0  0  0  0  0  0  0  0  0
    2.6692    3.6062    1.7177 C   0  0  0  0  0  0  0  0  0  0  0  0
    1.7469    2.0747    3.3571 C   0  0  0  0  0  0  0  0  0  0  0  0
    0.9831    1.9737    1.0427 C   0  0  0  0  0  0  0  0  0  0  0  0
    2.6099    3.1217    3.0262 C   0  0  0  0  0  0  0  0  0  0  0  0
   -4.2676   -3.3546   -3.7265 C   0  0  0  0  0  0  0  0  0  0  0  0
   -2.4470   -1.6261   -3.6131 C   0  0  0  0  0  0  0  0  0  0  0  0
   -2.3496   -3.6248   -2.1219 C   0  0  0  0  0  0  0  0  0  0  0  0
   -1.2640    0.9241    0.2887 C   0  0  0  0  0  0  0  0  0  0  0  0
    0.1610    1.3651   -0.0710 C   0  0  2  0  0  0  0  0  0  0  0  0
   -3.9333   -1.8652   -3.8792 C   0  0  1  0  0  0  0  0  0  0  0  0
   -3.8322   -3.9093   -2.3637 C   0  0  2  0  0  0  0  0  0  0  0  0
    0.7498    0.0878   -0.7486 C   0  0  2  0  0  0  0  0  0  0  0  0
   -0.4918   -0.3510   -1.5466 C   0  0  1  0  0  0  0  0  0  0  0  0
   -4.3010   -1.3226   -5.2654 C   0  0  0  0  0  0  0  0  0  0  0  0
   -4.0955   -5.4145   -2.2340 C   0  0  0  0  0  0  0  0  0  0  0  0
    1.2921   -0.9542    0.2337 C   0  0  0  0  0  0  0  0  0  0  0  0
   -0.6044   -1.8313   -1.8986 C   0  0  0  0  0  0  0  0  0  0  0  0
   -2.0378   -2.1531   -2.2565 N   0  3  0  0  0  0  0  0  0  0  0  0
   -1.6347   -0.0545   -0.7214 O   0  0  0  0  0  0  0  0  0  0  0  0
    3.6191    3.8357    4.2619 Cl  0  0  0  0  0  0  0  0  0  0  0  0
    1.9005    3.4187   -0.2738 H   0  0  0  0  0  0  0  0  0  0  0  0
    0.2839    0.6930    2.6491 H   0  0  0  0  0  0  0  0  0  0  0  0
    3.3371    4.4248    1.4696 H   0  0  0  0  0  0  0  0  0  0  0  0
    1.7040    1.7089    4.3780 H   0  0  0  0  0  0  0  0  0  0  0  0
   -5.3441   -3.5044   -3.8549 H   0  0  0  0  0  0  0  0  0  0  0  0
   -3.7744   -3.9234   -4.5268 H   0  0  0  0  0  0  0  0  0  0  0  0
   -1.8217   -2.1433   -4.3471 H   0  0  0  0  0  0  0  0  0  0  0  0
   -2.2072   -0.5627   -3.6336 H   0  0  0  0  0  0  0  0  0  0  0  0
   -2.0436   -3.9242   -1.1168 H   0  0  0  0  0  0  0  0  0  0  0  0
   -1.7174   -4.1460   -2.8474 H   0  0  0  0  0  0  0  0  0  0  0  0
   -1.3313    0.4400    1.2657 H   0  0  0  0  0  0  0  0  0  0  0  0
   -1.9809    1.7469    0.2523 H   0  0  0  0  0  0  0  0  0  0  0  0
    0.0739    2.1186   -0.8617 H   0  0  0  0  0  0  0  0  0  0  0  0
   -4.5019   -1.2995   -3.1273 H   0  0  0  0  0  0  0  0  0  0  0  0
   -4.4031   -3.3920   -1.5792 H   0  0  0  0  0  0  0  0  0  0  0  0
    1.5496    0.3772   -1.4369 H   0  0  0  0  0  0  0  0  0  0  0  0
   -0.5517    0.2548   -2.4613 H   0  0  0  0  0  0  0  0  0  0  0  0
   -3.7494   -1.8461   -6.0539 H   0  0  0  0  0  0  0  0  0  0  0  0
   -4.0858   -0.2526   -5.3504 H   0  0  0  0  0  0  0  0  0  0  0  0
   -5.3682   -1.4637   -5.4559 H   0  0  0  0  0  0  0  0  0  0  0  0
   -3.5408   -5.9789   -2.9913 H   0  0  0  0  0  0  0  0  0  0  0  0
   -5.1591   -5.6253   -2.3742 H   0  0  0  0  0  0  0  0  0  0  0  0
   -3.8079   -5.7922   -1.2477 H   0  0  0  0  0  0  0  0  0  0  0  0
    0.5223   -1.3238    0.9195 H   0  0  0  0  0  0  0  0  0  0  0  0
    2.0876   -0.5176    0.8405 H   0  0  0  0  0  0  0  0  0  0  0  0
    1.7225   -1.8127   -0.2921 H   0  0  0  0  0  0  0  0  0  0  0  0
   -0.3612   -2.4488   -1.0346 H   0  0  0  0  0  0  0  0  0  0  0  0
    0.0347   -2.1148   -2.7375 H   0  0  0  0  0  0  0  0  0  0  0  0
   -2.5871   -1.6382   -1.5510 H   0  0  0  0  0  0  0  0  0  0  0  0
  1  3  1  0  0  0  0
  1  5  2  0  0  0  0
  1 23  1  0  0  0  0
  2  4  2  0  0  0  0
  2  5  1  0  0  0  0
  2 24  1  0  0  0  0
  3  6  2  0  0  0  0
  3 25  1  0  0  0  0
  4  6  1  0  0  0  0
  4 26  1  0  0  0  0
  5 11  1  0  0  0  0
  6 22  1  0  0  0  0
  7 12  1  0  0  0  0
  7 13  1  0  0  0  0
  7 27  1  0  0  0  0
  7 28  1  0  0  0  0
  8 12  1  0  0  0  0
  8 20  1  0  0  0  0
  8 29  1  0  0  0  0
  8 30  1  0  0  0  0
  9 13  1  0  0  0  0
  9 20  1  0  0  0  0
  9 31  1  0  0  0  0
  9 32  1  0  0  0  0
 10 11  1  0  0  0  0
 10 21  1  0  0  0  0
 10 33  1  0  0  0  0
 10 34  1  0  0  0  0
 11 14  1  0  0  0  0
 11 35  1  0  0  0  0
 12 16  1  0  0  0  0
 12 36  1  0  0  0  0
 13 17  1  0  0  0  0
 13 37  1  0  0  0  0
 14 15  1  0  0  0  0
 14 18  1  0  0  0  0
 14 38  1  0  0  0  0
 15 19  1  0  0  0  0
 15 21  1  0  0  0  0
 15 39  1  0  0  0  0
 16 40  1  0  0  0  0
 16 41  1  0  0  0  0
 16 42  1  0  0  0  0
 17 43  1  0  0  0  0
 17 44  1  0  0  0  0
 17 45  1  0  0  0  0
 18 46  1  0  0  0  0
 18 47  1  0  0  0  0
 18 48  1  0  0  0  0
 19 20  1  0  0  0  0
 19 49  1  0  0  0  0
 19 50  1  0  0  0  0
 20 51  1  0  0  0  0
M  CHG  1  20   1
M  END
$$$$
