
  -OEChem-05262117483D

 38 40  0     1  0  0  0  0  0999 V2000
    1.9628    2.0902   -0.5572 C   0  0  0  0  0  0  0  0  0  0  0  0
    3.5869    2.3294    1.7226 C   0  0  0  0  0  0  0  0  0  0  0  0
    1.6530    1.3079    0.5796 C   0  0  0  0  0  0  0  0  0  0  0  0
    3.0629    2.9370   -0.5670 C   0  0  0  0  0  0  0  0  0  0  0  0
    3.8912    3.0475    0.5641 C   0  0  0  0  0  0  0  0  0  0  0  0
    2.4834    1.4759    1.7041 C   0  0  0  0  0  0  0  0  0  0  0  0
    0.0908   -0.4601   -0.3452 C   0  0  0  0  0  0  0  0  0  0  0  0
    0.4810    0.4130    0.6037 C   0  0  0  0  0  0  0  0  0  0  0  0
    4.6775    5.3742    1.1732 C   0  0  0  0  0  0  0  0  0  0  0  0
    3.5412    3.8852   -1.6478 C   0  0  0  0  0  0  0  0  0  0  0  0
    0.8361   -0.7653   -1.6233 C   0  0  0  0  0  0  0  0  0  0  0  0
   -1.2124   -1.2178   -0.2310 C   0  0  0  0  0  0  0  0  0  0  0  0
    4.9821    4.2336   -1.1957 C   0  0  0  0  0  0  0  0  0  0  0  0
   -0.0435   -0.4672   -2.8535 C   0  0  0  0  0  0  0  0  0  0  0  0
   -2.1144   -0.9254   -1.4485 C   0  0  0  0  0  0  0  0  0  0  0  0
   -1.3839   -1.2138   -2.7692 C   0  0  0  0  0  0  0  0  0  0  0  0
    4.9885    4.0477    0.3394 C   0  0  2  0  0  0  0  0  0  0  0  0
    4.8065    5.2251    2.4150 O   0  5  0  0  0  0  0  0  0  0  0  0
    4.3470    6.3820    0.4978 O   0  0  0  0  0  0  0  0  0  0  0  0
    2.1410    0.5383    3.1779 Cl  0  0  0  0  0  0  0  0  0  0  0  0
    1.3008    2.0378   -1.4187 H   0  0  0  0  0  0  0  0  0  0  0  0
    4.1863    2.4564    2.6175 H   0  0  0  0  0  0  0  0  0  0  0  0
   -0.1329    0.4715    1.5027 H   0  0  0  0  0  0  0  0  0  0  0  0
    3.4902    3.4502   -2.6537 H   0  0  0  0  0  0  0  0  0  0  0  0
    2.9224    4.7904   -1.6406 H   0  0  0  0  0  0  0  0  0  0  0  0
    1.7815   -0.2235   -1.6765 H   0  0  0  0  0  0  0  0  0  0  0  0
    1.0796   -1.8398   -1.6305 H   0  0  0  0  0  0  0  0  0  0  0  0
   -1.0103   -2.3002   -0.2012 H   0  0  0  0  0  0  0  0  0  0  0  0
   -1.7310   -0.9595    0.6984 H   0  0  0  0  0  0  0  0  0  0  0  0
    5.6903    3.5357   -1.6643 H   0  0  0  0  0  0  0  0  0  0  0  0
    5.2566    5.2571   -1.4571 H   0  0  0  0  0  0  0  0  0  0  0  0
   -0.2302    0.6134   -2.9052 H   0  0  0  0  0  0  0  0  0  0  0  0
    0.4868   -0.7440   -3.7735 H   0  0  0  0  0  0  0  0  0  0  0  0
   -3.0360   -1.5189   -1.3883 H   0  0  0  0  0  0  0  0  0  0  0  0
   -2.4102    0.1316   -1.4208 H   0  0  0  0  0  0  0  0  0  0  0  0
   -1.1953   -2.2946   -2.8448 H   0  0  0  0  0  0  0  0  0  0  0  0
   -2.0226   -0.9469   -3.6209 H   0  0  0  0  0  0  0  0  0  0  0  0
    5.9488    3.6803    0.7150 H   0  0  0  0  0  0  0  0  0  0  0  0
  1  3  1  0  0  0  0
  1  4  2  0  0  0  0
  1 21  1  0  0  0  0
  2  5  2  0  0  0  0
  2  6  1  0  0  0  0
  2 22  1  0  0  0  0
  3  6  2  0  0  0  0
  3  8  1  0  0  0  0
  4  5  1  0  0  0  0
  4 10  1  0  0  0  0
  5 17  1  0  0  0  0
  6 20  1  0  0  0  0
  7  8  2  0  0  0  0
  7 11  1  0  0  0  0
  7 12  1  0  0  0  0
  8 23  1  0  0  0  0
  9 17  1  0  0  0  0
  9 18  1  0  0  0  0
  9 19  2  0  0  0  0
 10 13  1  0  0  0  0
 10 24  1  0  0  0  0
 10 25  1  0  0  0  0
 11 14  1  0  0  0  0
 11 26  1  0  0  0  0
 11 27  1  0  0  0  0
 12 15  1  0  0  0  0
 12 28  1  0  0  0  0
 12 29  1  0  0  0  0
 13 17  1  0  0  0  0
 13 30  1  0  0  0  0
 13 31  1  0  0  0  0
 14 16  1  0  0  0  0
 14 32  1  0  0  0  0
 14 33  1  0  0  0  0
 15 16  1  0  0  0  0
 15 34  1  0  0  0  0
 15 35  1  0  0  0  0
 16 36  1  0  0  0  0
 16 37  1  0  0  0  0
 17 38  1  0  0  0  0
M  CHG  1  18  -1
M  END
$$$$
