14   
torsion grid (-165,)
C        0.2324110854   -0.3909318128    0.9671021929
C        1.6743171655   -0.8111539812    2.8587703992
C       -0.7116386771   -1.2251880835    1.5701617287
C        1.4421494434   -0.1857493873    1.6349675058
C        0.6536379920   -1.6351503418    3.3397852287
N       -0.5136780653   -1.8335525573    2.7485537084
O       -0.1955098916   -3.4903422042    5.0970122761
O        2.3522824552   -3.0517529722    4.5747730338
S        0.8199461706   -2.4145375081    5.0125497036
Cl       2.6634676275    0.8489030492    0.9369277834
H        0.0279458062    0.0856692448    0.0142219445
H        2.6113685383   -0.6933536783    3.3914095348
H       -1.6699767059   -1.4051393978    1.0872623722
H        2.7631060288   -3.3906704594    5.3927805319
14   
torsion grid (-150,)
C        0.2161521527   -0.3650468926    0.9800024697
C        1.6770194777   -0.8919367771    2.8316874641
C       -0.7582380381   -1.1556073076    1.5943460480
C        1.4493677804   -0.2361448328    1.6221497066
C        0.6250704026   -1.6679027069    3.3249749979
N       -0.5663979799   -1.7926303840    2.7573695150
O       -0.0822511357   -3.7344361360    4.8949572932
O        2.3960117178   -2.8602448668    4.7004290253
S        0.7398717577   -2.5029926540    4.9735545714
Cl       2.7091750974    0.7415557901    0.9099439209
H        0.0167312075    0.1355665387    0.0384707440
H        2.6302750346   -0.8347666938    3.3430541838
H       -1.7362872671   -1.2752641547    1.1328789771
H        2.7611711505   -3.1753466913    5.5486390481
14   
torsion grid (-135,)
C        0.2039841249   -0.3052241498    0.9876111596
C        1.6764801245   -0.9427541938    2.7973842658
C       -0.7963264357   -1.0596522020    1.6069892875
C        1.4540532795   -0.2514400916    1.6057119808
C        0.5986003447   -1.6758072598    3.2972628605
N       -0.6105935640   -1.7308556388    2.7504837923
O        0.0708205005   -3.9318549762    4.6606276176
O        2.3805080691   -2.6872509204    4.8138932343
S        0.6700374477   -2.5955630575    4.9007157414
Cl       2.7450385747    0.6803732365    0.8877167688
H        0.0102252595    0.2249485226    0.0612298726
H        2.6390501421   -0.9386122762    3.2930116043
H       -1.7887893142   -1.1200386138    1.1651810124
H        2.6902644471   -3.0178489958    5.6777704639
14   
torsion grid (-120,)
C        0.1946992133   -0.3007598786    0.9994126951
C        1.6880702114   -1.0121458894    2.7643198872
C       -0.8210174687   -1.0124830335    1.6441063698
C        1.4629621895   -0.3060370824    1.5814799456
C        0.5931057125   -1.6967571950    3.2921462196
N       -0.6332645688   -1.6976565687    2.7785334072
O        0.2917133983   -4.0778879946    4.4967168128
O        2.3529395239   -2.5246021028    4.9502874168
S        0.6486998902   -2.6811114223    4.8547743964
Cl       2.7727494950    0.5728682244    0.8313646929
H       -0.0011038954    0.2423088054    0.0809810839
H        2.6605366261   -1.0470828145    3.2386507429
H       -1.8271023422   -1.0263825926    1.2302496371
H        2.6214831098   -2.8743526148    5.8201883288
14   
torsion grid (-105,)
C        0.1909376841   -0.2700889897    1.0170888014
C        1.6894299269   -1.0712612334    2.7386123207
C       -0.8405769167   -0.9502334152    1.6700070754
C        1.4699899168   -0.3372744820    1.5722828880
C        0.5766557944   -1.7140477640    3.2798802305
N       -0.6588436458   -1.6608475682    2.7903829867
O        0.5320092454   -4.1842826130    4.3258921332
O        2.2696637371   -2.3805702368    5.0767680410
S        0.6265271375   -2.7742163425    4.7890886876
Cl       2.7986463428    0.5005854538    0.8088585533
H       -0.0002572754    0.2960071846    0.1116765478
H        2.6669060993   -1.1505170885    3.1975467760
H       -1.8540219415   -0.9167339207    1.2758694964
H        2.5218307065   -2.8102087009    5.9154007818
14   
torsion grid (-90,)
C        0.1866711346   -0.2473366345    1.0376855109
C        1.6894736740   -1.1400036603    2.7079933547
C       -0.8574288878   -0.8942254739    1.7030153241
C        1.4755951206   -0.3777893370    1.5599416446
C        0.5615977129   -1.7385783822    3.2683631860
N       -0.6814480430   -1.6307724482    2.8087554638
O        0.8061617392   -4.2422164313    4.1893421504
O        2.1608247962   -2.2501019977    5.1913243553
S        0.6302362517   -2.8642383926    4.7242333372
Cl       2.8196328654    0.4156566814    0.7767563406
H       -0.0010792675    0.3407831491    0.1456742680
H        2.6713041705   -1.2655306596    3.1477509200
H       -1.8768703423   -0.8128547461    1.3321859533
H        2.4105233709   -2.7061815102    6.0167944851
14   
torsion grid (-75,)
C        0.1807374177   -0.2240616957    1.0617807115
C        1.6885039462   -1.2217568350    2.6656786516
C       -0.8720627068   -0.8410863186    1.7399573757
C        1.4778174056   -0.4232400078    1.5433610726
C        0.5495415637   -1.7790529139    3.2471121065
N       -0.6992524960   -1.6118044879    2.8245242197
O        1.1094020301   -4.2557327126    4.0968639083
O        2.0127406394   -2.1312906171    5.2980985314
S        0.6517531157   -2.9535233782    4.6577591543
Cl       2.8320100717    0.3301042366    0.7391078269
H       -0.0050572196    0.3926763249    0.1888552554
H        2.6748524995   -1.3992329705    3.0776752153
H       -1.8962639939   -0.7084788330    1.3982920352
H        2.2676356601   -2.5966555597    6.1171660879
14   
torsion grid (-60,)
C        0.2960978326   -0.5433729291    0.9059291539
C        1.3003066618   -0.5119671983    3.1031794454
C       -0.5261680445   -1.5805870807    1.3476448813
C        1.2202262163   -0.0062884562    1.8082761909
C        0.4175122095   -1.5469504446    3.4147377406
N       -0.4742092401   -2.0851401729    2.5911814014
O        1.8538745286   -2.9537638628    5.1765191147
O        0.4861261469   -0.8483744276    5.8476519593
S        0.4889511594   -2.3673408648    5.0548044033
Cl       2.2696851794    1.2960764669    1.3085931325
H        0.2191778874   -0.1660586451   -0.1082787221
H        2.0001512119   -0.1285959519    3.8370742418
H       -1.2569488711   -2.0248035832    0.6754657899
H        0.4547963953   -1.0237580747    6.8074857392
14   
torsion grid (-45,)
C        0.2525811934   -0.5050446555    0.9282215959
C        1.4096569996   -0.5720498412    3.0473551233
C       -0.5729767057   -1.5268346091    1.3991777826
C        1.2572768180   -0.0258513386    1.7756690056
C        0.5128822251   -1.5835903466    3.3925611461
N       -0.4534719177   -2.0680450079    2.6227605065
O        2.1079323381   -2.6685214022    5.2369128715
O        0.2794872299   -0.9122667443    5.8164397591
S        0.6576947862   -2.3873236705    5.0345265919
Cl       2.3143870273    1.2542038913    1.2366676729
H        0.1181838347   -0.0964704078   -0.0677312962
H        2.1808333200   -0.2459971071    3.7368833266
H       -1.3628972925   -1.9276215696    0.7678198711
H        0.1489196324   -1.1097378301    6.7637899206
14   
torsion grid (-30,)
C        0.2678827017   -0.4515940371    0.9713567513
C        1.5414914261   -0.6037474556    3.0179914397
C       -0.5725356100   -1.4464567342    1.4753297012
C        1.3396201206   -0.0300526300    1.7645265391
C        0.6230140570   -1.5803870359    3.3988572701
N       -0.4065883091   -2.0123771793    2.6811175713
O        2.2789784519   -2.3596519252    5.3319136378
O        0.0890314833   -1.0312504620    5.8062198655
S        0.8164757206   -2.3749563387    5.0399343279
Cl       2.4198034193    1.2112326539    1.1828697661
H        0.0941200884   -0.0221631058   -0.0096270564
H        2.3672759453   -0.3318289310    3.6673052177
H       -1.4132170445   -1.8031626827    0.8842391749
H       -0.1517383583   -1.3062022887    6.7116325001
14   
torsion grid (-15,)
C        0.2630906369   -0.4450544281    0.9895620560
C        1.6234828098   -0.6360705257    2.9761566685
C       -0.5982077587   -1.3947428013    1.5462560530
C        1.3899995849   -0.0675149210    1.7244655752
C        0.6766082994   -1.5576158473    3.4147054767
N       -0.4016406768   -1.9542582231    2.7488708602
O        2.3443172586   -2.0726610207    5.4188164476
O       -0.0741601326   -1.1881815411    5.8050640578
S        0.9247216073   -2.3475491979    5.0523158575
Cl       2.5026960448    1.1097058043    1.0747230684
H        0.0630099295   -0.0202775045    0.0115858482
H        2.4884904625   -0.3985592673    3.5872826007
H       -1.4801511618   -1.7193641429    0.9981899253
H       -0.3702931767   -1.5658410603    6.6549573616
14   
torsion grid (0,)
C        0.2411550932   -0.4314124142    0.9753399951
C        1.6675859891   -0.6240778355    2.9148342481
C       -0.6400008571   -1.3229512871    1.5959528364
C        1.4121843923   -0.0859009609    1.6530827975
C        0.6940007562   -1.4790483406    3.4227033552
N       -0.4215223515   -1.8540750603    2.8062317013
O        2.3372216960   -1.7540581597    5.4886932769
O       -0.2095732364   -1.3247071289    5.7945385220
S        1.0030336695   -2.2616231063    5.0547691971
Cl       2.5553699052    1.0111462366    0.9210706020
H        0.0225979889   -0.0295921294   -0.0083506016
H        2.5595652062   -0.3994937096    3.4911541155
H       -1.5560555683   -1.6237061967    1.0918400567
H       -0.5086264338   -1.8101821496    6.5862662437
14   
torsion grid (15,)
C        0.2693924496   -0.4498016557    0.9556514490
C        1.7283783750   -0.6386451263    2.8711299468
C       -0.6419192409   -1.2661302703    1.6339700861
C        1.4731642287   -0.1423400705    1.5919849017
C        0.7202185024   -1.4108257668    3.4430578973
N       -0.4221663019   -1.7584340901    2.8599129192
O        2.2812246505   -1.4746561327    5.5867247310
O       -0.3093910235   -1.4881723717    5.7788351354
S        1.0707757821   -2.1808997687    5.0744528643
Cl       2.6592904984    0.8531786634    0.7870653900
H        0.0490751484   -0.0789068098   -0.0397109872
H        2.6401306320   -0.4245764236    3.4194956629
H       -1.5839326660   -1.5394224067    1.1629902769
H       -0.5777671670   -2.0653812885    6.5178038733
14   
torsion grid (30,)
C        0.2634425080   -0.4464010042    0.9567522487
C        1.7581476253   -0.6434732809    2.8427805848
C       -0.6676265164   -1.1934700693    1.6854327763
C        1.4967684163   -0.1793303249    1.5531475860
C        0.7274325425   -1.3433331771    3.4701503999
N       -0.4407411364   -1.6572032253    2.9213436305
O        2.1668449437   -1.2043383109    5.6936476165
O       -0.3804726623   -1.6953186956    5.7534902828
S        1.1287066053   -2.0972880655    5.1006855756
Cl       2.7115270149    0.7256317207    0.6864873182
H        0.0358643293   -0.0982711344   -0.0451697359
H        2.6903189576   -0.4400662291    3.3594884595
H       -1.6340009954   -1.4353276083    1.2476689708
H       -0.5705399240   -2.3409584439    6.4590845602
14   
torsion grid (45,)
C        0.2884254034   -0.4581349426    0.9294124087
C        1.8012672864   -0.7113705377    2.7929956616
C       -0.6698745776   -1.1360789487    1.6880891718
C        1.5458227468   -0.2541518708    1.5005506945
C        0.7445513988   -1.3439599346    3.4526301786
N       -0.4476714899   -1.5948842742    2.9274810807
O        1.9774328617   -1.0294943610    5.7865733308
O       -0.4265170593   -2.0006432356    5.6413360362
S        1.1692343881   -2.0752184018    5.0935416568
Cl       2.7958100430    0.5653800070    0.5996780299
H        0.0632559493   -0.1134353582   -0.0742547653
H        2.7535384519   -0.5420376351    3.2847584771
H       -1.6579967212   -1.3257560322    1.2736405491
H       -0.5095917747   -2.6485424806    6.3655049205
14   
torsion grid (60,)
C        0.2819214715   -0.4454263497    0.9401764817
C        1.8265960308   -0.7245378532    2.7721123921
C       -0.6870273700   -1.0554944355    1.7402484708
C        1.5618455501   -0.2870154742    1.4756673268
C        0.7615231491   -1.2983741384    3.4728636397
N       -0.4546995718   -1.4927797483    2.9864742589
O        1.6959618099   -0.7212401531    5.9029565765
O       -0.4042198495   -2.2224736661    5.5688635132
S        1.2042819429   -1.9194534865    5.1610515083
Cl       2.8253210283    0.4531585654    0.5260299292
H        0.0475900178   -0.1139896978   -0.0658639410
H        2.8022163416   -0.5899890333    3.2282442349
H       -1.6947427761   -1.2049974064    1.3576749379
H       -0.3872178196   -2.7695044374    6.3768009595
14   
torsion grid (75,)
C        0.2268007328   -0.3176292172    0.9517250705
C        1.8227864734   -0.6682846699    2.7246101859
C       -0.7341523257   -0.9041310521    1.7796345061
C        1.5284632895   -0.2046317637    1.4433118076
C        0.7675197853   -1.2256357039    3.4514768316
N       -0.4742681958   -1.3603740750    3.0128719624
O        1.3458111076   -0.5107202716    5.9619376047
O       -0.2738082217   -2.4864028002    5.4372858382
S        1.2271493730   -1.7663380503    5.1642750918
Cl       2.7810669172    0.5108894495    0.4608962052
H       -0.0320662022    0.0342253563   -0.0412771454
H        2.8216807918   -0.5806380275    3.1412251437
H       -1.7594302451   -1.0135905273    1.4316196530
H       -0.1955391710   -2.9718489861    6.2806497619
14   
torsion grid (90,)
C        0.2373342115   -0.3236926197    0.9537649217
C        1.8439545461   -0.7017638864    2.7109921067
C       -0.7386717637   -0.8294084729    1.8187911379
C        1.5508956671   -0.2628831836    1.4194494397
C        0.7769345569   -1.1854732651    3.4700414688
N       -0.4819335287   -1.2550078808    3.0621427000
O        0.9809193380   -0.3760726596    6.0119601020
O       -0.1215278219   -2.6561961029    5.3713614916
S        1.2028384798   -1.6183503412    5.2176375122
Cl       2.8211718874    0.3571762495    0.3957538026
H       -0.0216806655    0.0102349646   -0.0453779936
H        2.8553653872   -0.6636088601    3.1048137457
H       -1.7749216274   -0.8916695532    1.4921945154
H       -0.0280519432   -3.0976325146    6.2370666105
14   
torsion grid (105,)
C        0.2255307022   -0.4578635382    0.9703509071
C        1.6777522188   -0.4923630453    2.8948843413
C       -0.3533039635   -1.6350024103    1.4599163195
C        1.2578327610    0.1166845910    1.7104788924
C        1.0217262248   -1.6662816784    3.2645357107
N        0.0290174376   -2.2347311090    2.5928632271
O        0.3579223735   -2.0489312011    5.8342215157
O        1.3648256672   -3.9512553800    4.3542383995
S        1.4868992560   -2.3565101736    4.9120972690
Cl       2.0217146064    1.5880517656    1.1650423309
H       -0.1232685715   -0.0075817706    0.0470438276
H        2.4782521377   -0.0708961464    3.4957624182
H       -1.1646176927   -2.1099388722    0.9116410663
H        1.6377234713   -4.5293297715    5.0921570541
14   
torsion grid (120,)
C        0.2304379265   -0.4630521842    0.9691230149
C        1.6733358805   -0.5046736017    2.9008634882
C       -0.4142474560   -1.5878146836    1.4994888422
C        1.2901779560    0.0819182885    1.6921626721
C        0.9541211532   -1.6270765581    3.3082708789
N       -0.0681609775   -2.1644474958    2.6552255443
O        0.1396944702   -2.2590395362    5.7913886211
O        1.5630502908   -3.8779143132    4.3179189619
S        1.3755403892   -2.3180116319    4.9650716914
Cl       2.1334061141    1.4895720825    1.0974120176
H       -0.0912865085   -0.0287744659    0.0284692100
H        2.4931194508   -0.1054958532    3.4906606048
H       -1.2492952011   -2.0371122821    0.9654355334
H        1.8520617738   -4.4571241444    5.0489275358
14   
torsion grid (135,)
C        0.2502429287   -0.4695497448    0.9594796704
C        1.6696807053   -0.5343145001    2.9083972042
C       -0.4708891929   -1.5313445536    1.5197671511
C        1.3363671465    0.0317341541    1.6755322887
C        0.8749182264   -1.5931769633    3.3441498717
N       -0.1723269555   -2.0879309054    2.6986716812
O       -0.0379871289   -2.4753882941    5.7238919674
O        1.7333023743   -3.7718464512    4.3085693479
S        1.2518153706   -2.2942995716    5.0087449459
Cl       2.2735717955    1.3607932998    1.0416816879
H       -0.0343048811   -0.0482286659    0.0011111981
H        2.5070665353   -0.1678041626    3.4945981754
H       -1.3276920588   -1.9450845816    0.9914947170
H        2.0461465436   -4.3457297009    5.0342225267
14   
torsion grid (150,)
C        0.2553315020   -0.4624035982    0.9496757524
C        1.6634730174   -0.5691538819    2.9050202228
C       -0.5338639692   -1.4598845795    1.5332918569
C        1.3710003291   -0.0147391411    1.6576916823
C        0.8004443340   -1.5638348490    3.3634585374
N       -0.2739204814   -2.0054627594    2.7276982207
O       -0.1529605249   -2.6975273937    5.6228925435
O        1.9125011351   -3.6218612675    4.3151219852
S        1.1421862094   -2.2762166920    5.0342653583
Cl       2.3938803031    1.2338668438    0.9929353332
H        0.0008628658   -0.0471915156   -0.0197605619
H        2.5220126746   -0.2441473099    3.4850093362
H       -1.4146096908   -1.8307956817    1.0127509559
H        2.3006351034   -4.1522297672    5.0375732344
14   
torsion grid (165,)
C        0.2480093616   -0.4422785814    0.9534582476
C        1.6523602589   -0.6336018505    2.9058718700
C       -0.6040938762   -1.3810414826    1.5426193620
C        1.3940142090   -0.0675291347    1.6577291428
C        0.7260198669   -1.5681709059    3.3702303758
N       -0.3769536497   -1.9369993147    2.7406394663
O       -0.2428102537   -2.9565471021    5.4757335471
O        2.0778730458   -3.4544726519    4.3665188192
S        1.0141709130   -2.2978364862    5.0479203740
Cl       2.4963386315    1.1059785341    0.9826920076
H        0.0198290850   -0.0146674217   -0.0171308580
H        2.5351785137   -0.3688662027    3.4797697409
H       -1.5098306371   -1.6942134613    1.0271371570
H        2.5048235489   -3.9248880619    5.1082873385
14   
torsion grid (180,)
C        0.2306048872   -0.4095180776    0.9632985783
C        1.6431192109   -0.7158554839    2.8961072540
C       -0.6744733604   -1.2955827974    1.5526267645
C        1.4073457810   -0.1197167711    1.6585350426
C        0.6635035115   -1.5960247675    3.3606239256
N       -0.4707478391   -1.8786379583    2.7429614271
O       -0.2789051032   -3.2310025235    5.2876860278
O        2.2169479871   -3.2593122501    4.4594823750
S        0.8844886185   -2.3476133871    5.0400512708
Cl       2.5777903445    0.9843774158    0.9807751002
H        0.0210547388    0.0430181172   -0.0001774278
H        2.5521915769   -0.5247237029    3.4571207235
H       -1.6057581091   -1.5416531691    1.0464887337
H        2.6451361510   -3.6655046129    5.2373699536
