16   
torsion grid (-165,)
C       -0.5398745239   -0.8826215885    1.8559831630
C       -0.4367546312   -0.8538557181    0.4906512247
C       -0.5836387206   -2.1003753284    2.5993005798
C       -0.3997801212   -2.0845644787   -0.2748718472
C       -0.4707948498   -3.2732614939    1.8909625119
C       -0.6355572572   -4.6997906401    3.7851232741
N       -0.2879518595   -3.2404743194    0.5384630434
O       -0.4897818827   -2.2097544900   -1.4969542074
O       -0.4877288197   -4.5369714906    2.3695996506
H       -0.6119345932    0.0541647797    2.4039510124
H       -0.4488939970    0.0730217884   -0.0713912749
H       -0.7030455958   -2.0965230495    3.6737504416
H       -0.6225581791   -5.7753237418    3.9594989900
H       -1.5876079026   -4.2798275282    4.1260803513
H        0.1956405866   -4.2265580815    4.3181805643
H       -0.2897817392   -4.1254679543    0.0385938049
16   
torsion grid (-150,)
C       -0.5191627180   -0.8771373316    1.8626459129
C       -0.4125056178   -0.8454080148    0.4974076266
C       -0.5819829211   -2.0964773732    2.6049753913
C       -0.4254007415   -2.0844499148   -0.2577925030
C       -0.4362943574   -3.2664658802    1.8983734253
C       -0.6561911250   -4.7009560879    3.7797297051
N       -0.1737934439   -3.2229870855    0.5556798280
O       -0.7035997159   -2.2356090277   -1.4467116089
O       -0.4611766040   -4.5319165914    2.3704849392
H       -0.5995595398    0.0590575192    2.4103776259
H       -0.4529348489    0.0797459720   -0.0663761258
H       -0.7419776047   -2.0936386876    3.6742096294
H       -0.6451760308   -5.7770811763    3.9505658749
H       -1.6207886738   -4.2858288195    4.0898803828
H        0.1546978656   -4.2262264434    4.3419692398
H       -0.2204582965   -4.1066642468    0.0536513983
16   
torsion grid (-135,)
C       -0.4887946644   -0.8694028270    1.8570270035
C       -0.3734818154   -0.8338046292    0.4920331065
C       -0.5768584798   -2.0924678115    2.5961111951
C       -0.4382766218   -2.0843293830   -0.2459745782
C       -0.4006455393   -3.2600810502    1.8930306029
C       -0.6692138220   -4.7054140268    3.7568724901
N       -0.0627008674   -3.1981376930    0.5632562063
O       -0.9056191240   -2.2690927173   -1.3666112433
O       -0.4330619470   -4.5281084296    2.3547050044
H       -0.5768391966    0.0657187159    2.4054047579
H       -0.4358570979    0.0905907419   -0.0711353485
H       -0.7788841317   -2.0896435342    3.6582867367
H       -0.6560758250   -5.7822083628    3.9232097922
H       -1.6454997979   -4.2980360515    4.0393786695
H        0.1211548707   -4.2271225154    4.3446965400
H       -0.1398206330   -4.0817397510    0.0621932334
16   
torsion grid (-120,)
C       -0.4595397676   -0.8660190121    1.8405936720
C       -0.3321640069   -0.8275253125    0.4761570840
C       -0.5763883555   -2.0906291754    2.5805788652
C       -0.4502593237   -2.0951316566   -0.2338029532
C       -0.3698337678   -3.2577147849    1.8855207281
C       -0.6837749172   -4.7106321383    3.7328394324
N        0.0378131856   -3.1769000792    0.5709507820
O       -1.1011200372   -2.3193569740   -1.2477446488
O       -0.4067917804   -4.5273849413    2.3386428598
H       -0.5531063878    0.0695497904    2.3872971957
H       -0.4084894616    0.0956426236   -0.0874460955
H       -0.8210090742   -2.0837489638    3.6338713776
H       -0.6660861383   -5.7876716058    3.8971350525
H       -1.6718595898   -4.3125149272    3.9858597346
H        0.0839436881   -4.2258554995    4.3448121394
H       -0.0499353243   -4.0636781107    0.0748643953
16   
torsion grid (-105,)
C       -0.4353513426   -0.8755648410    1.8181776700
C       -0.2875019139   -0.8401140208    0.4551698581
C       -0.5892897792   -2.1001027957    2.5626210920
C       -0.4688447927   -2.1292166811   -0.2170778666
C       -0.3564265082   -3.2714492015    1.8846221003
C       -0.6968653385   -4.7228482995    3.7238504613
N        0.1112987772   -3.1735070767    0.5857272080
O       -1.2909044617   -2.3657166955   -1.0902655364
O       -0.3953784154   -4.5409638216    2.3342506100
H       -0.5284727948    0.0625223156    2.3607656798
H       -0.3618086388    0.0822977007   -0.1097190564
H       -0.8797701619   -2.0819095306    3.6042131373
H       -0.6654035108   -5.7987008750    3.8938579263
H       -1.6960992084   -4.3392532708    3.9544912545
H        0.0504133273   -4.2218102450    4.3478210248
H        0.0456234522   -4.0720651229    0.1054008866
16   
torsion grid (-90,)
C       -0.4170620718   -0.8640079971    1.8004270613
C       -0.2604006154   -0.8253279474    0.4393746038
C       -0.5971708423   -2.0932651778    2.5423058817
C       -0.4938169787   -2.1368408962   -0.1927529118
C       -0.3325003748   -3.2626972971    1.8733341461
C       -0.7094685884   -4.7232737686    3.6953715697
N        0.1988549976   -3.1414928189    0.5925219515
O       -1.4599650505   -2.4134222853   -0.8824637773
O       -0.3708179754   -4.5338469336    2.3150389419
H       -0.5041664441    0.0743693588    2.3434694360
H       -0.3242780266    0.0950948135   -0.1298283985
H       -0.9257271045   -2.0729055123    3.5725620641
H       -0.6737891328   -5.7993427606    3.8633517245
H       -1.7178770316   -4.3484184478    3.8986418086
H        0.0157761912   -4.2170512145    4.3408331318
H        0.1386112893   -4.0413613082    0.1113605625
16   
torsion grid (-75,)
C       -0.4085277571   -0.8546771289    1.7843484409
C       -0.2463380587   -0.8125784031    0.4254986510
C       -0.6160035712   -2.0912142357    2.5225182487
C       -0.5362239019   -2.1482265559   -0.1663317589
C       -0.3251203881   -3.2597020769    1.8644936526
C       -0.7249689941   -4.7300128670    3.6693398669
N        0.2564722587   -3.1081589177    0.6002038159
O       -1.6155858682   -2.4258073787   -0.6507981435
O       -0.3603424578   -4.5333592393    2.2964568136
H       -0.4690008271    0.0822573510    2.3336615470
H       -0.2677718319    0.1080236522   -0.1457944763
H       -0.9834888940   -2.0678681470    3.5397074794
H       -0.6771840349   -5.8056484316    3.8373758555
H       -1.7427681407   -4.3696446488    3.8510303778
H       -0.0212242678   -4.2129445369    4.3299081727
H        0.2420009730   -4.0137325080    0.1243461810
16   
torsion grid (75,)
C       -0.7303359895   -0.8620116009    1.7608778605
C       -0.6999320963   -0.8231706847    0.3927837770
C       -0.5696610854   -2.0899244331    2.5249813074
C       -0.2644247478   -2.1413138862   -0.1473051962
C       -0.7074578739   -3.2688157213    1.8365401694
C       -0.4981038539   -4.7250393221    3.6847333547
N       -1.1099553004   -3.1410134437    0.5017089170
O        0.8852420618   -2.3639167900   -0.4726647358
O       -0.6726485958   -4.5410001372    2.2733359690
H       -0.7947681960    0.0746324630    2.3102447253
H       -0.6453781082    0.0994550946   -0.1729242741
H       -0.3510142390   -2.0524699509    3.5837644166
H       -0.5190571649   -5.8022805737    3.8479670103
H       -1.3119176089   -4.2435563080    4.2368609635
H        0.4656057088   -4.3182287419    4.0081236379
H       -0.9827421486   -4.0431312923    0.0360237455
16   
torsion grid (90,)
C       -0.7254957585   -0.8731625575    1.7767802504
C       -0.6896968832   -0.8377752312    0.4069863277
C       -0.5931358003   -2.0939270810    2.5422485634
C       -0.3052310167   -2.1343157009   -0.1803730387
C       -0.7030181291   -3.2725594897    1.8465266846
C       -0.5178441925   -4.7185013210    3.7091344310
N       -1.0525771929   -3.1735259401    0.5029490509
O        0.7612013812   -2.3615318455   -0.7252105853
O       -0.6661411977   -4.5416632878    2.2939913986
H       -0.7602202428    0.0669211073    2.3227200748
H       -0.5877782745    0.0865094967   -0.1503164618
H       -0.4159950250   -2.0606025121    3.6087164617
H       -0.5237944668   -5.7955580184    3.8744280894
H       -1.3514809129   -4.2508376345    4.2431770619
H        0.4317499003   -4.2948859120    4.0519700027
H       -0.8826177326   -4.0680888840    0.0384015152
16   
torsion grid (105,)
C       -0.7088769225   -0.8832791120    1.7970958802
C       -0.6636152182   -0.8509991224    0.4267530383
C       -0.6031219494   -2.1011485180    2.5606290147
C       -0.3266740122   -2.1278319916   -0.2078669100
C       -0.6806344994   -3.2803897750    1.8610950799
C       -0.5346073263   -4.7189871323    3.7357347206
N       -0.9636665623   -3.2013749919    0.5086291013
O        0.6213640806   -2.3217447444   -0.9547207491
O       -0.6445714367   -4.5478427097    2.3167295960
H       -0.7390127395    0.0566044339    2.3437137619
H       -0.5544792858    0.0756484565   -0.1254056897
H       -0.4645001223   -2.0720125225    3.6328035225
H       -0.5377953019   -5.7955954734    3.9038252598
H       -1.3861087772   -4.2565540231    4.2455438393
H        0.4021329392   -4.2881355617    4.1040998114
H       -0.7870440722   -4.0942355566    0.0459759212
16   
torsion grid (120,)
C       -0.6893122764   -0.8711994834    1.8243226059
C       -0.6235894364   -0.8354188274    0.4554276694
C       -0.6193523171   -2.0918977405    2.5766731140
C       -0.3455184999   -2.0933503122   -0.2267519923
C       -0.6684225992   -3.2654705005    1.8636729384
C       -0.5488196391   -4.7073004390    3.7422574272
N       -0.8892356769   -3.2005826549    0.5042900958
O        0.4527489131   -2.2823145478   -1.1371846733
O       -0.6340448297   -4.5332778433    2.3222003624
H       -0.7194935314    0.0659232642    2.3755654793
H       -0.5129730529    0.0921285028   -0.0951352961
H       -0.5268448046   -2.0769553027    3.6539405401
H       -0.5372797726   -5.7844315925    3.9065278770
H       -1.4180874740   -4.2623327217    4.2375238706
H        0.3729540572   -4.2624212579    4.1311615915
H       -0.6887874581   -4.0803300624    0.0287564659
16   
torsion grid (135,)
C       -0.6626402409   -0.8736194039    1.8446768369
C       -0.5851953807   -0.8389275502    0.4769897283
C       -0.6207705951   -2.0935315874    2.5929768398
C       -0.3559602682   -2.0822575980   -0.2401228051
C       -0.6387962090   -3.2658732373    1.8760518247
C       -0.5668625890   -4.7029276950    3.7640991761
N       -0.7877564085   -3.2157950742    0.5116278425
O        0.2736873990   -2.2402149696   -1.2826990159
O       -0.6104985161   -4.5324266877    2.3420216413
H       -0.6986072663    0.0627622770    2.3967805301
H       -0.4887110695    0.0893559470   -0.0748585081
H       -0.5714776352   -2.0845922958    3.6730368197
H       -0.5511288602   -5.7796614792    3.9306029599
H       -1.4547493476   -4.2656044226    4.2324874431
H        0.3386728306   -4.2496275181    4.1805434618
H       -0.5976542272   -4.0928585369    0.0295632778
16   
torsion grid (150,)
C       -0.6329917110   -0.8798882450    1.8545461643
C       -0.5467511628   -0.8486919166    0.4878553722
C       -0.6167436351   -2.0973264818    2.6024585471
C       -0.3669644721   -2.0830251942   -0.2536431262
C       -0.6039792326   -3.2705725267    1.8864173627
C       -0.5831878893   -4.6991783832    3.7849106436
N       -0.6756060827   -3.2352479181    0.5199440092
O        0.0837104833   -2.2163833327   -1.3906912888
O       -0.5847543171   -4.5349438359    2.3616745503
H       -0.6764700820    0.0572052849    2.4049111499
H       -0.4718888601    0.0792716616   -0.0677297715
H       -0.6100381003   -2.0904237025    3.6835571674
H       -0.5660228641   -5.7751523922    3.9561904907
H       -1.4875685061   -4.2663123401    4.2250753907
H        0.3065029631   -4.2387896960    4.2270251406
H       -0.5154583200   -4.1138659544    0.0326249428
16   
torsion grid (165,)
C       -0.6113004650   -0.8843069075    1.8509316152
C       -0.5214069318   -0.8559884430    0.4846564594
C       -0.6141043044   -2.1011049572    2.5970883877
C       -0.3898489912   -2.0843313776   -0.2742303517
C       -0.5684768062   -3.2756505147    1.8839958094
C       -0.6044161602   -4.6990425980    3.7873265421
N       -0.5594196800   -3.2470747353    0.5191269074
O       -0.1218194331   -2.2007650505   -1.4708360236
O       -0.5581291997   -4.5386959043    2.3645766280
H       -0.6630951931    0.0529833186    2.4003299982
H       -0.4748695688    0.0723153845   -0.0732169702
H       -0.6482992799   -2.0951880061    3.6776008011
H       -0.5897308727   -5.7745349904    3.9618189067
H       -1.5246819888   -4.2685714524    4.1957308409
H        0.2682650956   -4.2345334397    4.2581550633
H       -0.4438974369   -4.1292070394    0.0276158662
16   
torsion grid (180,)
C       -0.5775029258   -0.8816559891    1.8791329294
C       -0.4811030637   -0.8496721340    0.5135591386
C       -0.6005932889   -2.0993647732    2.6220339667
C       -0.3963758440   -2.0745432349   -0.2565906509
C       -0.5212078069   -3.2711384541    1.9070660794
C       -0.6212950105   -4.6984701148    3.8059412956
N       -0.4251214387   -3.2411605832    0.5468808764
O       -0.3065515606   -2.1851873870   -1.4806297193
O       -0.5244447540   -4.5352183102    2.3860780041
H       -0.6394322865    0.0543667293    2.4295637812
H       -0.4640011101    0.0793512910   -0.0447952446
H       -0.6780426909   -2.0976605514    3.7003045723
H       -0.6080316054   -5.7742336277    3.9789392638
H       -1.5577407762   -4.2733636421    4.1819317176
H        0.2315990537   -4.2308550046    4.3088646215
H       -0.3673704558   -4.1239442308    0.0471348923
