
  -OEChem-05262117483D

 37 39  0     0  0  0  0  0  0999 V2000
   -0.3580   -1.6655    1.3039 C   0  0  0  0  0  0  0  0  0  0  0  0
    0.3389   -0.8838    2.2337 C   0  0  0  0  0  0  0  0  0  0  0  0
    0.2015   -2.8358    0.7755 C   0  0  0  0  0  0  0  0  0  0  0  0
   -2.4998   -7.6247   -4.0753 C   0  0  0  0  0  0  0  0  0  0  0  0
   -2.6472   -6.4569   -3.3254 C   0  0  0  0  0  0  0  0  0  0  0  0
    1.6216   -1.2575    2.6597 C   0  0  0  0  0  0  0  0  0  0  0  0
   -0.3278   -7.9348   -3.1283 C   0  0  0  0  0  0  0  0  0  0  0  0
    1.4792   -3.2117    1.1973 C   0  0  0  0  0  0  0  0  0  0  0  0
   -0.4584   -6.7560   -2.3613 C   0  0  0  0  0  0  0  0  0  0  0  0
   -1.3271   -8.3885   -3.9887 C   0  0  0  0  0  0  0  0  0  0  0  0
   -1.6492   -5.9930   -2.4599 C   0  0  0  0  0  0  0  0  0  0  0  0
    2.1564   -2.4173    2.1254 C   0  0  0  0  0  0  0  0  0  0  0  0
    2.3362   -4.3765    0.8330 C   0  0  0  0  0  0  0  0  0  0  0  0
    0.6889   -6.4352   -1.5148 C   0  0  0  0  0  0  0  0  0  0  0  0
   -1.1564   -9.6476   -4.8064 C   0  0  0  0  0  0  0  0  0  0  0  0
   -1.8779   -4.7247   -1.6808 C   0  0  0  0  0  0  0  0  0  0  0  0
    3.5115   -4.4730    1.3975 N   0  0  0  0  0  0  0  0  0  0  0  0
    0.8051   -5.4158   -0.7292 N   0  0  0  0  0  0  0  0  0  0  0  0
    1.9878   -5.3540   -0.0474 N   0  0  0  0  0  0  0  0  0  0  0  0
    4.8358   -2.3203    1.9445 O   0  0  0  0  0  0  0  0  0  0  0  0
    3.8190   -3.6592    3.8328 O   0  0  0  0  0  0  0  0  0  0  0  0
    3.7609   -3.1715    2.4548 S   0  0  0  0  0  0  0  0  0  0  0  0
   -1.3510   -1.3605    0.9853 H   0  0  0  0  0  0  0  0  0  0  0  0
   -0.1166    0.0199    2.6291 H   0  0  0  0  0  0  0  0  0  0  0  0
   -0.3357   -3.4381    0.0589 H   0  0  0  0  0  0  0  0  0  0  0  0
   -3.3050   -7.9447   -4.7335 H   0  0  0  0  0  0  0  0  0  0  0  0
   -3.5685   -5.8859   -3.4132 H   0  0  0  0  0  0  0  0  0  0  0  0
    2.1755   -0.6628    3.3799 H   0  0  0  0  0  0  0  0  0  0  0  0
    0.5912   -8.5119   -3.0424 H   0  0  0  0  0  0  0  0  0  0  0  0
    1.5160   -7.1560   -1.5800 H   0  0  0  0  0  0  0  0  0  0  0  0
   -1.1075   -9.4178   -5.8768 H   0  0  0  0  0  0  0  0  0  0  0  0
   -0.2395  -10.1791   -4.5375 H   0  0  0  0  0  0  0  0  0  0  0  0
   -1.9980  -10.3325   -4.6586 H   0  0  0  0  0  0  0  0  0  0  0  0
   -1.8229   -4.9077   -0.6031 H   0  0  0  0  0  0  0  0  0  0  0  0
   -1.1177   -3.9736   -1.9173 H   0  0  0  0  0  0  0  0  0  0  0  0
   -2.8610   -4.3059   -1.9108 H   0  0  0  0  0  0  0  0  0  0  0  0
    2.6939   -6.0808   -0.1824 H   0  0  0  0  0  0  0  0  0  0  0  0
  1  2  1  0  0  0  0
  1  3  2  0  0  0  0
  1 23  1  0  0  0  0
  2  6  2  0  0  0  0
  2 24  1  0  0  0  0
  3  8  1  0  0  0  0
  3 25  1  0  0  0  0
  4  5  2  0  0  0  0
  4 10  1  0  0  0  0
  4 26  1  0  0  0  0
  5 11  1  0  0  0  0
  5 27  1  0  0  0  0
  6 12  1  0  0  0  0
  6 28  1  0  0  0  0
  7  9  1  0  0  0  0
  7 10  2  0  0  0  0
  7 29  1  0  0  0  0
  8 12  2  0  0  0  0
  8 13  1  0  0  0  0
  9 11  2  0  0  0  0
  9 14  1  0  0  0  0
 10 15  1  0  0  0  0
 11 16  1  0  0  0  0
 12 22  1  0  0  0  0
 13 17  2  0  0  0  0
 13 19  1  0  0  0  0
 14 18  2  0  0  0  0
 14 30  1  0  0  0  0
 15 31  1  0  0  0  0
 15 32  1  0  0  0  0
 15 33  1  0  0  0  0
 16 34  1  0  0  0  0
 16 35  1  0  0  0  0
 16 36  1  0  0  0  0
 17 22  1  0  0  0  0
 18 19  1  0  0  0  0
 19 37  1  0  0  0  0
 20 22  2  0  0  0  0
 21 22  2  0  0  0  0
M  END
$$$$
