28
0 1 C11H12N4S
C                     3.172046916877    -7.413219265626     3.001922518601
C                     4.467139638002    -7.230142329058     2.489224584785
C                     2.137693063338    -6.534015614040     2.676449011242
C                     4.749524890982    -6.156740028760     1.637240755853
C                     2.399156221064    -5.451811345151     1.823798075060
C                     3.712804144199    -5.281457236340     1.315427223296
C                     2.012160624111    -3.630657145272     0.637186846167
C                     0.192991685455    -0.374632398030    -1.281124077921
C                     0.658916328258    -0.821085430898    -2.462095034471
C                    -0.422277683125    -1.218287961935    -0.224754245749
C                     0.636254076081    -2.238057157079    -2.959646429530
N                     1.464464539447    -4.506348520708     1.420250037211
N                     0.096933580762    -2.250312948904     0.355927798711
N                    -1.649868321128    -0.755964380634     0.261299663135
N                     1.388422054738    -2.583627925881     0.017025604698
S                     3.757755202903    -3.854289418915     0.282800762926
H                     2.972327679832    -8.252723577191     3.662679939043
H                     5.259025948849    -7.925149543229     2.754498802698
H                     1.133851260844    -6.668042204765     3.068662491288
H                     5.750979956086    -6.013875855818     1.240989600772
H                     0.213325870119     0.693684197059    -1.070839272812
H                     1.076385711452    -0.080211109937    -3.143806803518
H                     1.654471310885    -2.639407262675    -3.040523159729
H                     0.204727931094    -2.273105664430    -3.966680451213
H                     0.066340581480    -2.899808816832    -2.305439863115
H                    -2.302266138669    -0.472984507098    -0.463249387415
H                    -2.066439621802    -1.406327501217     0.922585392938
H                     1.963935487795    -1.896369866365    -0.463782628706
