21
0 1 C8H6N4O2S
C                     1.865965735720    -1.070156332580    -0.098002619271
C                     2.908557222105    -1.661508986779     0.622988090253
C                     0.786538572959    -0.489194829635     0.575677853708
C                     2.875631736680    -1.674710984500     2.019794000083
C                     0.745182072169    -0.497731500522     1.972294767898
C                     1.790245424680    -1.094916677145     2.684885043207
C                    -0.095026579556    -4.425843452830     4.681981987129
C                     0.912070747597    -2.599884710177     4.771368622432
N                     0.449874851465    -3.471833061741     3.887199494699
N                    -0.018879143131    -4.235462240890     5.988414176821
N                     0.635953656887    -3.048719892468     6.033451390866
N                    -0.742553416125    -5.619551731300     4.135624726100
O                    -0.770815310418    -5.720311898308     2.908968964309
O                    -1.206016188959    -6.425396339937     4.944536895650
S                     1.756988198063    -1.082718369840     4.479305485576
H                     1.893511028818    -1.064136751305    -1.184309069896
H                     3.745566214409    -2.116198578263     0.100400707512
H                    -0.025456545979    -0.032890035843     0.016326513977
H                     3.676485775587    -2.138078240846     2.587723752200
H                    -0.092167154623    -0.056061594626     2.503702375842
H                     0.849255147812    -2.626662823322     6.930190112510
