
  -OEChem-05262117483D

 42 45  0     0  0  0  0  0  0999 V2000
   -0.8971   -0.1700   -6.4478 C   0  0  0  0  0  0  0  0  0  0  0  0
   -0.6419    1.2023   -6.5424 C   0  0  0  0  0  0  0  0  0  0  0  0
   -0.2306   -0.9333   -5.4824 C   0  0  0  0  0  0  0  0  0  0  0  0
    2.2810   -2.7197   -0.5972 C   0  0  0  0  0  0  0  0  0  0  0  0
    0.2747    1.8146   -5.6853 C   0  0  0  0  0  0  0  0  0  0  0  0
    0.6857   -0.3375   -4.6148 C   0  0  0  0  0  0  0  0  0  0  0  0
    0.9974   -2.2056   -0.4157 C   0  0  0  0  0  0  0  0  0  0  0  0
    1.9524    0.0307   -0.3392 C   0  0  0  0  0  0  0  0  0  0  0  0
    3.4105   -1.8944   -0.6837 C   0  0  0  0  0  0  0  0  0  0  0  0
    0.9330    1.0355   -4.7285 C   0  0  0  0  0  0  0  0  0  0  0  0
    3.2265   -0.5029   -0.5893 C   0  0  0  0  0  0  0  0  0  0  0  0
    0.8668   -0.8257   -0.2798 C   0  0  0  0  0  0  0  0  0  0  0  0
    3.3350    1.8612   -2.3587 C   0  0  0  0  0  0  0  0  0  0  0  0
    2.9321    3.1506   -2.8009 C   0  0  0  0  0  0  0  0  0  0  0  0
    4.4132    1.5431   -1.3886 C   0  0  0  0  0  0  0  0  0  0  0  0
    4.7915   -2.5133   -0.8125 C   0  0  0  0  0  0  0  0  0  0  0  0
    5.9112   -1.4807   -1.0063 C   0  0  0  0  0  0  0  0  0  0  0  0
    5.6195   -0.2172   -0.1940 C   0  0  0  0  0  0  0  0  0  0  0  0
    3.4060    4.5007   -2.3714 C   0  0  0  0  0  0  0  0  0  0  0  0
    2.6509    0.9376   -3.0463 N   0  0  0  0  0  0  0  0  0  0  0  0
    1.9911    2.9850   -3.7344 N   0  0  0  0  0  0  0  0  0  0  0  0
    1.8637    1.6478   -3.8466 N   0  0  0  0  0  0  0  0  0  0  0  0
    4.3559    0.3544   -0.6814 N   0  0  0  0  0  0  0  0  0  0  0  0
    5.3605    2.3250   -1.2708 O   0  0  0  0  0  0  0  0  0  0  0  0
   -0.3675   -0.2986   -0.0652 F   0  0  0  0  0  0  0  0  0  0  0  0
   -1.6115   -0.6400   -7.1180 H   0  0  0  0  0  0  0  0  0  0  0  0
   -1.1562    1.8025   -7.2879 H   0  0  0  0  0  0  0  0  0  0  0  0
   -0.4286   -1.9983   -5.3974 H   0  0  0  0  0  0  0  0  0  0  0  0
    2.4128   -3.7965   -0.6788 H   0  0  0  0  0  0  0  0  0  0  0  0
    0.4823    2.8767   -5.7451 H   0  0  0  0  0  0  0  0  0  0  0  0
    1.2016   -0.9138   -3.8552 H   0  0  0  0  0  0  0  0  0  0  0  0
    0.1225   -2.8452   -0.3581 H   0  0  0  0  0  0  0  0  0  0  0  0
    1.8029    1.0967   -0.2109 H   0  0  0  0  0  0  0  0  0  0  0  0
    4.9870   -3.0892    0.1013 H   0  0  0  0  0  0  0  0  0  0  0  0
    4.7990   -3.2372   -1.6347 H   0  0  0  0  0  0  0  0  0  0  0  0
    6.8752   -1.9070   -0.7097 H   0  0  0  0  0  0  0  0  0  0  0  0
    5.9913   -1.1946   -2.0606 H   0  0  0  0  0  0  0  0  0  0  0  0
    5.5193   -0.4462    0.8733 H   0  0  0  0  0  0  0  0  0  0  0  0
    6.3934    0.5389   -0.3137 H   0  0  0  0  0  0  0  0  0  0  0  0
    4.4539    4.6416   -2.6492 H   0  0  0  0  0  0  0  0  0  0  0  0
    2.7962    5.2763   -2.8394 H   0  0  0  0  0  0  0  0  0  0  0  0
    3.3509    4.6061   -1.2841 H   0  0  0  0  0  0  0  0  0  0  0  0
  1  2  1  0  0  0  0
  1  3  2  0  0  0  0
  1 26  1  0  0  0  0
  2  5  2  0  0  0  0
  2 27  1  0  0  0  0
  3  6  1  0  0  0  0
  3 28  1  0  0  0  0
  4  7  2  0  0  0  0
  4  9  1  0  0  0  0
  4 29  1  0  0  0  0
  5 10  1  0  0  0  0
  5 30  1  0  0  0  0
  6 10  2  0  0  0  0
  6 31  1  0  0  0  0
  7 12  1  0  0  0  0
  7 32  1  0  0  0  0
  8 11  1  0  0  0  0
  8 12  2  0  0  0  0
  8 33  1  0  0  0  0
  9 11  2  0  0  0  0
  9 16  1  0  0  0  0
 10 22  1  0  0  0  0
 11 23  1  0  0  0  0
 12 25  1  0  0  0  0
 13 14  1  0  0  0  0
 13 15  1  0  0  0  0
 13 20  2  0  0  0  0
 14 19  1  0  0  0  0
 14 21  2  0  0  0  0
 15 23  1  0  0  0  0
 15 24  2  0  0  0  0
 16 17  1  0  0  0  0
 16 34  1  0  0  0  0
 16 35  1  0  0  0  0
 17 18  1  0  0  0  0
 17 36  1  0  0  0  0
 17 37  1  0  0  0  0
 18 23  1  0  0  0  0
 18 38  1  0  0  0  0
 18 39  1  0  0  0  0
 19 40  1  0  0  0  0
 19 41  1  0  0  0  0
 19 42  1  0  0  0  0
 20 22  1  0  0  0  0
 21 22  1  0  0  0  0
M  END
$$$$
