
  -OEChem-05262117483D

 42 45  0     0  0  0  0  0  0999 V2000
   -5.3259    0.5322   -5.0457 C   0  0  0  0  0  0  0  0  0  0  0  0
   -3.9959    0.7014   -5.4451 C   0  0  0  0  0  0  0  0  0  0  0  0
   -5.6518   -0.4856   -4.1424 C   0  0  0  0  0  0  0  0  0  0  0  0
    2.5860   -2.4736    0.4744 C   0  0  0  0  0  0  0  0  0  0  0  0
   -2.9935   -0.1345   -4.9496 C   0  0  0  0  0  0  0  0  0  0  0  0
   -4.6630   -1.3317   -3.6381 C   0  0  0  0  0  0  0  0  0  0  0  0
    1.9876   -1.2148    0.5289 C   0  0  0  0  0  0  0  0  0  0  0  0
   -0.1341   -2.2484   -0.0721 C   0  0  0  0  0  0  0  0  0  0  0  0
    1.8716   -3.6262    0.1244 C   0  0  0  0  0  0  0  0  0  0  0  0
   -3.3376   -1.1468   -4.0472 C   0  0  0  0  0  0  0  0  0  0  0  0
    0.5016   -3.4968   -0.1827 C   0  0  0  0  0  0  0  0  0  0  0  0
    0.6244   -1.1367    0.2586 C   0  0  0  0  0  0  0  0  0  0  0  0
   -1.3803   -3.5051   -2.4073 C   0  0  0  0  0  0  0  0  0  0  0  0
   -0.4166   -2.8731   -3.2378 C   0  0  0  0  0  0  0  0  0  0  0  0
   -1.2420   -4.6899   -1.5075 C   0  0  0  0  0  0  0  0  0  0  0  0
    2.5687   -4.9752    0.1346 C   0  0  0  0  0  0  0  0  0  0  0  0
    1.7022   -6.1149   -0.4167 C   0  0  0  0  0  0  0  0  0  0  0  0
    0.2444   -5.9237    0.0027 C   0  0  0  0  0  0  0  0  0  0  0  0
    1.0497   -3.1266   -3.3839 C   0  0  0  0  0  0  0  0  0  0  0  0
   -2.5733   -2.9428   -2.6240 N   0  0  0  0  0  0  0  0  0  0  0  0
   -1.0456   -1.9312   -3.9455 N   0  0  0  0  0  0  0  0  0  0  0  0
   -2.3237   -2.0024   -3.5370 N   0  0  0  0  0  0  0  0  0  0  0  0
   -0.2336   -4.6511   -0.5552 N   0  0  0  0  0  0  0  0  0  0  0  0
   -1.9511   -5.6800   -1.6633 O   0  0  0  0  0  0  0  0  0  0  0  0
    0.0045    0.0678    0.3441 F   0  0  0  0  0  0  0  0  0  0  0  0
   -6.1010    1.1866   -5.4348 H   0  0  0  0  0  0  0  0  0  0  0  0
   -3.7329    1.4890   -6.1460 H   0  0  0  0  0  0  0  0  0  0  0  0
   -6.6823   -0.6261   -3.8278 H   0  0  0  0  0  0  0  0  0  0  0  0
    3.6456   -2.5655    0.7030 H   0  0  0  0  0  0  0  0  0  0  0  0
   -1.9592   -0.0143   -5.2497 H   0  0  0  0  0  0  0  0  0  0  0  0
   -4.9020   -2.1264   -2.9411 H   0  0  0  0  0  0  0  0  0  0  0  0
    2.5455   -0.3213    0.7896 H   0  0  0  0  0  0  0  0  0  0  0  0
   -1.1993   -2.1373   -0.2337 H   0  0  0  0  0  0  0  0  0  0  0  0
    3.5102   -4.9102   -0.4218 H   0  0  0  0  0  0  0  0  0  0  0  0
    2.8443   -5.2035    1.1723 H   0  0  0  0  0  0  0  0  0  0  0  0
    1.7428   -6.1360   -1.5114 H   0  0  0  0  0  0  0  0  0  0  0  0
    2.0743   -7.0809   -0.0603 H   0  0  0  0  0  0  0  0  0  0  0  0
   -0.4026   -6.7119   -0.3782 H   0  0  0  0  0  0  0  0  0  0  0  0
    0.1486   -5.8942    1.0944 H   0  0  0  0  0  0  0  0  0  0  0  0
    1.2715   -4.1949   -3.3137 H   0  0  0  0  0  0  0  0  0  0  0  0
    1.3975   -2.7577   -4.3511 H   0  0  0  0  0  0  0  0  0  0  0  0
    1.6151   -2.6183   -2.5963 H   0  0  0  0  0  0  0  0  0  0  0  0
  1  2  1  0  0  0  0
  1  3  2  0  0  0  0
  1 26  1  0  0  0  0
  2  5  2  0  0  0  0
  2 27  1  0  0  0  0
  3  6  1  0  0  0  0
  3 28  1  0  0  0  0
  4  7  2  0  0  0  0
  4  9  1  0  0  0  0
  4 29  1  0  0  0  0
  5 10  1  0  0  0  0
  5 30  1  0  0  0  0
  6 10  2  0  0  0  0
  6 31  1  0  0  0  0
  7 12  1  0  0  0  0
  7 32  1  0  0  0  0
  8 11  1  0  0  0  0
  8 12  2  0  0  0  0
  8 33  1  0  0  0  0
  9 11  2  0  0  0  0
  9 16  1  0  0  0  0
 10 22  1  0  0  0  0
 11 23  1  0  0  0  0
 12 25  1  0  0  0  0
 13 14  1  0  0  0  0
 13 15  1  0  0  0  0
 13 20  2  0  0  0  0
 14 19  1  0  0  0  0
 14 21  2  0  0  0  0
 15 23  1  0  0  0  0
 15 24  2  0  0  0  0
 16 17  1  0  0  0  0
 16 34  1  0  0  0  0
 16 35  1  0  0  0  0
 17 18  1  0  0  0  0
 17 36  1  0  0  0  0
 17 37  1  0  0  0  0
 18 23  1  0  0  0  0
 18 38  1  0  0  0  0
 18 39  1  0  0  0  0
 19 40  1  0  0  0  0
 19 41  1  0  0  0  0
 19 42  1  0  0  0  0
 20 22  1  0  0  0  0
 21 22  1  0  0  0  0
M  END
$$$$
