42
0 1 C19FH17N4O
C                    -1.987195339796     8.354637816194     7.529154054825
C                    -1.921777003067     7.270763490488     8.411188571650
C                    -1.692723377693     8.162077267288     6.174818479145
C                     3.036296907103    -0.448050184941     0.968258704449
C                    -1.563844945671     6.001818314943     7.951965365542
C                    -1.334593926614     6.900195490942     5.697800424594
C                     2.016313061808    -1.148487524601     0.329271433367
C                     0.408246988602    -0.052469396842     1.795666972206
C                     2.784639022083     0.454431421798     2.011107222788
C                    -1.272069818804     5.827893519402     6.594746943545
C                     1.451308220304     0.651036747297     2.422762668263
C                     0.713449526806    -0.928806019219     0.768769490155
C                    -0.281205346553     3.012244400559     4.812353868366
C                    -0.483021130789     2.465636595288     6.107381236106
C                     0.025300846168     2.315799422490     3.522790064823
C                     3.950902662253     1.161500479054     2.675530333146
C                     3.496568413266     2.271478957809     3.623783053928
C                     2.290557685417     1.788399199477     4.428149495987
C                    -0.319847692138     1.058704360938     6.589263286490
N                    -0.563314040939     4.318391279066     4.846951791906
N                    -0.882953761141     3.455558899265     6.910918626812
N                    -0.906832708144     4.539188046586     6.117412091765
N                     1.164642373490     1.518980714364     3.520717611071
O                    -0.743981210325     2.409324170664     2.573528261309
F                    -0.302385378655    -1.605965721231     0.171354280198
H                    -2.266599425333     9.339461862879     7.893109778744
H                    -2.150138332355     7.410137326967     9.464350404568
H                    -1.743943323640     8.997152164513     5.481530821029
H                     4.064726039674    -0.599046546878     0.647601847439
H                    -1.510606146332     5.153368797101     8.624015792792
H                    -1.108858586316     6.735863106574     4.650616092779
H                     2.211455296988    -1.841216747298    -0.483005610021
H                    -0.623758514062     0.088645586121     2.086952599570
H                     4.535781812258     0.422515781120     3.239026130581
H                     4.622144686645     1.563834245708     1.909401140933
H                     4.307725648884     2.555189953163     4.302296650543
H                     3.205328776694     3.166651785877     3.063431246471
H                     2.539012566616     0.868935211234     4.972311190186
H                     1.986690398901     2.540128447892     5.153318932732
H                     0.728785955513     0.835302644513     6.814624689004
H                    -0.901555483119     0.904518732621     7.500404910032
H                    -0.652669004987     0.344941376011     5.831156097993
