42
0 1 C19FH17N4O
C                    -2.049564906693     5.467572369778    -3.486311604230
C                    -1.888520067497     4.320051218016    -4.270141620678
C                    -1.101203275949     5.771408180832    -2.503289448281
C                     3.225449538897    -2.628036032892    -0.544561164783
C                    -0.792377509009     3.476973568542    -4.078575109995
C                     0.001858121107     4.940988397320    -2.299156354706
C                     1.858567150385    -2.431323961766    -0.348220517849
C                     2.265194735011    -0.032338395060    -0.245932806738
C                     4.129606197887    -1.561670794642    -0.627006355068
C                     0.145904306601     3.796321881438    -3.091155327381
C                     3.628881819231    -0.249022857683    -0.507458947136
C                     1.410967713300    -1.122418720589    -0.194088976735
C                     3.022753886422     2.142746091854    -2.056342518448
C                     2.622228302421     1.340572771828    -3.158094455912
C                     4.249671686184     2.062407413167    -1.207341455073
C                     5.612809029367    -1.843926245744    -0.788927596394
C                     6.453622297805    -0.581438619701    -1.018166486709
C                     5.909686160101     0.577378332924    -0.182179478477
C                     3.244831109330     0.109756777559    -3.735267325200
N                     2.155076614085     3.149705097376    -1.916349978557
N                     1.510581825347     1.877037006694    -3.668087442206
N                     1.265002239105     2.943710543586    -2.888751574346
N                     4.527870263701     0.843658299752    -0.605130015717
O                     5.009808756127     3.022076751263    -1.113971544152
F                     0.092393616010    -0.901028703081     0.039968558926
H                    -2.905321425172     6.119070411433    -3.640204454671
H                    -2.619804797799     4.075548750819    -5.035772777759
H                    -1.216536184281     6.661564297816    -1.890922621993
H                     3.604364224128    -3.642668748273    -0.645839110524
H                    -0.655576997804     2.584522357078    -4.677857357694
H                     0.745987998477     5.166477262749    -1.544161437305
H                     1.158120978758    -3.258509975094    -0.295754909916
H                     1.869969966756     0.962336957457    -0.079889253774
H                     5.960989022825    -2.346441529418     0.122731128535
H                     5.767384380824    -2.557177526891    -1.605997482447
H                     7.501147208073    -0.771902129282    -0.763204159889
H                     6.425540461350    -0.284843482211    -2.072512713476
H                     5.915589020759     0.330277245783     0.885930398827
H                     6.478545835330     1.494233149428    -0.326286201843
H                     2.950464268281    -0.779929149597    -3.169466273082
H                     2.925207751288    -0.019076134639    -4.771538250187
H                     4.335966921140     0.173201706634    -3.708444491290
