42
0 1 C19FH17N4O
C                    -2.740751577822     2.975690595714    -2.634180563490
C                    -2.062643590248     3.579135568315    -3.698607732539
C                    -2.034769545808     2.170734761370    -1.733283075190
C                     6.120366440506    -1.679793990905     1.469141391760
C                    -0.690775860276     3.384791956798    -3.869443678368
C                    -0.663097886577     1.965306935205    -1.888926470303
C                     7.473380660691    -1.435264392793     1.239985132466
C                     6.867511627832    -0.279708500020    -0.820122794050
C                     5.120566811053    -1.239325396654     0.592894798302
C                    -0.000426410996     2.575986305328    -2.959980303307
C                     5.507157746194    -0.524286475512    -0.563161690820
C                     7.811330108178    -0.736191404277     0.086616646611
C                     3.357299099870     1.672505781352    -2.798737916966
C                     3.349281371906     2.527307769978    -3.936872406946
C                     4.576525377668     1.097223286521    -2.158815991927
C                     3.672402670688    -1.575353745654     0.911754135580
C                     2.672361694093    -0.953580868531    -0.069619543397
C                     3.287223691473    -0.950135824346    -1.464785003874
C                     4.472629909772     2.954950627381    -4.823983976933
N                     2.111096928944     1.602910336685    -2.309413904590
N                     2.095371396234     2.942310605275    -4.126577171658
N                     1.395521289817     2.371936842919    -3.128297275653
N                     4.484893348208    -0.093647882418    -1.465197264672
O                     5.624630419620     1.737883630732    -2.274765508128
F                     9.124275553857    -0.494671490967    -0.172312397873
H                    -3.808339554101     3.131803127591    -2.507071488389
H                    -2.601959862733     4.206701438323    -4.402805521876
H                    -2.552269461180     1.699531094339    -0.902088073523
H                     5.825240616459    -2.226917294156     2.361911940503
H                    -0.152895520736     3.846635828374    -4.688937413009
H                    -0.105180622378     1.346782745771    -1.195615052130
H                     8.245406559231    -1.772581341219     1.924153082828
H                     7.182655850044     0.265121455036    -1.697537932500
H                     3.564849619872    -2.667449278545     0.889482606689
H                     3.443559938308    -1.268334568545     1.938087234261
H                     1.733024291658    -1.516536301950    -0.067629217948
H                     2.437820030077     0.080625820825     0.200617340731
H                     3.606161595691    -1.961834966483    -1.744982802310
H                     2.585855719604    -0.599854833316    -2.213504101811
H                     5.050388345395     2.091903094710    -5.166176684801
H                     4.078938760574     3.492344145055    -5.689277607566
H                     5.163734267385     3.599887459010    -4.275254769017
