28   
torsion grid (-165,)
C        5.5089361750    5.0242053879   -2.2073600112
C        5.9261807119    4.3159918426   -3.3446688010
C        4.8613710923    4.3436627246   -1.1841645976
C        5.6712412423    2.9475429649   -3.3876404278
C        4.6560669044    2.9583771040   -1.3348319223
C        0.6960896497   -0.3187654673   -0.4421405471
C        1.4600209929   -0.0782755459   -1.7502974547
C        1.6582594165   -0.3571182115    0.7523151654
C        2.3395703676    1.1813743295   -1.6826803265
C        2.5328178271    0.9032354040    0.8004198328
C        3.3124318348    1.0944072315   -0.5007811861
N        5.0554725532    2.2692360516   -2.4040444136
O        4.0794253744    2.3140282807   -0.2910902258
H        5.6832532116    6.0942379994   -2.1258360296
H        6.4324354403    4.8091174173   -4.1687545368
H        4.5124194489    4.8399114533   -0.2844129191
H        5.9787720512    2.3551469013   -4.2484217753
H        0.1223930573   -1.2512132910   -0.5008480288
H       -0.0310156267    0.4914239687   -0.2937711991
H        2.0950287602   -0.9486290619   -1.9655418523
H        0.7623126440    0.0107746227   -2.5907402104
H        1.1019988970   -0.4566288762    1.6913220058
H        2.3007049752   -1.2448690130    0.6741042001
H        2.8862279420    1.3042808921   -2.6178424512
H        1.7080141851    2.0697094425   -1.5460030627
H        1.9058485778    1.7902742028    0.9527406921
H        3.2336576556    0.8578475633    1.6414275249
H        4.0183434629    0.2709814720   -0.6619734939
28   
torsion grid (-150,)
C        5.4197175820    5.0245553443   -2.1328115052
C        5.7954344090    4.4102484214   -3.3364424524
C        4.8781375783    4.2474092360   -1.1160409281
C        5.6115038078    3.0338437006   -3.4491667706
C        4.7371208507    2.8640273152   -1.3388885735
C        0.6686952818   -0.2101895375   -0.4555183511
C        1.5050346676   -0.1218947212   -1.7379085549
C        1.5748533299   -0.2497623036    0.7816370276
C        2.4859951053    1.0628612959   -1.7149893378
C        2.5509065569    0.9342773142    0.7884596831
C        3.3969075967    0.9778513727   -0.4856199869
N        5.1029229389    2.2636379449   -2.4724519902
O        4.2769767296    2.1258893524   -0.2986239590
H        5.5420796900    6.0960546536   -1.9950834121
H        6.2186713807    4.9793633110   -4.1584455160
H        4.5635161686    4.6682968492   -0.1666180122
H        5.8923054666    2.5125371159   -4.3634537221
H        0.0200925249   -1.0936917866   -0.4834260630
H        0.0084407051    0.6656433960   -0.3920625839
H        2.0720420622   -1.0543756051   -1.8652211218
H        0.8543245393   -0.0342277693   -2.6153483637
H        0.9757538195   -0.2398240614    1.6992691131
H        2.1411891410   -1.1911697987    0.7883051683
H        3.0787715341    1.0731183898   -2.6293452350
H        1.9269782603    2.0077453760   -1.6727565405
H        1.9959321598    1.8781955719    0.8558184188
H        3.2121094382    0.8889119522    1.6608580722
H        4.0307216667    0.0857543431   -0.5616340771
28   
torsion grid (-135,)
C        5.3401722477    5.0080309125   -2.0444866946
C        5.6583596473    4.4925924362   -3.3087123982
C        4.8989267674    4.1401057872   -1.0520133802
C        5.5230525173    3.1192371251   -3.5045447550
C        4.7998499351    2.7696237197   -1.3591433698
C        0.6588447204   -0.1154294495   -0.4795957641
C        1.5469587585   -0.1913192552   -1.7275507406
C        1.5120698443   -0.1238204855    0.7951462308
C        2.6110510084    0.9197199580   -1.7574695705
C        2.5734142704    0.9838515181    0.7545314981
C        3.4625126289    0.8714308178   -0.4863401507
N        5.1144186210    2.2636109631   -2.5530543767
O        4.4469678764    1.9412584280   -0.3435515704
H        5.4281665113    6.0723701422   -1.8406907470
H        6.0030269007    5.1331706674   -4.1147612227
H        4.6312031226    4.4822584695   -0.0576221967
H        5.7636700460    2.6734428879   -4.4689126345
H       -0.0544423924   -0.9479572056   -0.4684731940
H        0.0660580898    0.8090483622   -0.5119441751
H        2.0476120161   -1.1689524275   -1.7563531329
H        0.9376298671   -0.1297256729   -2.6363464032
H        0.8816001772   -0.0004538674    1.6830737939
H        2.0061289394   -1.0999900610    0.8958748493
H        3.2400232840    0.8153630579   -2.6415008375
H        2.1198789129    1.9002859912   -1.8209739858
H        2.0878085541    1.9678308540    0.7332885518
H        3.2017688545    0.9560418627    1.6513309894
H        4.0240639784   -0.0706619985   -0.4657801644
28   
torsion grid (-120,)
C        6.3636211039    4.2452300863   -2.2493437759
C        5.4251021314    4.7265953448   -3.1726594112
C        5.9418275802    3.3829969828   -1.2434113967
C        4.1004845904    4.3180850939   -3.0264690818
C        4.5780942150    3.0369213452   -1.1885511788
C        0.8103739401   -0.3760185665   -0.7990539145
C        2.0776623398   -0.5926860672   -1.6391768243
C        1.1564773500    0.1194946924    0.6125955377
C        2.9292019448    0.6872457020   -1.7068045750
C        2.0432510253    1.3734670834    0.5664850974
C        3.2850263855    1.1229009583   -0.2865461660
N        3.6717196198    3.5005470164   -2.0510005832
O        4.1856695222    2.2635825594   -0.1447695235
H        7.4096649069    4.5332209963   -2.3197110583
H        5.7095511071    5.3987124754   -3.9765207738
H        6.6244645958    2.9722940744   -0.5065866469
H        3.3353949680    4.6708232326   -3.7170223813
H        0.2292209755   -1.3039775780   -0.7430299595
H        0.1729994461    0.3671664834   -1.2970074532
H        2.6682341315   -1.4106264161   -1.2036315775
H        1.8117477647   -0.9058724919   -2.6551246757
H        0.2427582046    0.3302534955    1.1797093340
H        1.6837243368   -0.6774296051    1.1553057751
H        3.8416786603    0.5108477438   -2.2880000854
H        2.3714539398    1.4777146771   -2.2126276820
H        1.4889730425    2.2157972611    0.1342027375
H        2.3530671735    1.6702785392    1.5739583937
H        3.8554678152    0.3048184041    0.1743139762
28   
torsion grid (-105,)
C        6.3048500745    4.2849568617   -2.2804557598
C        5.2857921346    4.7888829433   -3.1018910349
C        5.9867902587    3.3500323787   -1.3027701832
C        3.9895130354    4.3260812861   -2.8867031318
C        4.6415544193    2.9532496651   -1.1723395075
C        0.8065951983   -0.2924104267   -0.8525710247
C        2.0960304715   -0.6562304657   -1.6040202354
C        1.1131524980    0.2537392476    0.5497673798
C        3.0484112936    0.5491044333   -1.6919872556
C        2.0925165881    1.4367403502    0.4916205432
C        3.3523130326    1.0469074026   -0.2798039783
N        3.6598478379    3.4353068581   -1.9363244708
O        4.3572150887    2.0979195228   -0.1596236851
H        7.3335161336    4.6128798590   -2.4084245880
H        5.4894823593    5.5174362743   -3.8806257741
H        6.7346963963    2.9194278927   -0.6449561881
H        3.1645824459    4.6918500247   -3.4968562990
H        0.1494474310   -1.1672188824   -0.7826817787
H        0.2605683805    0.4690966369   -1.4256813024
H        2.5949533166   -1.4891106841   -1.0893387667
H        1.8608622355   -1.0089733091   -2.6145854845
H        0.1885604841    0.5599366703    1.0520581717
H        1.5494688768   -0.5486847807    1.1609940228
H        3.9804417863    0.2695151043   -2.1974363956
H        2.5820798198    1.3427305986   -2.2782900631
H        1.6254522891    2.2929252335   -0.0095863908
H        2.3747939803    1.7605039821    1.4989151774
H        3.8307957135    0.2193942913    0.2600766829
28   
torsion grid (-90,)
C        6.2355697869    4.3690605720   -2.2497566024
C        5.1607223502    4.8632391522   -3.0050249844
C        6.0074427593    3.3571957644   -1.3267223733
C        3.9030349734    4.3097857817   -2.7816063046
C        4.6921268215    2.8707895400   -1.1826917969
C        0.7908861059   -0.2129563714   -0.8817111617
C        2.0690819123   -0.7204358592   -1.5662809223
C        1.0980596174    0.3899796452    0.4972119896
C        3.1178190772    0.3984330272   -1.6890417110
C        2.1617750033    1.4958715456    0.4041580430
C        3.4107677001    0.9658618973   -0.3001882616
N        3.6594738674    3.3387376777   -1.8842223806
O        4.5063034687    1.9239180774   -0.2316714513
H        7.2383571389    4.7661013331   -2.3868891441
H        5.2947922717    5.6510366646   -3.7398168836
H        6.8015146591    2.9319184208   -0.7216677944
H        3.0372970281    4.6621963111   -3.3409184122
H        0.0652290760   -1.0290382205   -0.7840372240
H        0.3236570520    0.5529126940   -1.5153507250
H        2.4835832420   -1.5569343152   -0.9864968750
H        1.8372367291   -1.1149696853   -2.5620805030
H        0.1847642755    0.7904474452    0.9516381307
H        1.4565329004   -0.4055129784    1.1656060342
H        4.0441600945    0.0148260613   -2.1328169183
H        2.7376414651    1.1853946122   -2.3428555711
H        1.7721576843    2.3500210144   -0.1598093717
H        2.4380530774    1.8560144212    1.4009738873
H        3.8097129015    0.1451298267    0.3088085692
28   
torsion grid (-75,)
C        6.1890799374    4.4766454661   -2.1588021616
C        5.0937773058    4.9373055985   -2.9077403022
C        6.0251651504    3.3852939092   -1.3182563019
C        3.8837683823    4.2667277913   -2.7624322897
C        4.7515710994    2.7810265352   -1.2494143433
C        0.7779891939   -0.1616460487   -0.8777893799
C        2.0139797258   -0.7988332327   -1.5304423414
C        1.1345804609    0.5043219493    0.4596216346
C        3.1399273905    0.2316744751   -1.7186161331
C        2.2652097566    1.5329214703    0.2920269430
C        3.4752128603    0.8709340737   -0.3698423472
N        3.7026700195    3.2105232556   -1.9490895739
O        4.6440005547    1.7375513511   -0.3934548452
H        7.1576429296    4.9644837654   -2.2356685276
H        5.1780699486    5.7865525716   -3.5786019661
H        6.8371227652    2.9850343308   -0.7198742694
H        3.0045212017    4.5863361601   -3.3203197151
H       -0.0018372396   -0.9175156660   -0.7272098378
H        0.3610198032    0.5936928335   -1.5574343202
H        2.3701214448   -1.6256100941   -0.8999104970
H        1.7508653660   -1.2366683859   -2.5000402205
H        0.2527203567    0.9917986825    0.8906365883
H        1.4453210948   -0.2693233464    1.1758675771
H        4.0378315600   -0.2449729211   -2.1287933212
H        2.8205587071    1.0022656238   -2.4232666639
H        1.9257388450    2.3663808278   -0.3290391855
H        2.5647858942    1.9415867795    1.2635365855
H        3.8222556747    0.0724322449    0.2966683534
28   
torsion grid (-60,)
C        6.1342089422    4.5905640588   -2.0205513442
C        5.0492940479    5.0250624951   -2.8001947708
C        6.0123655000    3.4265364862   -1.2765437630
C        3.8931803941    4.2523694620   -2.7854660838
C        4.7912954910    2.7203012583   -1.3368598782
C        0.7570559758   -0.1141245450   -0.8485655529
C        1.9393551817   -0.8564868586   -1.4888071678
C        1.1861237342    0.6147200700    0.4334983361
C        3.1184632548    0.0931391347   -1.7577498851
C        2.3582911618    1.5735575734    0.1658198804
C        3.5207934505    0.8006270232   -0.4614906123
N        3.7557801368    3.1188639352   -2.0733058553
O        4.7379206757    1.5858626535   -0.6003208109
H        7.0612135466    5.1580572084   -1.9959095265
H        5.1016941601    5.9304647610   -3.3967192522
H        6.8169483871    3.0460384969   -0.6557278692
H        3.0244566687    4.5460602467   -3.3732880685
H       -0.0569680552   -0.8155862145   -0.6307140331
H        0.3615172304    0.6190490534   -1.5643258576
H        2.2634839742   -1.6652497565   -0.8187706066
H        1.6287743003   -1.3333406177   -2.4254252052
H        0.3429299572    1.1732590435    0.8555750129
H        1.4802946954   -0.1265527197    1.1898158434
H        3.9794472270   -0.4602833540   -2.1495793431
H        2.8351350008    0.8395962465   -2.5038672294
H        2.0396895870    2.3685957423   -0.5116585246
H        2.6947769278    2.0430217834    1.0974881556
H        3.8433916130    0.0362962943    0.2547711096
28   
torsion grid (-45,)
C        6.0780308718    4.6644196475   -1.8772240893
C        5.0170429525    5.1013345504   -2.6864115157
C        5.9815921674    3.4371514256   -1.2364749435
C        3.9106586863    4.2663687574   -2.8091718241
C        4.8126966566    2.6721371562   -1.4325864445
C        0.7462862188   -0.1085412162   -0.7905230844
C        1.8828980638   -0.9293171811   -1.4173451479
C        1.2450824752    0.6990894547    0.4169019538
C        3.0820613943   -0.0398946952   -1.7829226308
C        2.4306695110    1.6009196020    0.0331541122
C        3.5532517180    0.7431233162   -0.5548366205
N        3.8022308357    3.0695697682   -2.2053182885
O        4.7909977032    1.4620585528   -0.8250510305
H        6.9649871043    5.2794124826   -1.7464086476
H        5.0494916223    6.0553533491   -3.2033775776
H        6.7674392997    3.0527500124   -0.5944506572
H        3.0630827056    4.5596352685   -3.4272988312
H       -0.0769120592   -0.7679532073   -0.4910993052
H        0.3422779336    0.5822427818   -1.5427664624
H        2.2044978950   -1.7021697396   -0.7049639532
H        1.5268407915   -1.4570729398   -2.3094091761
H        0.4350141999    1.3137961847    0.8255903057
H        1.5474629876    0.0080704172    1.2162197978
H        3.9115294784   -0.6451324886   -2.1652759322
H        2.8022612369    0.6706671532   -2.5664493860
H        2.1069677533    2.3396751702   -0.7018601805
H        2.8021808780    2.1437845435    0.9105794792
H        3.8774574039    0.0287967780    0.2103582364
28   
torsion grid (-30,)
C        6.0541615025    4.6886054807   -1.7633675338
C        5.0159418944    5.1717465687   -2.5734265252
C        5.9593820483    3.4082984673   -1.2319648940
C        3.9332155610    4.3285406223   -2.8122689107
C        4.8184901151    2.6415972873   -1.5402472987
C        0.7427625463   -0.1407109833   -0.7369857694
C        1.8524927657   -1.0169249675   -1.3358163419
C        1.2890914721    0.7608776750    0.3797480872
C        3.0475149863   -0.1707762120   -1.8025594062
C        2.4622105855    1.6194320913   -0.1234052602
C        3.5653665096    0.7051983748   -0.6595432291
N        3.8301973619    3.0824079391   -2.3204770526
O        4.7981126615    1.3731996787   -1.0628267501
H        6.9209343498    5.3074177399   -1.5446951167
H        5.0465027674    6.1669448409   -3.0062267279
H        6.7274024518    2.9860469417   -0.5921536383
H        3.1047361356    4.6581738987   -3.4379600912
H       -0.0711813957   -0.7677792086   -0.3543923678
H        0.3132816446    0.4889422129   -1.5278279846
H        2.1911016639   -1.7377087248   -0.5782758099
H        1.4640629694   -1.6062814977   -2.1741807500
H        0.4972180039    1.4142691559    0.7632777724
H        1.6176156962    0.1382510913    1.2235852468
H        3.8598107099   -0.8119900835   -2.1618139929
H        2.7532391450    0.4822373319   -2.6314145209
H        2.1152129235    2.2846696095   -0.9153963669
H        2.8562223974    2.2454621291    0.6865105013
H        3.9092374721    0.0581341365    0.1556471338
28   
torsion grid (-15,)
C        6.0846692390    4.6931980447   -1.6787852772
C        5.0588062975    5.2684174078   -2.4417570274
C        5.9583216254    3.3733522450   -1.2605695473
C        3.9563162100    4.4745676641   -2.7526743054
C        4.8013437302    2.6625981269   -1.6329393135
C        0.7432197206   -0.2010771184   -0.6720689446
C        1.8587720618   -1.1018209106   -1.2217300832
C        1.2975874123    0.8159347647    0.3363547443
C        3.0187341265   -0.2737502059   -1.7958801404
C        2.4310989949    1.6522019774   -0.2824740818
C        3.5441550011    0.7169116006   -0.7560278289
N        3.8251028926    3.1930366149   -2.3722152241
O        4.7489814937    1.3535608402   -1.2804948000
H        6.9656236611    5.2702547735   -1.4085896960
H        5.1130970828    6.2964364733   -2.7867644749
H        6.7158194822    2.8789540967   -0.6611751188
H        3.1371526546    4.8768560420   -3.3474657401
H       -0.0409340225   -0.8093537388   -0.2060663349
H        0.2724190545    0.3398051875   -1.5040409431
H        2.2365914308   -1.7426082492   -0.4127420073
H        1.4639452971   -1.7738906143   -1.9920737087
H        0.4998702466    1.4833973840    0.6814924781
H        1.6678022839    0.2849420667    1.2243746746
H        3.8375361804   -0.9246048899   -2.1208942764
H        2.6857697015    0.2944489373   -2.6725463955
H        2.0469091199    2.2278241921   -1.1261611417
H        2.8236609409    2.3678436342    0.4500142990
H        3.9195227969    0.1588482732    0.1107028951
28   
torsion grid (0,)
C        0.7361865793   -0.5127163638    7.1165856559
C       -0.5038160133    0.0344672029    7.4748176657
C        0.8370857709   -1.2426644073    5.9380339859
C       -1.5859844484   -0.1967104282    6.6275012273
C       -0.3196807000   -1.4095317218    5.1522198589
C        0.7656892475    0.5973786840    1.7745413585
C        1.4810769178   -0.7476949357    1.9663790735
C       -0.4402996953    0.7256945566    2.7170258646
C        0.5131488912   -1.9235287333    1.7780227852
C       -1.3954174412   -0.4710326513    2.5833902999
C       -0.6945172010   -1.8263506651    2.7145623928
N       -1.5100191809   -0.9135731990    5.4940195921
O       -0.1987960126   -2.1869388922    4.0474178293
H        1.6111239671   -0.3639468269    7.7446341247
H       -0.6290042508    0.6159941942    8.3830890558
H        1.7723192849   -1.6812894790    5.6055836230
H       -2.5706893468    0.2011388729    6.8697609813
H        0.4231662134    0.6768852276    0.7330294369
H        1.4640629793    1.4263522320    1.9390756212
H        2.3183315372   -0.8391073510    1.2647993413
H        1.9098728659   -0.7934773279    2.9752260470
H       -0.0861065211    0.8066800447    3.7510196083
H       -0.9888549406    1.6514255704    2.5075681767
H        0.1402990262   -1.9350812426    0.7448336159
H        1.0191879167   -2.8792137439    1.9493967295
H       -2.2194140146   -0.3989837604    3.2930788281
H       -1.8307605984   -0.4660161077    1.5746123232
H       -1.4136495000   -2.6152746556    2.4704352952
28   
torsion grid (15,)
C        0.6553250244   -0.4551959788    7.2134437652
C       -0.6399857850   -0.0464429193    7.5633816387
C        0.8525336464   -1.1160315151    6.0074143507
C       -1.6749144278   -0.3383485036    6.6777138676
C       -0.2665868108   -1.3562526254    5.1855937097
C        0.8028529087    0.5766610851    1.6608875002
C        1.4790567221   -0.7944908890    1.8094547906
C       -0.3220554127    0.7604442210    2.6909180036
C        0.4570360995   -1.9374889856    1.7314680501
C       -1.3313697789   -0.3958216384    2.6311209382
C       -0.6647204102   -1.7680592041    2.7591192498
N       -1.5059133641   -0.9903671828    5.5147581325
O       -0.0414078503   -2.0632816428    4.0522725448
H        1.4978057100   -0.2525881331    7.8701472186
H       -0.8404980997    0.4771111789    8.4931197165
H        1.8327567106   -1.4468249786    5.6796973406
H       -2.6983985119   -0.0470903324    6.9103372764
H        0.3833300366    0.6640378359    0.6485927975
H        1.5448583875    1.3773953399    1.7626979833
H        2.2438536554   -0.9278675906    1.0355516359
H        1.9958600118   -0.8445778593    2.7756279616
H        0.1114536252    0.8228850794    3.6964205074
H       -0.8430501450    1.7097915463    2.5210558992
H        0.0002365322   -1.9636293309    0.7332743519
H        0.9433514378   -2.9057394410    1.8897177761
H       -2.1164663967   -0.2799234848    3.3774299981
H       -1.8157744928   -0.3961821571    1.6449925034
H       -1.4237834129   -2.5450897014    2.6161197629
28   
torsion grid (30,)
C        0.5641755522   -0.4234233010    7.3224061693
C       -0.7747734299   -0.1757183499    7.6601935055
C        0.8570666036   -0.9917553229    6.0892371915
C       -1.7544088418   -0.5245036652    6.7335966625
C       -0.2134255982   -1.3036724087    5.2279785314
C        0.8341605252    0.5384401010    1.5090830581
C        1.4664188571   -0.8541847203    1.6523478139
C       -0.1922266943    0.8065226930    2.6205639365
C        0.3984780510   -1.9562787077    1.7146027558
C       -1.2522907601   -0.3028824714    2.6795098803
C       -0.6260993231   -1.6935513744    2.8192258457
N       -1.4913236497   -1.0871686217    5.5414097996
O        0.1082731300   -1.9178767556    4.0648390246
H        1.3661839966   -0.1689629115    8.0109172030
H       -1.0489514864    0.2706454957    8.6110887025
H        1.8736250203   -1.1988345662    5.7707843095
H       -2.8077724335   -0.3559107117    6.9537073802
H        0.3330612705    0.6092692288    0.5331815464
H        1.6136470582    1.3094753270    1.5174561127
H        2.1508101065   -1.0488362633    0.8184502156
H        2.0664562006   -0.8898653570    2.5693528976
H        0.3238075717    0.8737965803    3.5867000294
H       -0.6805135844    1.7751124972    2.4626331708
H       -0.1420631140   -2.0089314392    0.7606099847
H        0.8603463721   -2.9355695996    1.8786766243
H       -1.9749668035   -0.1272289656    3.4754494751
H       -1.8117673642   -0.3187246482    1.7342444851
H       -1.4211303717   -2.4473492106    2.7872362138
28   
torsion grid (45,)
C        0.4716859095   -0.4252133225    7.4540041602
C       -0.8940504341   -0.3230586503    7.7600069670
C        0.8526902795   -0.8827750228    6.1992377787
C       -1.8095663662   -0.6956174179    6.7790015650
C       -0.1597488547   -1.2318280005    5.2839283666
C        0.8413121762    0.4964240657    1.3382594013
C        1.4398765306   -0.9067470558    1.5184102073
C       -0.0813698341    0.8678928810    2.5092997987
C        0.3468406865   -1.9634749648    1.7387791631
C       -1.1718303432   -0.1926330151    2.7180358006
C       -0.5795301005   -1.5943960094    2.8969520135
N       -1.4608443002   -1.1493342685    5.5625459099
O        0.2483324327   -1.7290488902    4.0926178970
H        1.2260936271   -0.1452874326    8.1850945727
H       -1.2358354633    0.0331262486    8.7268929025
H        1.8930188915   -0.9772003636    5.9050523968
H       -2.8800143149   -0.6362957034    6.9713399955
H        0.2638871666    0.5267131191    0.4032244939
H        1.6426425429    1.2377189287    1.2355124703
H        2.0448535503   -1.1773909733    0.6452093413
H        2.1133080921   -0.9069423619    2.3833826323
H        0.5130880208    0.9651054448    3.4267898542
H       -0.5450024619    1.8455265611    2.3336999892
H       -0.2696402059   -2.0579201331    0.8356024187
H        0.7902502524   -2.9462460745    1.9311350600
H       -1.8189384056    0.0563891678    3.5590183399
H       -1.8121935045   -0.2389015678    1.8267538673
H       -1.3938775743   -2.3221609577    2.9847609345
28   
torsion grid (60,)
C        5.8349991865    4.9481834146   -1.9731719348
C        6.8455612804    3.9793967845   -2.0840800868
C        4.5113930132    4.5410570713   -1.8793341970
C        6.4627125264    2.6414951136   -2.0978346005
C        4.2403473477    3.1579574700   -1.9023032554
C        1.0523225438   -0.5048914377    0.0955837364
C        0.5557834463   -0.0521976193   -1.2848771498
C        2.5813249167   -0.4107668617    0.1906851145
C        1.0622531237    1.3565259534   -1.6276158552
C        3.0885453128    0.9999585493   -0.1499565031
C        2.5825602514    1.4269467017   -1.5295696933
N        5.1862802884    2.2263196781   -2.0127703459
O        2.9348980571    2.7987065678   -1.8541941365
H        6.0820914060    6.0067925087   -1.9570024389
H        7.8931138405    4.2547820202   -2.1566557072
H        3.6901873404    5.2447653767   -1.7894948056
H        7.2097460342    1.8534965110   -2.1835945250
H        0.7209069870   -1.5297331672    0.3002947636
H        0.6020465988    0.1332677321    0.8683661844
H        0.9076770366   -0.7613482954   -2.0465958111
H       -0.5392553222   -0.0707091095   -1.3237720723
H        2.9204822632   -0.6901089482    1.1946600725
H        3.0331934937   -1.1334972341   -0.5024645100
H        0.7492072123    1.6503527503   -2.6353043392
H        0.6335695144    2.0877286083   -0.9305436984
H        2.7179292679    1.7175621179    0.5946622343
H        4.1788542870    1.0279953889   -0.1264862039
H        3.0359098456    0.7774150445   -2.2880443670
28   
torsion grid (75,)
C        5.8555826156    4.9593954676   -2.1001776856
C        6.8376109344    3.9660696427   -2.2518597560
C        4.5409349436    4.5845929263   -1.8641064231
C        6.4356018886    2.6378242118   -2.1564653284
C        4.2484988434    3.2070063024   -1.7868782851
C        1.0221544624   -0.5737053607    0.0218486172
C        0.6183031269   -0.0615429890   -1.3684219209
C        2.5354227050   -0.4403960290    0.2439676442
C        1.1016590542    1.3781651602   -1.5998023086
C        3.0148434660    1.0010354739    0.0116965945
C        2.6076491932    1.4821945841   -1.3815390488
N        5.1667464069    2.2530748458   -1.9277197898
O        2.9511781019    2.8790996132   -1.5767413270
H        6.1184111179    6.0122776714   -2.1658942127
H        7.8775869329    4.2166339623   -2.4363753313
H        3.7417244798    5.3082278208   -1.7403000280
H        7.1594322878    1.8314592065   -2.2665868599
H        0.7101659728   -1.6174475340    0.1456365742
H        0.4918946498    0.0076144225    0.7886995879
H        1.0515626739   -0.7181682987   -2.1353502080
H       -0.4692681202   -0.1112156613   -1.4938793101
H        2.8032934945   -0.7605196845    1.2572799870
H        3.0643559949   -1.1126714223   -0.4453561460
H        0.8552262870    1.7151364360   -2.6125502951
H        0.5974940660    2.0583814789   -0.9015517374
H        2.5608055070    1.6695144732    0.7551051800
H        4.0998523765    1.0687577595    0.1217328089
H        3.1384051470    0.8925876329   -2.1361940247
28   
torsion grid (90,)
C        5.8575264972    4.9694820381   -2.2055467387
C        6.8243296286    3.9756486755   -2.4341415934
C        4.5751203876    4.5965741593   -1.8308516006
C        6.4407284026    2.6489035967   -2.2694423294
C        4.2989469000    3.2199238263   -1.6942260836
C        0.9684133859   -0.6082158575   -0.0584120258
C        0.6902044862   -0.0459325035   -1.4602412345
C        2.4560572298   -0.4885410455    0.3025949064
C        1.1924881109    1.3997338075   -1.5968755822
C        2.9524376508    0.9587080150    0.1624660417
C        2.6744161756    1.4908657168   -1.2427969483
N        5.2038534717    2.2661327252   -1.9029759391
O        3.0371775464    2.8944405834   -1.3249758727
H        6.1068036845    6.0213226136   -2.3215957959
H        7.8390651444    4.2250564633   -2.7281804367
H        3.7882885178    5.3204671392   -1.6448310270
H        7.1538617259    1.8421394265   -2.4331604059
H        0.6463492403   -1.6545769452   -0.0000400384
H        0.3720084261   -0.0525527854    0.6782617022
H        1.1903463528   -0.6765547872   -2.2080897368
H       -0.3818470232   -0.0881512056   -1.6838376296
H        2.6319287116   -0.8442376743    1.3241709858
H        3.0437750945   -1.1386181670   -0.3598398451
H        1.0361540668    1.7726956509   -2.6150352494
H        0.6282175466    2.0563858806   -0.9224209959
H        2.4360519062    1.6036170832    0.8851111732
H        4.0250783253    1.0234390850    0.3697388665
H        3.2719810105    0.9354535241   -1.9701844097
28   
torsion grid (105,)
C        5.8323201880    4.9985923720   -2.2154898989
C        6.7578632668    4.0250462165   -2.6284450507
C        4.6057670202    4.5981878188   -1.7066265802
C        6.3917484507    2.6892889673   -2.5020318462
C        4.3415626706    3.2143396784   -1.6260056102
C        0.8948805624   -0.6082986305   -0.1048381797
C        0.7807460293   -0.0517599488   -1.5315236898
C        2.3351630230   -0.5068478538    0.4176359725
C        1.3121297191    1.3875981888   -1.6171322273
C        2.8627104442    0.9334239641    0.3280546150
C        2.7468307121    1.4654553919   -1.0991696588
N        5.2088536178    2.2801122641   -2.0080748799
O        3.1358717709    2.8652340433   -1.1167716975
H        6.0700617405    6.0565989109   -2.2936152817
H        7.7282656900    4.2963945145   -3.0322020156
H        3.8527151210    5.3059573104   -1.3754525094
H        7.0744503249    1.8968662055   -2.8057465808
H        0.5528289770   -1.6494970214   -0.0758318262
H        0.2295760220   -0.0387343076    0.5586348338
H        1.3534763792   -0.6919392426   -2.2165038283
H       -0.2603953970   -0.0834483011   -1.8722840324
H        2.3919053313   -0.8596754580    1.4536745004
H        2.9831658940   -1.1679480257   -0.1738125886
H        1.2764705108    1.7553776967   -2.6486320018
H        0.6829940344    2.0549442524   -1.0144051737
H        2.2830576586    1.5875771530    0.9916947508
H        3.9083327131    0.9854619310    0.6505641685
H        3.4167998910    0.9095682720   -1.7574250616
28   
torsion grid (120,)
C        5.8624639148    5.0030066206   -2.1454895319
C        6.6620256418    4.0685424404   -2.8255880845
C        4.7030643187    4.5755358940   -1.5158368559
C        6.2424800494    2.7426491092   -2.8323396307
C        4.3753701285    3.2045720501   -1.5879850111
C        0.8481054594   -0.5966324333   -0.1561894884
C        0.9293696957   -0.0951715597   -1.6054398826
C        2.2061499825   -0.4769480474    0.5507393116
C        1.4740352974    1.3401457767   -1.6723942618
C        2.7497189961    0.9586541822    0.4818672445
C        2.8242014503    1.4384002934   -0.9659578679
N        5.1214371024    2.3081013493   -2.2282070848
O        3.2341867521    2.8327037547   -0.9596964439
H        6.1458134932    6.0520426094   -2.1101523652
H        7.5768399817    4.3617249219   -3.3310274984
H        4.0489715780    5.2529711466   -0.9764639055
H        6.8264834286    1.9797557478   -3.3453898349
H        0.5003963760   -1.6361128529   -0.1342597589
H        0.1027414252   -0.0026097520    0.3903921335
H        1.5867762047   -0.7604414871   -2.1817537021
H       -0.0563862911   -0.1410546686   -2.0821459593
H        2.1220111004   -0.7924022284    1.5969299955
H        2.9228734818   -1.1600735414    0.0747601360
H        1.5826676434    1.6678868283   -2.7121928916
H        0.7718388411    2.0298026257   -1.1865958175
H        2.0922932536    1.6348836616    1.0433109722
H        3.7439576848    1.0215371783    0.9379040412
H        3.5714479819    0.8601122853   -1.5114533722
28   
torsion grid (135,)
C        5.9078434240    4.9677801537   -2.1000292728
C        6.5222816974    4.0845339601   -3.0039518062
C        4.8265782156    4.5298789388   -1.3496568439
C        6.0052432371    2.7971590041   -3.1027582664
C        4.3875709252    3.2014496673   -1.5324666377
C        0.8319862601   -0.5889951887   -0.2291780272
C        1.1068606928   -0.1325685589   -1.6695120058
C        2.0830417186   -0.4435125376    0.6498817037
C        1.6556146353    1.3022199580   -1.7070860276
C        2.6323643855    0.9913067027    0.6132728076
C        2.8957395993    1.4276254158   -0.8252995837
N        4.9549115110    2.3542339013   -2.3878010084
O        3.3237240701    2.8152917783   -0.7881157182
H        6.2742383107    5.9848452052   -1.9846140542
H        7.3708509839    4.3875748385   -3.6093018125
H        4.3166308445    5.1673249726   -0.6345949582
H        6.4445353044    2.0754451785   -3.7900655372
H        0.4833282706   -1.6283670992   -0.2210711540
H        0.0208280833    0.0194211393    0.1939872467
H        1.8359870713   -0.8118448407   -2.1318491423
H        0.1939572889   -0.1978483133   -2.2723619005
H        1.8589882116   -0.7285315162    1.6841198587
H        2.8566561992   -1.1381065435    0.2947943496
H        1.9092186592    1.5964109755   -2.7310522957
H        0.8942645874    2.0041495205   -1.3432106961
H        1.9076228648    1.6801756215    1.0660038816
H        3.5585516551    1.0704108397    1.1930318545
H        3.7038656108    0.8299709866   -1.2522323615
28   
torsion grid (150,)
C        5.8734012502    4.9600683199   -2.1272035696
C        6.3691661098    4.1118352657   -3.1318677852
C        4.8884791253    4.4940335949   -1.2688604344
C        5.8382130183    2.8290791362   -3.2163585449
C        4.4244269619    3.1739683848   -1.4480612098
C        0.8188900885   -0.5726462070   -0.3065611307
C        1.2561898866   -0.1305295319   -1.7105613493
C        1.9741757675   -0.4535032140    0.6984510808
C        1.8443456957    1.2888756266   -1.6945407401
C        2.5630046507    0.9656419838    0.7137970771
C        2.9908207976    1.3847371935   -0.6894158279
N        4.8803691036    2.3586956682   -2.3966187811
O        3.4627765304    2.7544112075   -0.5916311610
H        6.2559908190    5.9719010140   -2.0186503803
H        7.1391326859    4.4379480993   -3.8240804565
H        4.4717680593    5.1036609910   -0.4735986448
H        6.1881627049    2.1343489328   -3.9786723425
H        0.4452019364   -1.6030316829   -0.3322395384
H       -0.0165230409    0.0581390150    0.0271750431
H        2.0112256370   -0.8310537027   -2.0926875540
H        0.4106049794   -0.1740670849   -2.4063762598
H        1.6358587992   -0.7248840124    1.7048978946
H        2.7616939500   -1.1708746357    0.4295518283
H        2.2081053603    1.5701488185   -2.6873428641
H        1.0696611086    2.0118435169   -1.4077884268
H        1.8125977945    1.6770240137    1.0818933791
H        3.4225822970    1.0250471130    1.3902396302
H        3.8216280457    0.7597563933   -1.0283389778
28   
torsion grid (165,)
C        5.7731423236    4.9867796699   -2.1746206779
C        6.2202727891    4.1636410569   -3.2217189462
C        4.8930744783    4.4718520978   -1.2338459233
C        5.7512112478    2.8546156182   -3.2619076414
C        4.4843206978    3.1294568169   -1.3748713604
C        0.7745546276   -0.5050229471   -0.3782371650
C        1.3421975789   -0.0814042679   -1.7401598240
C        1.8529069099   -0.4477545665    0.7133541485
C        2.0073052102    1.3020642993   -1.6685839217
C        2.5176674047    0.9357019492    0.7745105583
C        3.0889089688    1.3224713210   -0.5866393309
N        4.8980629219    2.3354616288   -2.3604882560
O        3.6437810385    2.6543397407   -0.4247445412
H        6.1099273682    6.0176690615   -2.0984807033
H        6.9075388843    4.5278296275   -3.9789731033
H        4.5160633785    5.0611837367   -0.4041987427
H        6.0684065723    2.1775160936   -4.0538492154
H        0.3508194609   -1.5143542033   -0.4395264824
H       -0.0501970388    0.1678854497   -0.1059343302
H        2.0830798002   -0.8216830451   -2.0717682723
H        0.5509384627   -0.0722910703   -2.4983721003
H        1.4221172522   -0.6945856991    1.6903615069
H        2.6172903166   -1.2095680656    0.5075012908
H        2.4454612618    1.5678788067   -2.6335799823
H        1.2572694575    2.0645312057   -1.4204628217
H        1.7805877160    1.6921718914    1.0721498179
H        3.3163352074    0.9517319550    1.5241951610
H        3.9005601856    0.6434855045   -0.8669990489
28   
torsion grid (180,)
C        5.6425762649    5.0090394449   -2.2044052893
C        6.0763903771    4.2298040299   -3.2889997294
C        4.8792849641    4.4187007450   -1.2065212740
C        5.7168256709    2.8853635625   -3.3067853880
C        4.5740719624    3.0482236096   -1.3291547759
C        0.7336727323   -0.4185431211   -0.4177514077
C        1.4108311445   -0.0609909102   -1.7474739616
C        1.7503527648   -0.4253149150    0.7321004056
C        2.1821752715    1.2654543545   -1.6562717482
C        2.5192461892    0.9016907434    0.8058973590
C        3.2094859096    1.2137559301   -0.5203611701
N        4.9826911633    2.2932847268   -2.3481065615
O        3.8655548600    2.4943169783   -0.3156312530
H        5.8961297846    6.0645323249   -2.1442504755
H        6.6723204581    4.6526160897   -4.0918521450
H        4.5147701799    4.9723539799   -0.3473052479
H        6.0307867189    2.2399485113   -4.1260718638
H        0.2371257109   -1.3931815186   -0.4923603732
H       -0.0503552620    0.3201610196   -0.2016046162
H        2.1061720059   -0.8635515620   -2.0292094132
H        0.6679522422    0.0016806624   -2.5507792753
H        1.2479244939   -0.6146158898    1.6874875349
H        2.4607032654   -1.2501714985    0.5838487381
H        2.6790721372    1.4787932007   -2.6040684230
H        1.4847897304    2.0886264903   -1.4511308042
H        1.8290858052    1.7229868153    1.0352750509
H        3.2646125400    0.8748234309    1.6084914941
H        3.9769630839    0.4656275182   -0.7480047800
