53
1 1 C21H28N3O
C                    -0.686985326874     2.004552537518    -5.038143502246
C                     1.040360533473     2.618868212345     1.308636890121
C                     1.159064036049     1.952559167327     0.064813862893
C                     0.469106426618     2.019977264735     2.435138593898
C                     0.159058614871     0.035834287883     1.054436985951
C                     0.711712571405     0.640630181110    -0.075620629929
C                    -0.363791530814    -1.280537289187     1.182822484109
C                     0.022552638409     0.700470021644     2.292472777742
C                    -0.811098369944    -1.416219728323     2.479143155660
C                    -0.209267541297    -2.216750455829     0.024399329288
C                     0.371204827276     0.709463684678    -2.587018221392
C                     0.207706442067    -1.479643601436    -3.787766514720
C                     0.726253773767    -0.176657720663    -1.363440450597
C                    -0.342631940829    -0.063416099500    -3.709262641591
C                    -0.261514122783    -1.366876562271    -1.263583493836
C                     1.691569617913    -5.616967907150    -3.313165429452
C                     0.495236689271    -4.004298367927     3.272506029678
C                    -0.188565848352     0.624643774618    -5.083263760071
C                    -1.426704496318    -2.613386947171     3.150283207604
C                     0.858849612193    -4.360532073400    -3.603180290663
C                     0.841779440190    -3.444752190439    -2.379755759005
N                    -1.088988013806     3.091421244221    -4.955218951493
N                    -0.574135614354    -0.214667863525     3.149880620165
N                    -0.109849637576    -2.269504856933    -2.526081798675
O                    -0.814195951081    -3.826915928491     2.733892795576
H                     1.400023053266     3.640573248853     1.386118345252
H                     1.595148031977     2.490591751151    -0.772479075319
H                     0.382441100995     2.566521362361     3.369958092979
H                     0.758323166884    -2.723151524803     0.107963179030
H                    -0.983414006381    -2.991282172506     0.008990017004
H                    -0.265181966450     1.536330016762    -2.266361163294
H                     1.289023735865     1.157967660245    -2.980635539785
H                    -0.202142720500    -2.042555705825    -4.627580072155
H                     1.295634947846    -1.463758130205    -3.884650135861
H                     1.734250495799    -0.593759833705    -1.500243189638
H                    -1.417151810478    -0.114171353771    -3.497004947423
H                    -1.275942914435    -0.967392012722    -1.346142975815
H                     2.725999889932    -5.359225500228    -3.064612073666
H                     1.273689360365    -6.190631939941    -2.480085128137
H                     1.712436869240    -6.267425316529    -4.190632109762
H                     0.858830201973    -4.966025744988     2.906054071020
H                     0.468274634128    -4.026801829898     4.370511260196
H                     1.177382616468    -3.205888730851     2.949135128589
H                    -0.741171401047     0.082374158828    -5.858210140011
H                     0.864508336944     0.647507156469    -5.386394712373
H                    -1.377600031523    -2.503866431361     4.244854141526
H                    -2.482779164025    -2.709345307252     2.877887370416
H                    -0.168719162901    -4.653447434278    -3.857111547439
H                     1.273070461159    -3.846180513718    -4.474563443923
H                     0.513011910530    -4.009938126968    -1.510009276772
H                     1.828472297362    -3.026264908421    -2.168704472457
H                    -0.817917913701    -0.040873139742     4.116026743354
H                    -1.036935904945    -2.681638218222    -2.665364389128
