
  -OEChem-05262117483D

 65 69  0     1  0  0  0  0  0999 V2000
    1.2038    3.3181   -9.3737 C   0  0  0  0  0  0  0  0  0  0  0  0
   -0.2051    1.6260  -10.4021 C   0  0  0  0  0  0  0  0  0  0  0  0
    0.7578    4.2418  -10.3143 C   0  0  0  0  0  0  0  0  0  0  0  0
   -0.6372    2.5566  -11.3461 C   0  0  0  0  0  0  0  0  0  0  0  0
   -1.4589    5.8662   -7.8928 C   0  0  0  0  0  0  0  0  0  0  0  0
   -1.8048    6.1727   -9.2008 C   0  0  0  0  0  0  0  0  0  0  0  0
   -2.7475    3.9416   -9.4432 C   0  0  0  0  0  0  0  0  0  0  0  0
   -2.3901    3.6129   -8.1385 C   0  0  0  0  0  0  0  0  0  0  0  0
    0.6939    2.0149   -9.4011 C   0  0  0  0  0  0  0  0  0  0  0  0
   -0.1834    3.8817  -11.2878 C   0  0  0  0  0  0  0  0  0  0  0  0
   -1.6775    4.5694   -7.3760 C   0  0  0  0  0  0  0  0  0  0  0  0
   -2.4335    5.1917   -9.9849 C   0  0  0  0  0  0  0  0  0  0  0  0
    2.2205    1.0940   -7.6107 C   0  0  0  0  0  0  0  0  0  0  0  0
   -0.5171    2.6959   -4.3692 C   0  0  0  0  0  0  0  0  0  0  0  0
   -2.7068    2.2492   -7.5648 C   0  0  0  0  0  0  0  0  0  0  0  0
   -2.3725    2.1894   -6.0728 C   0  0  0  0  0  0  0  0  0  0  0  0
    1.7394    3.0854   -1.0012 C   0  0  0  0  0  0  0  0  0  0  0  0
    2.9262    4.0182   -1.3153 C   0  0  0  0  0  0  0  0  0  0  0  0
    1.9859    1.8037   -1.8416 C   0  0  0  0  0  0  0  0  0  0  0  0
    3.2360    3.6909   -2.7828 C   0  0  0  0  0  0  0  0  0  0  0  0
   -1.0458    2.8921   -5.8175 C   0  0  1  0  0  0  0  0  0  0  0  0
    3.1212    2.1541   -2.8503 C   0  0  0  0  0  0  0  0  0  0  0  0
    2.9177    1.6342   -4.2792 C   0  0  0  0  0  0  0  0  0  0  0  0
    2.6398    0.1272   -4.3472 C   0  0  0  0  0  0  0  0  0  0  0  0
    2.8600   -0.4893   -5.7317 C   0  0  0  0  0  0  0  0  0  0  0  0
    0.2179    0.0813   -8.0052 N   0  0  0  0  0  0  0  0  0  0  0  0
    0.7726   -0.5517   -7.0453 N   0  0  0  0  0  0  0  0  0  0  0  0
    1.0578    1.1021   -8.3836 N   0  0  0  0  0  0  0  0  0  0  0  0
    1.9698    0.0231   -6.7727 N   0  0  0  0  0  0  0  0  0  0  0  0
   -0.7581    4.8686  -12.1443 N   0  0  0  0  0  0  0  0  0  0  0  0
   -0.2667    3.7079   -3.6785 O   0  5  0  0  0  0  0  0  0  0  0  0
    3.2106    1.8140   -7.6767 O   0  0  0  0  0  0  0  0  0  0  0  0
   -0.3774    1.4656   -4.1018 O   0  0  0  0  0  0  0  0  0  0  0  0
   -2.4768    6.7322  -12.1847 O   0  0  0  0  0  0  0  0  0  0  0  0
   -3.2755    4.3053  -12.3236 O   0  0  0  0  0  0  0  0  0  0  0  0
   -1.1692    4.3082   -6.1607 O   0  0  0  0  0  0  0  0  0  0  0  0
   -2.4038    5.3316  -11.7471 S   0  0  0  0  0  0  0  0  0  0  0  0
    1.9059    3.6085   -8.6018 H   0  0  0  0  0  0  0  0  0  0  0  0
   -0.5833    0.6097  -10.4166 H   0  0  0  0  0  0  0  0  0  0  0  0
    1.0982    5.2720  -10.2470 H   0  0  0  0  0  0  0  0  0  0  0  0
   -1.3639    2.2811  -12.1035 H   0  0  0  0  0  0  0  0  0  0  0  0
   -0.9549    6.5890   -7.2579 H   0  0  0  0  0  0  0  0  0  0  0  0
   -1.5729    7.1451   -9.6262 H   0  0  0  0  0  0  0  0  0  0  0  0
   -3.2441    3.2041  -10.0661 H   0  0  0  0  0  0  0  0  0  0  0  0
   -3.7628    2.0138   -7.7457 H   0  0  0  0  0  0  0  0  0  0  0  0
   -2.1211    1.4912   -8.0992 H   0  0  0  0  0  0  0  0  0  0  0  0
   -3.1468    2.6883   -5.4776 H   0  0  0  0  0  0  0  0  0  0  0  0
   -2.2822    1.1610   -5.7215 H   0  0  0  0  0  0  0  0  0  0  0  0
    1.6376    2.8809    0.0718 H   0  0  0  0  0  0  0  0  0  0  0  0
    0.8143    3.5507   -1.3531 H   0  0  0  0  0  0  0  0  0  0  0  0
    2.6907    5.0765   -1.1524 H   0  0  0  0  0  0  0  0  0  0  0  0
    3.7932    3.7706   -0.6846 H   0  0  0  0  0  0  0  0  0  0  0  0
    2.2829    0.9556   -1.2116 H   0  0  0  0  0  0  0  0  0  0  0  0
    1.0717    1.5301   -2.3733 H   0  0  0  0  0  0  0  0  0  0  0  0
    2.4613    4.1341   -3.4190 H   0  0  0  0  0  0  0  0  0  0  0  0
    4.2138    4.0580   -3.1200 H   0  0  0  0  0  0  0  0  0  0  0  0
   -0.2838    2.4826   -6.4923 H   0  0  0  0  0  0  0  0  0  0  0  0
    4.0652    1.7297   -2.4712 H   0  0  0  0  0  0  0  0  0  0  0  0
    2.0743    2.1641   -4.7289 H   0  0  0  0  0  0  0  0  0  0  0  0
    3.8049    1.8782   -4.8794 H   0  0  0  0  0  0  0  0  0  0  0  0
    3.3138   -0.4116   -3.6655 H   0  0  0  0  0  0  0  0  0  0  0  0
    1.6129   -0.0619   -4.0221 H   0  0  0  0  0  0  0  0  0  0  0  0
    2.7061   -1.5716   -5.7086 H   0  0  0  0  0  0  0  0  0  0  0  0
    3.8754   -0.2894   -6.0879 H   0  0  0  0  0  0  0  0  0  0  0  0
   -0.2242    5.7370  -12.1309 H   0  0  0  0  0  0  0  0  0  0  0  0
  1  3  1  0  0  0  0
  1  9  2  0  0  0  0
  1 38  1  0  0  0  0
  2  4  2  0  0  0  0
  2  9  1  0  0  0  0
  2 39  1  0  0  0  0
  3 10  2  0  0  0  0
  3 40  1  0  0  0  0
  4 10  1  0  0  0  0
  4 41  1  0  0  0  0
  5  6  2  0  0  0  0
  5 11  1  0  0  0  0
  5 42  1  0  0  0  0
  6 12  1  0  0  0  0
  6 43  1  0  0  0  0
  7  8  1  0  0  0  0
  7 12  2  0  0  0  0
  7 44  1  0  0  0  0
  8 11  2  0  0  0  0
  8 15  1  0  0  0  0
  9 28  1  0  0  0  0
 10 30  1  0  0  0  0
 11 36  1  0  0  0  0
 12 37  1  0  0  0  0
 13 28  1  0  0  0  0
 13 29  1  0  0  0  0
 13 32  2  0  0  0  0
 14 21  1  0  0  0  0
 14 31  1  0  0  0  0
 14 33  2  0  0  0  0
 15 16  1  0  0  0  0
 15 45  1  0  0  0  0
 15 46  1  0  0  0  0
 16 21  1  0  0  0  0
 16 47  1  0  0  0  0
 16 48  1  0  0  0  0
 17 18  1  0  0  0  0
 17 19  1  0  0  0  0
 17 49  1  0  0  0  0
 17 50  1  0  0  0  0
 18 20  1  0  0  0  0
 18 51  1  0  0  0  0
 18 52  1  0  0  0  0
 19 22  1  0  0  0  0
 19 53  1  0  0  0  0
 19 54  1  0  0  0  0
 20 22  1  0  0  0  0
 20 55  1  0  0  0  0
 20 56  1  0  0  0  0
 21 36  1  0  0  0  0
 21 57  1  0  0  0  0
 22 23  1  0  0  0  0
 22 58  1  0  0  0  0
 23 24  1  0  0  0  0
 23 59  1  0  0  0  0
 23 60  1  0  0  0  0
 24 25  1  0  0  0  0
 24 61  1  0  0  0  0
 24 62  1  0  0  0  0
 25 29  1  0  0  0  0
 25 63  1  0  0  0  0
 25 64  1  0  0  0  0
 26 27  2  0  0  0  0
 26 28  1  0  0  0  0
 27 29  1  0  0  0  0
 30 37  1  0  0  0  0
 30 65  1  0  0  0  0
 34 37  2  0  0  0  0
 35 37  2  0  0  0  0
M  CHG  1  31  -1
M  END
$$$$
