66
0 1 C24F3H30N5O3S
C                    -9.482013276214    -1.895317978489     7.056277822676
C                    -7.126716093178    -1.482879154947     6.580050940973
C                    -5.771691285348    -1.718834166625     6.793956445350
C                    -6.335352720543    -3.381131632740     8.468817144666
C                    -8.098023779130    -2.185842738984     7.309982448728
C                    -7.689799920864    -3.139795846640     8.264532198398
C                    -5.379414383413    -2.674803942172     7.733037149211
C                    -3.440366988854    -2.896235627093     9.257532922006
C                    -3.028043520652    -3.227948091432     6.994006481652
C                    -1.985923229532     0.918292067100     0.719262009288
C                    -1.728657346688    -0.829657466698     2.417344549805
C                    -0.509494130937     1.268641745332     2.734860422564
C                    -0.490382054582    -1.595813387651     2.869049851701
C                     0.708966633816     0.458740056732     3.180943343599
C                    -1.951421870249    -3.199284498718     9.093308929005
C                    -1.613015901583    -4.493010074644     9.851690527636
C                    -1.122390764157    -2.011087542688     9.601925493624
C                    -2.001947667990     3.939064047282    -1.394759729726
C                    -1.610337190667     2.335418815745     0.261899226207
C                    -0.015906341980    -2.388913720980     6.267192383304
C                     1.038720380460    -2.730233551039     5.210961211437
C                    -0.595323626447    -3.641293644249     6.935913010582
C                     1.443941920070    -1.515054134792     4.366001268041
C                    -8.716856272498    -3.909902297726     9.065340034842
N                   -10.589603186627    -1.624998548007     6.819737599213
N                    -4.000236541244    -2.921489921542     7.981066370846
N                    -1.848229287275    -3.372011125928     7.638448791887
N                    -1.354915739115     0.468028688435     1.856416378405
N                     0.298083506605    -0.793149160510     3.809964403310
O                    -4.023743476668    -2.677540476282    10.301059332227
O                    -2.787871596326     0.234605054154     0.094364981040
O                    -2.294402993952     2.633439260303    -0.926850651216
F                    -8.133976353995    -4.785051250646     9.917302289219
F                    -9.491615270787    -3.084472046756     9.806457703235
F                    -9.541248134902    -4.622129758556     8.262196897033
S                    -3.319954894776    -3.401977357138     5.367917500502
H                    -7.443676737333    -0.746573411350     5.849051098514
H                    -5.025731581977    -1.171319907250     6.230971213962
H                    -6.021528620843    -4.111724548507     9.203174791155
H                    -2.272909683650    -1.384275316280     1.653991230736
H                    -2.394736723505    -0.683106574339     3.279008336988
H                    -1.080770801909     1.575707320699     3.623288543117
H                    -0.167546003484     2.169481923740     2.226208852873
H                    -0.826388892529    -2.510610673200     3.362092656924
H                     0.111119625839    -1.883553072611     1.985671362347
H                     1.361824174059     0.281222264349     2.303863518289
H                     1.279401442055     1.048862220455     3.906750936309
H                    -0.545598071652    -4.718034550028     9.774845064136
H                    -2.178252983089    -5.339005067497     9.450736675228
H                    -1.866212581014    -4.369000580970    10.907369831174
H                    -0.053983192922    -2.219662745565     9.496436419141
H                    -1.343204502391    -1.842458297578    10.658774347590
H                    -1.357882243057    -1.101098393026     9.043579643510
H                    -2.573055563182     4.081241041281    -2.314536890334
H                    -0.929684479847     4.061331621872    -1.614735251258
H                    -2.299153576525     4.708035577295    -0.664464634893
H                    -0.519195187484     2.399599623941     0.110547833988
H                    -1.871131960534     3.057995109529     1.054565692432
H                    -0.829456448151    -1.845400104819     5.784269880564
H                     0.407299708477    -1.716633657279     7.022965492835
H                     1.944412071411    -3.136471571278     5.678640272489
H                     0.654493121166    -3.524149468160     4.560650971533
H                     0.104428846774    -4.073071979219     7.656262156240
H                    -0.802400654557    -4.403600668845     6.179743198063
H                     1.995513169447    -0.808220005759     4.997893907887
H                     2.141798123799    -1.844864037722     3.572369524375
