53
1 1 C21H28N3O
C                     1.724802719341     1.610788568244    -4.717825212815
C                     0.303941884627     2.227360416568     3.054333192648
C                     0.185787588619     2.188340741174     1.640684339509
C                     0.444770476884     1.075969629995     3.832473463976
C                     0.330048053841    -0.188954454928     1.756056205867
C                     0.205088205523     0.966938820067     0.978125224126
C                     0.362625478247    -1.548042624056     1.319317548936
C                     0.449274600463    -0.154902404140     3.159535003282
C                     0.498539437704    -2.317674307931     2.458599522655
C                     0.169017650599    -1.862946700357    -0.145331906195
C                    -0.308818189122     1.777395118135    -1.444355493227
C                     0.110011327673    -0.111947804050    -3.103088305232
C                     0.201898907392     0.681883333590    -0.511358808550
C                     0.018203489668     1.414969044444    -2.916523000742
C                    -0.578342620804    -0.647029764540    -0.734549288016
C                    -2.516559656944    -3.624421691445    -4.345812522442
C                     1.266229517476    -5.446385839380     4.203970725163
C                     1.337572659841     2.073855447731    -3.378721738555
C                     0.540647809350    -3.801398394839     2.661504893351
C                    -2.088075132604    -2.194472746147    -3.989256278168
C                    -1.293133331375    -2.181689671566    -2.684644336370
N                     1.970959923676     1.172218518947    -5.765740306607
N                     0.541866377464    -1.476904008682     3.563683868935
N                    -0.927628494089    -0.780850552956    -2.237095642087
O                     1.243294283943    -4.060941771729     3.864607930015
H                     0.289741451221     3.193438334107     3.550096947712
H                     0.090315034386     3.125665920806     1.099512210795
H                     0.540324974209     1.146178496884     4.912260250279
H                     1.127223374490    -2.001580863515    -0.665441675944
H                    -0.408030798544    -2.781622574396    -0.275029747961
H                    -1.387154310186     1.922844247666    -1.305340433605
H                     0.153688244073     2.734168115895    -1.190113117294
H                    -0.065296398424    -0.394744883902    -4.138718999879
H                     1.078417116928    -0.517028116846    -2.804567438954
H                     1.249050250299     0.483130686347    -0.780780029510
H                    -0.779052123039     1.786324237425    -3.569601467179
H                    -1.552703780972    -0.570119392163    -0.243059903661
H                    -1.647913487594    -4.274807000429    -4.488453604855
H                    -3.145987135337    -4.060642860690    -3.563730261902
H                    -3.089371105872    -3.625690176845    -5.275962879322
H                     1.820627880226    -5.533462272194     5.139220339480
H                     1.773083779105    -6.033894904870     3.426531407259
H                     0.248684253061    -5.836206216035     4.345168519068
H                     2.149970890102     1.843248438530    -2.680280413001
H                     1.222676365042     3.161418016885    -3.394429776667
H                    -0.483429872558    -4.207587963612     2.729420046913
H                     1.031138863854    -4.285398164794     1.802984032501
H                    -2.979128421922    -1.562152774538    -3.878587701815
H                    -1.498563348334    -1.779763064442    -4.812098032352
H                    -1.892499506580    -2.614194545680    -1.881215368782
H                    -0.362760243807    -2.746664725685    -2.764895997156
H                     0.756616697382    -1.821543261549     4.491490558159
H                    -1.783686659454    -0.231707819510    -2.358381465949
