67
1 1 C24F3H31N5O3S
C                   -10.638810740434    -3.500850996806    -3.478779565694
C                    -9.808693132985    -2.701482204869    -1.329219137187
C                    -8.971118132736    -2.808945284976    -0.221191105086
C                    -8.076703943701    -4.884271998814    -1.111153500876
C                    -9.773997496873    -3.670328274855    -2.344039149550
C                    -8.898909177078    -4.770145905569    -2.226261474255
C                    -8.103091174807    -3.895858474315    -0.125150653745
C                    -7.736493988756    -4.040931993862     2.340998920639
C                    -5.864218698524    -4.117239580479     0.993407174040
C                    -0.009782338166    -6.403854646963    -2.558262657679
C                    -1.849948044272    -4.692275409936    -2.438972869089
C                    -1.638293956088    -6.406823548077    -0.750355641962
C                    -1.432533526171    -3.606938232041    -1.438414695855
C                    -1.169066040967    -5.392227218921     0.289874507539
C                    -6.521075066904    -4.230272076100     3.250405631404
C                    -6.643375117100    -5.574793473021     3.983793555363
C                    -6.403449725853    -3.051437942418     4.225150508551
C                     2.056749106466    -6.042874269536    -5.584442384445
C                     0.427581202966    -5.837388472008    -3.910992027064
C                    -3.281694080669    -2.989664959324     2.578248754866
C                    -1.755700646408    -3.114451549731     2.395595906207
C                    -4.013521921417    -4.347515467623     2.599828622685
C                    -1.264586665658    -2.963612999023     0.954236339175
C                    -8.841190680979    -5.829100472076    -3.309036995234
N                   -11.348968075892    -3.322899670702    -4.383413526652
N                    -7.252956481553    -4.017742289593     1.018653710751
N                    -5.424145965869    -4.242833033838     2.258502177910
N                    -1.255530004077    -5.972498219691    -2.086969681411
N                    -1.735804874479    -4.024157806549    -0.014862561099
O                    -8.891487985292    -3.934286598381     2.678375502045
O                     0.652365966365    -7.212080082080    -1.931121489425
O                     1.593624800668    -6.489157097846    -4.312562169836
F                    -7.961058757313    -6.809557605541    -2.992024063080
F                   -10.041513447036    -6.409499390852    -3.502496150545
F                    -8.443389930980    -5.300009506707    -4.487705321820
S                    -4.934590904140    -4.068928765081    -0.410031792206
H                   -10.490686143844    -1.862788571623    -1.419869812802
H                    -8.999653691023    -2.058628643374     0.561431948105
H                    -7.414283372203    -5.734878517052    -1.014072618346
H                    -2.940080356170    -4.794408707137    -2.452839391675
H                    -1.552455385189    -4.374191227312    -3.437458948410
H                    -1.167927934248    -7.366983158275    -0.540924172148
H                    -2.726237760380    -6.527045286529    -0.710799820093
H                    -0.357308766018    -3.416963422906    -1.492775499051
H                    -1.973029578081    -2.674949587616    -1.618500680494
H                    -1.490259451918    -5.671550419722     1.293215507304
H                    -0.079787440079    -5.306227312474     0.276746933301
H                    -5.796908479183    -5.726900768426     4.659287809691
H                    -6.686983404507    -6.408002417317     3.277131308379
H                    -7.559755198145    -5.573874032909     4.578321817879
H                    -5.549927039009    -3.189833928205     4.894980926275
H                    -7.310180816097    -2.999156429944     4.832087860238
H                    -6.287077883903    -2.104122860151     3.691548688469
H                     2.961953536333    -6.610690095092    -5.802153953575
H                     2.296743142580    -4.969568210698    -5.568489263200
H                     1.311734587677    -6.232142500092    -6.370106820153
H                     0.596693544535    -4.748217680393    -3.813617303012
H                    -0.390361386268    -5.971779427702    -4.639878499788
H                    -3.700645107135    -2.370301881134     1.779630722513
H                    -3.493459819952    -2.465946492046     3.513653767363
H                    -1.261623648994    -2.303774605934     2.940421664887
H                    -1.376305558230    -4.036442978292     2.849034268760
H                    -3.941359326974    -4.800141622534     3.591000456934
H                    -3.564855218567    -5.058437178395     1.901423614562
H                    -0.172314255285    -2.972831535913     0.912880309353
H                    -1.611534734570    -2.010348504379     0.547654480751
H                    -2.786052427954    -4.081850473508     0.041166071079
