
  -OEChem-05262117483D

 53 56  0     1  0  0  0  0  0999 V2000
    1.7248    1.6108   -4.7178 C   0  0  0  0  0  0  0  0  0  0  0  0
    0.3039    2.2274    3.0543 C   0  0  0  0  0  0  0  0  0  0  0  0
    0.1858    2.1883    1.6407 C   0  0  0  0  0  0  0  0  0  0  0  0
    0.4448    1.0760    3.8325 C   0  0  0  0  0  0  0  0  0  0  0  0
    0.3300   -0.1890    1.7561 C   0  0  0  0  0  0  0  0  0  0  0  0
    0.2051    0.9669    0.9781 C   0  0  0  0  0  0  0  0  0  0  0  0
    0.3626   -1.5480    1.3193 C   0  0  0  0  0  0  0  0  0  0  0  0
    0.4493   -0.1549    3.1595 C   0  0  0  0  0  0  0  0  0  0  0  0
    0.4985   -2.3177    2.4586 C   0  0  0  0  0  0  0  0  0  0  0  0
    0.1690   -1.8629   -0.1453 C   0  0  0  0  0  0  0  0  0  0  0  0
   -0.3088    1.7774   -1.4444 C   0  0  0  0  0  0  0  0  0  0  0  0
    0.1100   -0.1119   -3.1031 C   0  0  0  0  0  0  0  0  0  0  0  0
    0.2019    0.6819   -0.5114 C   0  0  2  0  0  0  0  0  0  0  0  0
    0.0182    1.4150   -2.9165 C   0  0  2  0  0  0  0  0  0  0  0  0
   -0.5783   -0.6470   -0.7345 C   0  0  1  0  0  0  0  0  0  0  0  0
   -2.5166   -3.6244   -4.3458 C   0  0  0  0  0  0  0  0  0  0  0  0
    1.2662   -5.4464    4.2040 C   0  0  0  0  0  0  0  0  0  0  0  0
    1.3376    2.0739   -3.3787 C   0  0  0  0  0  0  0  0  0  0  0  0
    0.5406   -3.8014    2.6615 C   0  0  0  0  0  0  0  0  0  0  0  0
   -2.0881   -2.1945   -3.9893 C   0  0  0  0  0  0  0  0  0  0  0  0
   -1.2931   -2.1817   -2.6846 C   0  0  0  0  0  0  0  0  0  0  0  0
    1.9710    1.1722   -5.7657 N   0  0  0  0  0  0  0  0  0  0  0  0
    0.5419   -1.4769    3.5637 N   0  0  0  0  0  0  0  0  0  0  0  0
   -0.9276   -0.7809   -2.2371 N   0  3  2  0  0  0  0  0  0  0  0  0
    1.2433   -4.0609    3.8646 O   0  0  0  0  0  0  0  0  0  0  0  0
    0.2897    3.1934    3.5501 H   0  0  0  0  0  0  0  0  0  0  0  0
    0.0903    3.1257    1.0995 H   0  0  0  0  0  0  0  0  0  0  0  0
    0.5403    1.1462    4.9123 H   0  0  0  0  0  0  0  0  0  0  0  0
    1.1272   -2.0016   -0.6654 H   0  0  0  0  0  0  0  0  0  0  0  0
   -0.4080   -2.7816   -0.2750 H   0  0  0  0  0  0  0  0  0  0  0  0
   -1.3872    1.9228   -1.3053 H   0  0  0  0  0  0  0  0  0  0  0  0
    0.1537    2.7342   -1.1901 H   0  0  0  0  0  0  0  0  0  0  0  0
   -0.0653   -0.3947   -4.1387 H   0  0  0  0  0  0  0  0  0  0  0  0
    1.0784   -0.5170   -2.8046 H   0  0  0  0  0  0  0  0  0  0  0  0
    1.2491    0.4831   -0.7808 H   0  0  0  0  0  0  0  0  0  0  0  0
   -0.7791    1.7863   -3.5696 H   0  0  0  0  0  0  0  0  0  0  0  0
   -1.5527   -0.5701   -0.2431 H   0  0  0  0  0  0  0  0  0  0  0  0
   -1.6479   -4.2748   -4.4885 H   0  0  0  0  0  0  0  0  0  0  0  0
   -3.1460   -4.0606   -3.5637 H   0  0  0  0  0  0  0  0  0  0  0  0
   -3.0894   -3.6257   -5.2760 H   0  0  0  0  0  0  0  0  0  0  0  0
    1.8206   -5.5335    5.1392 H   0  0  0  0  0  0  0  0  0  0  0  0
    1.7731   -6.0339    3.4265 H   0  0  0  0  0  0  0  0  0  0  0  0
    0.2487   -5.8362    4.3452 H   0  0  0  0  0  0  0  0  0  0  0  0
    2.1500    1.8432   -2.6803 H   0  0  0  0  0  0  0  0  0  0  0  0
    1.2227    3.1614   -3.3944 H   0  0  0  0  0  0  0  0  0  0  0  0
   -0.4834   -4.2076    2.7294 H   0  0  0  0  0  0  0  0  0  0  0  0
    1.0311   -4.2854    1.8030 H   0  0  0  0  0  0  0  0  0  0  0  0
   -2.9791   -1.5622   -3.8786 H   0  0  0  0  0  0  0  0  0  0  0  0
   -1.4986   -1.7798   -4.8121 H   0  0  0  0  0  0  0  0  0  0  0  0
   -1.8925   -2.6142   -1.8812 H   0  0  0  0  0  0  0  0  0  0  0  0
   -0.3628   -2.7467   -2.7649 H   0  0  0  0  0  0  0  0  0  0  0  0
    0.7566   -1.8215    4.4915 H   0  0  0  0  0  0  0  0  0  0  0  0
   -1.7837   -0.2317   -2.3584 H   0  0  0  0  0  0  0  0  0  0  0  0
  1 18  1  0  0  0  0
  1 22  3  0  0  0  0
  2  3  1  0  0  0  0
  2  4  2  0  0  0  0
  2 26  1  0  0  0  0
  3  6  2  0  0  0  0
  3 27  1  0  0  0  0
  4  8  1  0  0  0  0
  4 28  1  0  0  0  0
  5  6  1  0  0  0  0
  5  7  1  0  0  0  0
  5  8  2  0  0  0  0
  6 13  1  0  0  0  0
  7  9  2  0  0  0  0
  7 10  1  0  0  0  0
  8 23  1  0  0  0  0
  9 19  1  0  0  0  0
  9 23  1  0  0  0  0
 10 15  1  0  0  0  0
 10 29  1  0  0  0  0
 10 30  1  0  0  0  0
 11 13  1  0  0  0  0
 11 14  1  0  0  0  0
 11 31  1  0  0  0  0
 11 32  1  0  0  0  0
 12 14  1  0  0  0  0
 12 24  1  0  0  0  0
 12 33  1  0  0  0  0
 12 34  1  0  0  0  0
 13 15  1  0  0  0  0
 13 35  1  0  0  0  0
 14 18  1  0  0  0  0
 14 36  1  0  0  0  0
 15 24  1  0  0  0  0
 15 37  1  0  0  0  0
 16 20  1  0  0  0  0
 16 38  1  0  0  0  0
 16 39  1  0  0  0  0
 16 40  1  0  0  0  0
 17 25  1  0  0  0  0
 17 41  1  0  0  0  0
 17 42  1  0  0  0  0
 17 43  1  0  0  0  0
 18 44  1  0  0  0  0
 18 45  1  0  0  0  0
 19 25  1  0  0  0  0
 19 46  1  0  0  0  0
 19 47  1  0  0  0  0
 20 21  1  0  0  0  0
 20 48  1  0  0  0  0
 20 49  1  0  0  0  0
 21 24  1  0  0  0  0
 21 50  1  0  0  0  0
 21 51  1  0  0  0  0
 23 52  1  0  0  0  0
 24 53  1  0  0  0  0
M  CHG  1  24   1
M  END
$$$$
