
  -OEChem-05262117483D

 66 68  0     0  0  0  0  0  0999 V2000
  -10.0776   -2.2090    8.5110 C   0  0  0  0  0  0  0  0  0  0  0  0
   -8.0481   -3.2406    9.3813 C   0  0  0  0  0  0  0  0  0  0  0  0
   -6.6644   -3.3979    9.4054 C   0  0  0  0  0  0  0  0  0  0  0  0
   -6.4485   -1.6983    7.6874 C   0  0  0  0  0  0  0  0  0  0  0  0
   -8.6454   -2.3226    8.5049 C   0  0  0  0  0  0  0  0  0  0  0  0
   -7.8295   -1.5462    7.6549 C   0  0  0  0  0  0  0  0  0  0  0  0
   -5.8686   -2.6310    8.5537 C   0  0  0  0  0  0  0  0  0  0  0  0
   -3.7168   -2.7114    9.7765 C   0  0  0  0  0  0  0  0  0  0  0  0
   -3.6192   -3.0083    7.4724 C   0  0  0  0  0  0  0  0  0  0  0  0
    4.0685   -0.5731    0.1506 C   0  0  0  0  0  0  0  0  0  0  0  0
    3.9106   -0.1920    2.5675 C   0  0  0  0  0  0  0  0  0  0  0  0
    2.8453   -2.1943    1.6554 C   0  0  0  0  0  0  0  0  0  0  0  0
    2.6633    0.0583    3.4096 C   0  0  0  0  0  0  0  0  0  0  0  0
    1.6195   -1.9078    2.5247 C   0  0  0  0  0  0  0  0  0  0  0  0
   -2.2494   -2.8984    9.3911 C   0  0  0  0  0  0  0  0  0  0  0  0
   -1.7139   -4.1731   10.0648 C   0  0  0  0  0  0  0  0  0  0  0  0
   -1.4427   -1.6597    9.8054 C   0  0  0  0  0  0  0  0  0  0  0  0
    3.9735   -1.7418   -3.3449 C   0  0  0  0  0  0  0  0  0  0  0  0
    3.7126   -1.4809   -1.0356 C   0  0  0  0  0  0  0  0  0  0  0  0
   -0.7445   -1.9770    6.3399 C   0  0  0  0  0  0  0  0  0  0  0  0
    0.3840   -2.2623    5.3445 C   0  0  0  0  0  0  0  0  0  0  0  0
   -1.1943   -3.2535    7.0599 C   0  0  0  0  0  0  0  0  0  0  0  0
    0.8616   -0.9868    4.6445 C   0  0  0  0  0  0  0  0  0  0  0  0
   -8.4490   -0.5417    6.7082 C   0  0  0  0  0  0  0  0  0  0  0  0
  -11.2399   -2.1522    8.5509 N   0  0  0  0  0  0  0  0  0  0  0  0
   -4.4543   -2.7769    8.5963 N   0  0  0  0  0  0  0  0  0  0  0  0
   -2.3473   -3.0462    7.9320 N   0  0  0  0  0  0  0  0  0  0  0  0
    3.5684   -0.9599    1.3725 N   0  0  0  0  0  0  0  0  0  0  0  0
    2.0017   -1.2062    3.7512 N   0  0  0  0  0  0  0  0  0  0  0  0
   -4.1549   -2.5440   10.8980 O   0  0  0  0  0  0  0  0  0  0  0  0
    4.7471    0.4368    0.0052 O   0  0  0  0  0  0  0  0  0  0  0  0
    4.2667   -0.9460   -2.2089 O   0  0  0  0  0  0  0  0  0  0  0  0
   -7.5086    0.1283    6.0032 F   0  0  0  0  0  0  0  0  0  0  0  0
   -9.2698   -1.1410    5.8152 F   0  0  0  0  0  0  0  0  0  0  0  0
   -9.1833    0.3810    7.3733 F   0  0  0  0  0  0  0  0  0  0  0  0
   -4.1387   -3.2256    5.9117 S   0  0  0  0  0  0  0  0  0  0  0  0
   -8.6770   -3.8330   10.0375 H   0  0  0  0  0  0  0  0  0  0  0  0
   -6.2063   -4.1071   10.0852 H   0  0  0  0  0  0  0  0  0  0  0  0
   -5.8228   -1.1003    7.0386 H   0  0  0  0  0  0  0  0  0  0  0  0
    4.3625    0.7463    2.2476 H   0  0  0  0  0  0  0  0  0  0  0  0
    4.6461   -0.7512    3.1624 H   0  0  0  0  0  0  0  0  0  0  0  0
    3.5049   -2.8960    2.1857 H   0  0  0  0  0  0  0  0  0  0  0  0
    2.5195   -2.6719    0.7321 H   0  0  0  0  0  0  0  0  0  0  0  0
    2.9567    0.5613    4.3369 H   0  0  0  0  0  0  0  0  0  0  0  0
    1.9840    0.7358    2.8583 H   0  0  0  0  0  0  0  0  0  0  0  0
    0.8897   -1.3179    1.9362 H   0  0  0  0  0  0  0  0  0  0  0  0
    1.1483   -2.8606    2.7803 H   0  0  0  0  0  0  0  0  0  0  0  0
   -0.6539   -4.3160    9.8375 H   0  0  0  0  0  0  0  0  0  0  0  0
   -2.2659   -5.0545    9.7263 H   0  0  0  0  0  0  0  0  0  0  0  0
   -1.8260   -4.0816   11.1478 H   0  0  0  0  0  0  0  0  0  0  0  0
   -0.3877   -1.7879    9.5468 H   0  0  0  0  0  0  0  0  0  0  0  0
   -1.5228   -1.5217   10.8864 H   0  0  0  0  0  0  0  0  0  0  0  0
   -1.8191   -0.7618    9.3081 H   0  0  0  0  0  0  0  0  0  0  0  0
    4.4398   -1.2530   -4.2028 H   0  0  0  0  0  0  0  0  0  0  0  0
    2.8887   -1.8165   -3.5193 H   0  0  0  0  0  0  0  0  0  0  0  0
    4.3828   -2.7593   -3.2444 H   0  0  0  0  0  0  0  0  0  0  0  0
    2.6155   -1.5608   -1.1235 H   0  0  0  0  0  0  0  0  0  0  0  0
    4.0984   -2.4980   -0.8491 H   0  0  0  0  0  0  0  0  0  0  0  0
   -1.6065   -1.5534    5.8151 H   0  0  0  0  0  0  0  0  0  0  0  0
   -0.4180   -1.2356    7.0784 H   0  0  0  0  0  0  0  0  0  0  0  0
    1.2416   -2.7192    5.8537 H   0  0  0  0  0  0  0  0  0  0  0  0
    0.0257   -2.9926    4.6102 H   0  0  0  0  0  0  0  0  0  0  0  0
   -0.3825   -3.6537    7.6730 H   0  0  0  0  0  0  0  0  0  0  0  0
   -1.4646   -4.0186    6.3269 H   0  0  0  0  0  0  0  0  0  0  0  0
    0.0140   -0.5156    4.1105 H   0  0  0  0  0  0  0  0  0  0  0  0
    1.1819   -0.2718    5.4110 H   0  0  0  0  0  0  0  0  0  0  0  0
  1  5  1  0  0  0  0
  1 25  3  0  0  0  0
  2  3  1  0  0  0  0
  2  5  2  0  0  0  0
  2 37  1  0  0  0  0
  3  7  2  0  0  0  0
  3 38  1  0  0  0  0
  4  6  2  0  0  0  0
  4  7  1  0  0  0  0
  4 39  1  0  0  0  0
  5  6  1  0  0  0  0
  6 24  1  0  0  0  0
  7 26  1  0  0  0  0
  8 15  1  0  0  0  0
  8 26  1  0  0  0  0
  8 30  2  0  0  0  0
  9 26  1  0  0  0  0
  9 27  1  0  0  0  0
  9 36  2  0  0  0  0
 10 19  1  0  0  0  0
 10 28  1  0  0  0  0
 10 31  2  0  0  0  0
 11 13  1  0  0  0  0
 11 28  1  0  0  0  0
 11 40  1  0  0  0  0
 11 41  1  0  0  0  0
 12 14  1  0  0  0  0
 12 28  1  0  0  0  0
 12 42  1  0  0  0  0
 12 43  1  0  0  0  0
 13 29  1  0  0  0  0
 13 44  1  0  0  0  0
 13 45  1  0  0  0  0
 14 29  1  0  0  0  0
 14 46  1  0  0  0  0
 14 47  1  0  0  0  0
 15 16  1  0  0  0  0
 15 17  1  0  0  0  0
 15 27  1  0  0  0  0
 16 48  1  0  0  0  0
 16 49  1  0  0  0  0
 16 50  1  0  0  0  0
 17 51  1  0  0  0  0
 17 52  1  0  0  0  0
 17 53  1  0  0  0  0
 18 32  1  0  0  0  0
 18 54  1  0  0  0  0
 18 55  1  0  0  0  0
 18 56  1  0  0  0  0
 19 32  1  0  0  0  0
 19 57  1  0  0  0  0
 19 58  1  0  0  0  0
 20 21  1  0  0  0  0
 20 22  1  0  0  0  0
 20 59  1  0  0  0  0
 20 60  1  0  0  0  0
 21 23  1  0  0  0  0
 21 61  1  0  0  0  0
 21 62  1  0  0  0  0
 22 27  1  0  0  0  0
 22 63  1  0  0  0  0
 22 64  1  0  0  0  0
 23 29  1  0  0  0  0
 23 65  1  0  0  0  0
 23 66  1  0  0  0  0
 24 33  1  0  0  0  0
 24 34  1  0  0  0  0
 24 35  1  0  0  0  0
M  END
$$$$
