53
1 1 C21H28N3O
C                    -1.448056765018     0.679873656130    -5.587812322509
C                     0.954531821146     3.057612853080     1.826187590630
C                     0.985973461921     2.414985313755     0.566194384247
C                     0.378564189997     2.470368508489     2.957249770067
C                    -0.107202915423     0.542752415910     1.546067956960
C                     0.444254793692     1.139426957691     0.411654831629
C                    -0.707208977003    -0.745093741909     1.665406567440
C                    -0.159927164010     1.188557997766     2.799531550488
C                    -1.126459221430    -0.871857454794     2.970618130519
C                    -0.643704383197    -1.654928445910     0.475771905721
C                    -0.001286816099     1.306288481037    -2.079073547786
C                    -0.313568718777    -0.842360032258    -3.323640492338
C                     0.355867684179     0.363481993897    -0.897520295217
C                    -0.789492196727     0.597448659248    -3.192144395283
C                    -0.694636731914    -0.770736441847    -0.787529229739
C                     0.902448141572    -5.077175719141    -3.019893270840
C                    -2.749535834851    -4.134615177693     3.378088308142
C                    -0.655430029418     1.337546428527    -4.541183859603
C                    -1.793060943780    -2.002397939587     3.691457908119
C                     0.151281016941    -3.757955914527    -3.245723153938
C                     0.232595154440    -2.883393956719    -1.994734919107
N                    -2.078243803212     0.077934732455    -6.357142449459
N                    -0.796364123735     0.300348501486     3.656179579105
N                    -0.643372636712    -1.645152960589    -2.075882921420
O                    -2.122432148218    -3.014081714418     2.756345890460
H                     1.387917743564     4.049370703464     1.915580539018
H                     1.434529894824     2.939303111267    -0.273420668233
H                     0.358726728105     2.997641760722     3.906872938115
H                     0.298889835088    -2.211529249503     0.509796359918
H                    -1.461308801735    -2.380436032184     0.477173913115
H                    -0.588862203368     2.148055252724    -1.704422575636
H                     0.922559193374     1.725292541643    -2.490880311484
H                    -0.775414357805    -1.354903377536    -4.167273291040
H                     0.771278726777    -0.879038304875    -3.447627427187
H                     1.330866243589    -0.104246688103    -1.094166129232
H                    -1.856934374101     0.587578112533    -2.942820726814
H                    -1.686887526746    -0.312505966893    -0.819499650842
H                     1.959543433365    -4.899872635119    -2.797361246577
H                     0.471142181931    -5.647260630116    -2.191038978729
H                     0.851078158011    -5.698908558716    -3.916736991826
H                    -2.964288292645    -4.858053379442     2.589705600230
H                    -3.689435641533    -3.842314382059     3.865645318435
H                    -2.087400600997    -4.596696633961     4.122878577504
H                     0.391303729169     1.375677176168    -4.862509760653
H                    -0.994554483150     2.371711170006    -4.427541857672
H                    -1.122066066312    -2.403769148770     4.469876733039
H                    -2.701502408855    -1.641853133214     4.203132794217
H                    -0.900623030540    -3.970164437549    -3.478494238633
H                     0.574708491018    -3.244951354268    -4.113192570758
H                    -0.105436897610    -3.452364378155    -1.130938034464
H                     1.250862507617    -2.536752392540    -1.804133061437
H                    -1.010976905205     0.478419559226     4.628295334532
H                    -1.599604635443    -1.991274311820    -2.198215796479
