65
-1 1 C25H28N5O6S
C                    -1.510262816157    -3.888830799870    -9.341544450375
C                    -0.406512859007    -4.373813638205    -7.225432577799
C                    -1.633485661449    -5.254607054551    -9.597015305912
C                    -0.545435730667    -5.735671261556    -7.484236926964
C                    -3.211312400377    -7.050273735710    -4.774683092141
C                    -3.139211354536    -7.844967294617    -5.910735021083
C                    -3.934176381352    -5.964438448598    -7.240799360111
C                    -3.985942491098    -5.148762658739    -6.112303145093
C                    -0.893278336611    -3.457566031383    -8.161564483988
C                    -1.156786081618    -6.183872060915    -8.663181854478
C                    -3.587992830632    -5.698030674890    -4.872929842026
C                    -3.494852942460    -7.288102087631    -7.148069912368
C                    -1.777735400248    -1.108109520099    -7.993140612553
C                    -1.947263309972    -3.213128398978    -4.483606844324
C                    -4.394549727669    -3.696444297349    -6.228109016140
C                    -4.511553862301    -3.035694375348    -4.851520485689
C                    -1.494218274257    -0.507835996482    -1.817087647644
C                    -2.883185318021    -0.035660537838    -1.347580972551
C                    -1.148662983888     0.390826178487    -3.032010148355
C                    -3.580891113711     0.342672015419    -2.661564028905
C                    -3.388321722254    -3.537597035856    -3.948245536475
C                    -2.487107711897     1.052900567545    -3.488707623388
C                    -2.727013465378     0.953812685192    -4.998901651800
C                    -1.712493941002     1.751768886191    -5.826596818273
C                    -1.677724341792     1.331097356444    -7.299656746111
N                     0.347197898765    -1.548254628321    -7.321337972532
N                     0.137864877079    -0.314268402177    -7.079236578136
N                    -0.777127775404    -2.069662411558    -7.897936308831
N                    -1.128298080487    -0.004606868626    -7.475946868532
N                    -1.382076547927    -7.581662647824    -8.884916466894
O                    -1.054644084744    -4.061075045010    -4.255204773682
O                    -2.915364049732    -1.196038129310    -8.449407104499
O                    -1.855559751628    -2.099391640172    -5.077905967816
O                    -3.800876112807    -7.588571955910    -9.760048999445
O                    -2.886788358646    -9.562345710610    -8.410892788048
O                    -3.556871897705    -4.966639987435    -3.735974628752
S                    -3.019165133581    -8.116493608979    -8.639349993664
H                    -1.903324921821    -3.159575781678   -10.041871461878
H                    -0.024215551335    -4.029536056795    -6.269254666271
H                    -2.126908225406    -5.611518863577   -10.494901410751
H                    -0.240527018110    -6.449264613436    -6.722712412584
H                    -2.921149089084    -7.431825834867    -3.800509890427
H                    -2.794550648825    -8.873338461116    -5.855838494755
H                    -4.201125196423    -5.554817959379    -8.209919189344
H                    -3.648964475384    -3.159482090852    -6.820041357516
H                    -5.340205976967    -3.621946835466    -6.777840348107
H                    -4.442109296640    -1.951994656954    -4.951959166958
H                    -5.473464466971    -3.280714309063    -4.382905654116
H                    -0.740622771282    -0.458378856243    -1.023187267166
H                    -1.548336597871    -1.549875159444    -2.145582942088
H                    -3.424882618074    -0.797081465779    -0.774321114731
H                    -2.787601080936     0.852559314440    -0.707062379040
H                    -0.410863055519     1.155478288935    -2.762675876503
H                    -0.725907908834    -0.217689597693    -3.834954315533
H                    -3.891169593805    -0.568515106780    -3.184527540223
H                    -4.473405498351     0.964392832087    -2.520722784020
H                    -3.480102741558    -3.113307992487    -2.944322584656
H                    -2.475812535463     2.113829436015    -3.194631279460
H                    -2.668774407073    -0.104652799861    -5.268515085797
H                    -3.742064606471     1.301087436363    -5.242327216913
H                    -1.935460038747     2.826742271294    -5.783309709682
H                    -0.705379140418     1.623305016888    -5.417500299161
H                    -1.077110123303     2.029956954249    -7.893174126693
H                    -2.682124315116     1.290698253647    -7.730295767838
H                    -0.807764585268    -8.156875412973    -8.269203859482
