
  -OEChem-05262117483D

 49 51  0     1  0  0  0  0  0999 V2000
   -0.5363   -0.1928   -0.1308 C   0  0  0  0  0  0  0  0  0  0  0  0
    3.6450   -4.7429    4.9320 C   0  0  0  0  0  0  0  0  0  0  0  0
    2.6616   -4.7447    3.9399 C   0  0  0  0  0  0  0  0  0  0  0  0
   -0.3211   -1.0358    2.1651 C   0  0  0  0  0  0  0  0  0  0  0  0
   -0.1023   -2.5727    0.2823 C   0  0  0  0  0  0  0  0  0  0  0  0
   -0.3125   -1.2793    0.7823 C   0  0  0  0  0  0  0  0  0  0  0  0
    1.0246   -4.0979    5.6187 C   0  0  0  0  0  0  0  0  0  0  0  0
   -0.0990   -2.0764    3.0712 C   0  0  0  0  0  0  0  0  0  0  0  0
    3.3533   -4.4346    6.2648 C   0  0  0  0  0  0  0  0  0  0  0  0
    1.3616   -4.4196    4.3031 C   0  0  0  0  0  0  0  0  0  0  0  0
    0.1350   -3.3581    2.5610 C   0  0  0  0  0  0  0  0  0  0  0  0
    0.1161   -3.6153    1.1797 C   0  0  0  0  0  0  0  0  0  0  0  0
    2.0245   -4.1157    6.6058 C   0  0  0  0  0  0  0  0  0  0  0  0
   -0.4071   -3.7740    5.9376 C   0  0  0  0  0  0  0  0  0  0  0  0
   -0.1015   -1.7798    4.5538 C   0  0  0  0  0  0  0  0  0  0  0  0
    5.0822   -7.5269    7.1664 C   0  0  0  0  0  0  0  0  0  0  0  0
    3.6340   -7.7858    9.2201 C   0  0  0  0  0  0  0  0  0  0  0  0
    1.4925   -2.4748    8.2404 C   0  0  0  0  0  0  0  0  0  0  0  0
    4.2313   -5.4735    8.4342 C   0  0  0  0  0  0  0  0  0  0  0  0
    4.4607   -4.4627    7.2990 C   0  0  2  0  0  0  0  0  0  0  0  0
    3.9388   -6.9177    7.9912 C   0  0  0  0  0  0  0  0  0  0  0  0
   -0.7142    0.6922   -0.8677 N   0  0  0  0  0  0  0  0  0  0  0  0
   -1.0959   -4.4246    6.6845 O   0  0  0  0  0  0  0  0  0  0  0  0
    0.3306   -4.4809    3.3558 O   0  0  0  0  0  0  0  0  0  0  0  0
   -0.9354   -2.6756    5.3168 O   0  0  0  0  0  0  0  0  0  0  0  0
    0.3216   -4.8765    0.7109 O   0  0  0  0  0  0  0  0  0  0  0  0
    4.6022   -3.1242    7.8152 O   0  0  0  0  0  0  0  0  0  0  0  0
    1.6980   -3.8584    7.9103 O   0  0  0  0  0  0  0  0  0  0  0  0
    4.6691   -4.9848    4.6607 H   0  0  0  0  0  0  0  0  0  0  0  0
    2.8951   -4.9929    2.9089 H   0  0  0  0  0  0  0  0  0  0  0  0
   -0.5124   -0.0311    2.5292 H   0  0  0  0  0  0  0  0  0  0  0  0
   -0.1070   -2.7738   -0.7837 H   0  0  0  0  0  0  0  0  0  0  0  0
    0.9157   -1.7750    4.9549 H   0  0  0  0  0  0  0  0  0  0  0  0
   -0.5312   -0.7906    4.7198 H   0  0  0  0  0  0  0  0  0  0  0  0
    6.0241   -7.5079    7.7291 H   0  0  0  0  0  0  0  0  0  0  0  0
    4.8664   -8.5711    6.9161 H   0  0  0  0  0  0  0  0  0  0  0  0
    5.2437   -6.9937    6.2243 H   0  0  0  0  0  0  0  0  0  0  0  0
    4.5033   -7.8411    9.8871 H   0  0  0  0  0  0  0  0  0  0  0  0
    2.7945   -7.3793    9.7940 H   0  0  0  0  0  0  0  0  0  0  0  0
    3.3759   -8.8086    8.9249 H   0  0  0  0  0  0  0  0  0  0  0  0
    1.2565   -2.4531    9.3052 H   0  0  0  0  0  0  0  0  0  0  0  0
    0.6458   -2.0560    7.6837 H   0  0  0  0  0  0  0  0  0  0  0  0
    2.4056   -1.9055    8.0443 H   0  0  0  0  0  0  0  0  0  0  0  0
    3.4033   -5.1078    9.0461 H   0  0  0  0  0  0  0  0  0  0  0  0
    5.1333   -5.4752    9.0659 H   0  0  0  0  0  0  0  0  0  0  0  0
    5.3862   -4.7279    6.7716 H   0  0  0  0  0  0  0  0  0  0  0  0
    3.0380   -6.8995    7.3644 H   0  0  0  0  0  0  0  0  0  0  0  0
    0.3877   -5.4670    1.4845 H   0  0  0  0  0  0  0  0  0  0  0  0
    5.1674   -3.1737    8.6033 H   0  0  0  0  0  0  0  0  0  0  0  0
  1  6  1  0  0  0  0
  1 22  3  0  0  0  0
  2  3  1  0  0  0  0
  2  9  2  0  0  0  0
  2 29  1  0  0  0  0
  3 10  2  0  0  0  0
  3 30  1  0  0  0  0
  4  6  2  0  0  0  0
  4  8  1  0  0  0  0
  4 31  1  0  0  0  0
  5  6  1  0  0  0  0
  5 12  2  0  0  0  0
  5 32  1  0  0  0  0
  7 10  1  0  0  0  0
  7 13  2  0  0  0  0
  7 14  1  0  0  0  0
  8 11  2  0  0  0  0
  8 15  1  0  0  0  0
  9 13  1  0  0  0  0
  9 20  1  0  0  0  0
 10 24  1  0  0  0  0
 11 12  1  0  0  0  0
 11 24  1  0  0  0  0
 12 26  1  0  0  0  0
 13 28  1  0  0  0  0
 14 23  2  0  0  0  0
 14 25  1  0  0  0  0
 15 25  1  0  0  0  0
 15 33  1  0  0  0  0
 15 34  1  0  0  0  0
 16 21  1  0  0  0  0
 16 35  1  0  0  0  0
 16 36  1  0  0  0  0
 16 37  1  0  0  0  0
 17 21  1  0  0  0  0
 17 38  1  0  0  0  0
 17 39  1  0  0  0  0
 17 40  1  0  0  0  0
 18 28  1  0  0  0  0
 18 41  1  0  0  0  0
 18 42  1  0  0  0  0
 18 43  1  0  0  0  0
 19 20  1  0  0  0  0
 19 21  1  0  0  0  0
 19 44  1  0  0  0  0
 19 45  1  0  0  0  0
 20 27  1  0  0  0  0
 20 46  1  0  0  0  0
 21 47  1  0  0  0  0
 26 48  1  0  0  0  0
 27 49  1  0  0  0  0
M  END
$$$$
