
  -OEChem-05262117483D

 49 51  0     1  0  0  0  0  0999 V2000
    0.0747    0.3150   -0.5646 C   0  0  0  0  0  0  0  0  0  0  0  0
    3.2782   -5.1601    4.3332 C   0  0  0  0  0  0  0  0  0  0  0  0
    2.2184   -4.8493    3.4734 C   0  0  0  0  0  0  0  0  0  0  0  0
    0.3099   -0.4373    1.7601 C   0  0  0  0  0  0  0  0  0  0  0  0
   -0.1733   -2.0605    0.0023 C   0  0  0  0  0  0  0  0  0  0  0  0
    0.0753   -0.7413    0.4094 C   0  0  0  0  0  0  0  0  0  0  0  0
    1.1489   -3.6077    5.2882 C   0  0  0  0  0  0  0  0  0  0  0  0
    0.3212   -1.4510    2.7217 C   0  0  0  0  0  0  0  0  0  0  0  0
    3.2982   -4.7097    5.6501 C   0  0  0  0  0  0  0  0  0  0  0  0
    1.1773   -4.0840    3.9687 C   0  0  0  0  0  0  0  0  0  0  0  0
    0.0979   -2.7665    2.3028 C   0  0  0  0  0  0  0  0  0  0  0  0
   -0.1677   -3.0743    0.9579 C   0  0  0  0  0  0  0  0  0  0  0  0
    2.2262   -3.9265    6.1363 C   0  0  0  0  0  0  0  0  0  0  0  0
   -0.0927   -2.8766    5.7092 C   0  0  0  0  0  0  0  0  0  0  0  0
    0.5851   -1.1051    4.1684 C   0  0  0  0  0  0  0  0  0  0  0  0
    7.4886   -2.7199    7.5804 C   0  0  0  0  0  0  0  0  0  0  0  0
    6.1269   -4.2094    9.0991 C   0  0  0  0  0  0  0  0  0  0  0  0
    1.6799   -2.3914    7.9633 C   0  0  0  0  0  0  0  0  0  0  0  0
    5.3943   -3.7908    6.6869 C   0  0  0  0  0  0  0  0  0  0  0  0
    4.4684   -5.0155    6.5625 C   0  0  2  0  0  0  0  0  0  0  0  0
    6.5809   -3.9567    7.6536 C   0  0  0  0  0  0  0  0  0  0  0  0
    0.0792    1.1757   -1.3503 N   0  0  0  0  0  0  0  0  0  0  0  0
   -0.8570   -3.2826    6.5546 O   0  0  0  0  0  0  0  0  0  0  0  0
    0.0451   -3.8477    3.1711 O   0  0  0  0  0  0  0  0  0  0  0  0
   -0.3652   -1.6993    5.0764 O   0  0  0  0  0  0  0  0  0  0  0  0
   -0.4094   -4.3590    0.5808 O   0  0  0  0  0  0  0  0  0  0  0  0
    5.1638   -6.1417    6.0094 O   0  0  0  0  0  0  0  0  0  0  0  0
    2.3583   -3.5378    7.4367 O   0  0  0  0  0  0  0  0  0  0  0  0
    4.1029   -5.7721    3.9862 H   0  0  0  0  0  0  0  0  0  0  0  0
    2.1920   -5.2104    2.4498 H   0  0  0  0  0  0  0  0  0  0  0  0
    0.4723    0.5947    2.0556 H   0  0  0  0  0  0  0  0  0  0  0  0
   -0.3691   -2.3029   -1.0367 H   0  0  0  0  0  0  0  0  0  0  0  0
    1.6035   -1.3799    4.4574 H   0  0  0  0  0  0  0  0  0  0  0  0
    0.4709   -0.0290    4.3092 H   0  0  0  0  0  0  0  0  0  0  0  0
    6.9469   -1.8218    7.9015 H   0  0  0  0  0  0  0  0  0  0  0  0
    8.3632   -2.8313    8.2303 H   0  0  0  0  0  0  0  0  0  0  0  0
    7.8462   -2.5475    6.5595 H   0  0  0  0  0  0  0  0  0  0  0  0
    5.5000   -3.3837    9.4565 H   0  0  0  0  0  0  0  0  0  0  0  0
    5.5453   -5.1311    9.2019 H   0  0  0  0  0  0  0  0  0  0  0  0
    6.9889   -4.2891    9.7700 H   0  0  0  0  0  0  0  0  0  0  0  0
    2.2673   -2.0807    8.8290 H   0  0  0  0  0  0  0  0  0  0  0  0
    0.6624   -2.6390    8.2686 H   0  0  0  0  0  0  0  0  0  0  0  0
    1.6605   -1.5746    7.2329 H   0  0  0  0  0  0  0  0  0  0  0  0
    4.7925   -2.9354    7.0136 H   0  0  0  0  0  0  0  0  0  0  0  0
    5.7698   -3.5598    5.6827 H   0  0  0  0  0  0  0  0  0  0  0  0
    4.0705   -5.2767    7.5495 H   0  0  0  0  0  0  0  0  0  0  0  0
    7.1855   -4.8159    7.3256 H   0  0  0  0  0  0  0  0  0  0  0  0
   -0.4232   -4.9016    1.3916 H   0  0  0  0  0  0  0  0  0  0  0  0
    5.8942   -6.3606    6.6075 H   0  0  0  0  0  0  0  0  0  0  0  0
  1  6  1  0  0  0  0
  1 22  3  0  0  0  0
  2  3  1  0  0  0  0
  2  9  2  0  0  0  0
  2 29  1  0  0  0  0
  3 10  2  0  0  0  0
  3 30  1  0  0  0  0
  4  6  2  0  0  0  0
  4  8  1  0  0  0  0
  4 31  1  0  0  0  0
  5  6  1  0  0  0  0
  5 12  2  0  0  0  0
  5 32  1  0  0  0  0
  7 10  1  0  0  0  0
  7 13  2  0  0  0  0
  7 14  1  0  0  0  0
  8 11  2  0  0  0  0
  8 15  1  0  0  0  0
  9 13  1  0  0  0  0
  9 20  1  0  0  0  0
 10 24  1  0  0  0  0
 11 12  1  0  0  0  0
 11 24  1  0  0  0  0
 12 26  1  0  0  0  0
 13 28  1  0  0  0  0
 14 23  2  0  0  0  0
 14 25  1  0  0  0  0
 15 25  1  0  0  0  0
 15 33  1  0  0  0  0
 15 34  1  0  0  0  0
 16 21  1  0  0  0  0
 16 35  1  0  0  0  0
 16 36  1  0  0  0  0
 16 37  1  0  0  0  0
 17 21  1  0  0  0  0
 17 38  1  0  0  0  0
 17 39  1  0  0  0  0
 17 40  1  0  0  0  0
 18 28  1  0  0  0  0
 18 41  1  0  0  0  0
 18 42  1  0  0  0  0
 18 43  1  0  0  0  0
 19 20  1  0  0  0  0
 19 21  1  0  0  0  0
 19 44  1  0  0  0  0
 19 45  1  0  0  0  0
 20 27  1  0  0  0  0
 20 46  1  0  0  0  0
 21 47  1  0  0  0  0
 26 48  1  0  0  0  0
 27 49  1  0  0  0  0
M  END
$$$$
