27
0 1 C12H10O4S
C                     1.915399957294    -0.411497957045     0.036163753615
C                     0.428477824957     3.514421497661     5.901517553131
C                     0.666743393673    -0.390217365398     0.668136643184
C                    -0.454566790620     2.453298659284     6.124513533513
C                     3.081946903067    -0.548297827945     0.784551073315
C                     1.647706039543     3.300335300434     5.255597764249
C                     0.609005434436    -0.506673499986     2.054655692004
C                    -0.105603731309     1.170152425905     5.699104687665
C                     3.035047609669    -0.660232820615     2.185447544151
C                     2.003404334098     2.013352564027     4.832841218083
C                     1.777056196006    -0.631093502881     2.817114669836
C                     1.117036004087     0.948611285969     5.061947189666
O                     0.286626825286    -1.516066974682     4.798582005000
O                     2.761076867017    -1.160010252527     5.276612476098
O                     4.170401982505    -0.803209195000     2.916707720630
O                     3.171459879430     1.750456923592     4.180664390236
S                     1.530217755390    -0.750342449574     4.602137300659
H                     1.983103281219    -0.327880924994    -1.045314701103
H                     0.168124394175     4.518409247230     6.225846725355
H                    -0.246574592859    -0.294933150625     0.089058518974
H                    -1.403625231332     2.621794504111     6.624238079456
H                     4.049313753413    -0.574212323882     0.284781573769
H                     2.327543960337     4.131786333910     5.076553957085
H                    -0.348070247397    -0.515362224653     2.566668838758
H                    -0.767430200844     0.323727836409     5.853122767893
H                     4.926369956252    -0.842675935178     2.309266105395
H                     3.707588626528     2.557995216809     4.138100947356
