
  -OEChem-05262117483D

 27 28  0     0  0  0  0  0  0999 V2000
    1.8157   -1.0694   -0.1025 C   0  0  0  0  0  0  0  0  0  0  0  0
    0.4596    3.0539    5.8042 C   0  0  0  0  0  0  0  0  0  0  0  0
    2.9786   -1.3537    0.6207 C   0  0  0  0  0  0  0  0  0  0  0  0
   -0.3086    1.9373    6.1498 C   0  0  0  0  0  0  0  0  0  0  0  0
    0.6200   -0.7796    0.5577 C   0  0  0  0  0  0  0  0  0  0  0  0
    1.6135    2.9123    5.0308 C   0  0  0  0  0  0  0  0  0  0  0  0
    2.9353   -1.3493    2.0154 C   0  0  0  0  0  0  0  0  0  0  0  0
    0.0899    0.6721    5.7166 C   0  0  0  0  0  0  0  0  0  0  0  0
    0.5702   -0.7818    1.9577 C   0  0  0  0  0  0  0  0  0  0  0  0
    2.0213    1.6430    4.6006 C   0  0  0  0  0  0  0  0  0  0  0  0
    1.7390   -1.0754    2.6791 C   0  0  0  0  0  0  0  0  0  0  0  0
    1.2506    0.5241    4.9567 C   0  0  0  0  0  0  0  0  0  0  0  0
    0.6728   -2.0459    4.9278 O   0  0  0  0  0  0  0  0  0  0  0  0
    3.1259   -1.3773    4.8980 O   0  0  0  0  0  0  0  0  0  0  0  0
   -0.5683   -0.4872    2.6501 O   0  0  0  0  0  0  0  0  0  0  0  0
    3.1300    1.4534    3.8279 O   0  0  0  0  0  0  0  0  0  0  0  0
    1.7383   -1.1401    4.4772 S   0  0  0  0  0  0  0  0  0  0  0  0
    1.8357   -1.0672   -1.1892 H   0  0  0  0  0  0  0  0  0  0  0  0
    0.1597    4.0454    6.1330 H   0  0  0  0  0  0  0  0  0  0  0  0
    3.9084   -1.5731    0.1047 H   0  0  0  0  0  0  0  0  0  0  0  0
   -1.2085    2.0510    6.7465 H   0  0  0  0  0  0  0  0  0  0  0  0
   -0.2800   -0.5527   -0.0116 H   0  0  0  0  0  0  0  0  0  0  0  0
    2.2032    3.7867    4.7600 H   0  0  0  0  0  0  0  0  0  0  0  0
    3.8190   -1.5502    2.6124 H   0  0  0  0  0  0  0  0  0  0  0  0
   -0.4867   -0.2169    5.9510 H   0  0  0  0  0  0  0  0  0  0  0  0
   -1.2893   -0.3150    2.0240 H   0  0  0  0  0  0  0  0  0  0  0  0
    3.5616    2.3081    3.6706 H   0  0  0  0  0  0  0  0  0  0  0  0
  1  3  1  0  0  0  0
  1  5  2  0  0  0  0
  1 18  1  0  0  0  0
  2  4  1  0  0  0  0
  2  6  2  0  0  0  0
  2 19  1  0  0  0  0
  3  7  2  0  0  0  0
  3 20  1  0  0  0  0
  4  8  2  0  0  0  0
  4 21  1  0  0  0  0
  5  9  1  0  0  0  0
  5 22  1  0  0  0  0
  6 10  1  0  0  0  0
  6 23  1  0  0  0  0
  7 11  1  0  0  0  0
  7 24  1  0  0  0  0
  8 12  1  0  0  0  0
  8 25  1  0  0  0  0
  9 11  2  0  0  0  0
  9 15  1  0  0  0  0
 10 12  2  0  0  0  0
 10 16  1  0  0  0  0
 11 17  1  0  0  0  0
 12 17  1  0  0  0  0
 13 17  2  0  0  0  0
 14 17  2  0  0  0  0
 15 26  1  0  0  0  0
 16 27  1  0  0  0  0
M  END
$$$$
