
  -OEChem-05262117483D

 46 47  0     1  0  0  0  0  0999 V2000
   -3.5204    3.0911   -3.5323 C   0  0  0  0  0  0  0  0  0  0  0  0
   -2.2844    3.6555   -3.2025 C   0  0  0  0  0  0  0  0  0  0  0  0
   -3.6955    1.7072   -3.4267 C   0  0  0  0  0  0  0  0  0  0  0  0
   -1.2354    2.8419   -2.7650 C   0  0  0  0  0  0  0  0  0  0  0  0
   -2.6435    0.8985   -2.9889 C   0  0  0  0  0  0  0  0  0  0  0  0
   -1.4008    1.4536   -2.6479 C   0  0  0  0  0  0  0  0  0  0  0  0
   -0.3408    1.6850    0.1497 C   0  0  0  0  0  0  0  0  0  0  0  0
   -1.5021   -0.5385   -0.1431 C   0  0  0  0  0  0  0  0  0  0  0  0
   -0.9225   -1.1487    1.1280 C   0  0  0  0  0  0  0  0  0  0  0  0
   -0.3437    0.3414   -0.6127 C   0  0  1  0  0  0  0  0  0  0  0  0
    2.1318    4.3578    0.0010 C   0  0  0  0  0  0  0  0  0  0  0  0
    1.0657   -2.2875    2.9530 C   0  0  0  0  0  0  0  0  0  0  0  0
    2.8442   -1.6795    1.2912 C   0  0  0  0  0  0  0  0  0  0  0  0
    1.5729    0.1439    2.4672 C   0  0  0  0  0  0  0  0  0  0  0  0
   -0.2761    0.5821   -2.1332 C   0  0  0  0  0  0  0  0  0  0  0  0
    0.8624    3.6980    0.5059 C   0  0  0  0  0  0  0  0  0  0  0  0
    1.4795   -1.2750    1.8717 C   0  0  0  0  0  0  0  0  0  0  0  0
    0.4852   -1.4071    0.7735 N   0  0  2  0  0  0  0  0  0  0  0  0
   -1.1785    2.0366    0.9587 O   0  0  0  0  0  0  0  0  0  0  0  0
    0.8327   -0.3959   -0.2540 O   0  0  0  0  0  0  0  0  0  0  0  0
    0.7374    2.4242   -0.1768 O   0  0  0  0  0  0  0  0  0  0  0  0
   -4.3372    3.7218   -3.8739 H   0  0  0  0  0  0  0  0  0  0  0  0
   -2.1359    4.7291   -3.2895 H   0  0  0  0  0  0  0  0  0  0  0  0
   -4.6500    1.2579   -3.6895 H   0  0  0  0  0  0  0  0  0  0  0  0
   -0.2751    3.2847   -2.5137 H   0  0  0  0  0  0  0  0  0  0  0  0
   -2.7871   -0.1772   -2.9177 H   0  0  0  0  0  0  0  0  0  0  0  0
   -1.6886   -1.3141   -0.8904 H   0  0  0  0  0  0  0  0  0  0  0  0
   -2.4156    0.0264    0.0371 H   0  0  0  0  0  0  0  0  0  0  0  0
   -1.0446   -0.4500    1.9639 H   0  0  0  0  0  0  0  0  0  0  0  0
   -1.3973   -2.0978    1.3881 H   0  0  0  0  0  0  0  0  0  0  0  0
    3.0056    3.7344    0.2118 H   0  0  0  0  0  0  0  0  0  0  0  0
    2.0825    4.5290   -1.0787 H   0  0  0  0  0  0  0  0  0  0  0  0
    2.2682    5.3244    0.4966 H   0  0  0  0  0  0  0  0  0  0  0  0
    0.1392   -1.9956    3.4569 H   0  0  0  0  0  0  0  0  0  0  0  0
    0.9268   -3.2816    2.5164 H   0  0  0  0  0  0  0  0  0  0  0  0
    1.8501   -2.3528    3.7129 H   0  0  0  0  0  0  0  0  0  0  0  0
    3.1413   -0.9951    0.4930 H   0  0  0  0  0  0  0  0  0  0  0  0
    2.7946   -2.6904    0.8755 H   0  0  0  0  0  0  0  0  0  0  0  0
    3.6119   -1.6572    2.0721 H   0  0  0  0  0  0  0  0  0  0  0  0
    1.9022    0.8553    1.7062 H   0  0  0  0  0  0  0  0  0  0  0  0
    0.6193    0.4890    2.8772 H   0  0  0  0  0  0  0  0  0  0  0  0
    2.3038    0.1545    3.2824 H   0  0  0  0  0  0  0  0  0  0  0  0
   -0.2925   -0.4026   -2.6094 H   0  0  0  0  0  0  0  0  0  0  0  0
    0.6916    1.0384   -2.3537 H   0  0  0  0  0  0  0  0  0  0  0  0
   -0.0292    4.2951    0.2934 H   0  0  0  0  0  0  0  0  0  0  0  0
    0.8944    3.5130    1.5833 H   0  0  0  0  0  0  0  0  0  0  0  0
  1  2  1  0  0  0  0
  1  3  2  0  0  0  0
  1 22  1  0  0  0  0
  2  4  2  0  0  0  0
  2 23  1  0  0  0  0
  3  5  1  0  0  0  0
  3 24  1  0  0  0  0
  4  6  1  0  0  0  0
  4 25  1  0  0  0  0
  5  6  2  0  0  0  0
  5 26  1  0  0  0  0
  6 15  1  0  0  0  0
  7 10  1  0  0  0  0
  7 19  2  0  0  0  0
  7 21  1  0  0  0  0
  8  9  1  0  0  0  0
  8 10  1  0  0  0  0
  8 27  1  0  0  0  0
  8 28  1  0  0  0  0
  9 18  1  0  0  0  0
  9 29  1  0  0  0  0
  9 30  1  0  0  0  0
 10 15  1  0  0  0  0
 10 20  1  0  0  0  0
 11 16  1  0  0  0  0
 11 31  1  0  0  0  0
 11 32  1  0  0  0  0
 11 33  1  0  0  0  0
 12 17  1  0  0  0  0
 12 34  1  0  0  0  0
 12 35  1  0  0  0  0
 12 36  1  0  0  0  0
 13 17  1  0  0  0  0
 13 37  1  0  0  0  0
 13 38  1  0  0  0  0
 13 39  1  0  0  0  0
 14 17  1  0  0  0  0
 14 40  1  0  0  0  0
 14 41  1  0  0  0  0
 14 42  1  0  0  0  0
 15 43  1  0  0  0  0
 15 44  1  0  0  0  0
 16 21  1  0  0  0  0
 16 45  1  0  0  0  0
 16 46  1  0  0  0  0
 17 18  1  0  0  0  0
 18 20  1  0  0  0  0
M  END
$$$$
