
  -OEChem-05262117483D

 27 28  0     0  0  0  0  0  0999 V2000
    2.1053   -1.0545   -0.1936 C   0  0  0  0  0  0  0  0  0  0  0  0
    1.0563   -0.3330    0.3854 C   0  0  0  0  0  0  0  0  0  0  0  0
    2.9578   -1.5051    2.0103 C   0  0  0  0  0  0  0  0  0  0  0  0
    3.0696   -1.6591    0.6239 C   0  0  0  0  0  0  0  0  0  0  0  0
    0.9351   -0.1901    1.7741 C   0  0  0  0  0  0  0  0  0  0  0  0
    1.9150   -0.7791    2.6088 C   0  0  0  0  0  0  0  0  0  0  0  0
    0.9401   -1.9030    4.6708 C   0  0  0  0  0  0  0  0  0  0  0  0
    4.5954   -3.7855    0.5781 C   0  0  0  0  0  0  0  0  0  0  0  0
    3.9291   -3.6945   -0.7817 C   0  0  0  0  0  0  0  0  0  0  0  0
    4.2030   -2.4360    0.0199 C   0  0  0  0  0  0  0  0  0  0  0  0
   -0.2339    0.5615    2.3697 C   0  0  0  0  0  0  0  0  0  0  0  0
    1.8278   -0.7089    4.1071 C   0  0  0  0  0  0  0  0  0  0  0  0
    1.5771   -2.9562    4.9249 O   0  5  0  0  0  0  0  0  0  0  0  0
   -0.2916   -1.6495    4.7781 O   0  0  0  0  0  0  0  0  0  0  0  0
    2.1664   -1.1652   -1.2753 H   0  0  0  0  0  0  0  0  0  0  0  0
    0.3009    0.1183   -0.2574 H   0  0  0  0  0  0  0  0  0  0  0  0
    3.6873   -1.9837    2.6594 H   0  0  0  0  0  0  0  0  0  0  0  0
    4.0022   -4.1708    1.4019 H   0  0  0  0  0  0  0  0  0  0  0  0
    5.6512   -4.0423    0.6169 H   0  0  0  0  0  0  0  0  0  0  0  0
    4.5308   -3.8876   -1.6671 H   0  0  0  0  0  0  0  0  0  0  0  0
    2.8942   -4.0169   -0.8528 H   0  0  0  0  0  0  0  0  0  0  0  0
    5.0314   -1.8315   -0.3504 H   0  0  0  0  0  0  0  0  0  0  0  0
   -0.7076   -0.0384    3.1544 H   0  0  0  0  0  0  0  0  0  0  0  0
    0.0953    1.5017    2.8343 H   0  0  0  0  0  0  0  0  0  0  0  0
   -0.9711    0.8108    1.5981 H   0  0  0  0  0  0  0  0  0  0  0  0
    2.8296   -0.7982    4.5373 H   0  0  0  0  0  0  0  0  0  0  0  0
    1.3856    0.2386    4.4278 H   0  0  0  0  0  0  0  0  0  0  0  0
  1  2  1  0  0  0  0
  1  4  2  0  0  0  0
  1 15  1  0  0  0  0
  2  5  2  0  0  0  0
  2 16  1  0  0  0  0
  3  4  1  0  0  0  0
  3  6  2  0  0  0  0
  3 17  1  0  0  0  0
  4 10  1  0  0  0  0
  5  6  1  0  0  0  0
  5 11  1  0  0  0  0
  6 12  1  0  0  0  0
  7 12  1  0  0  0  0
  7 13  1  0  0  0  0
  7 14  2  0  0  0  0
  8  9  1  0  0  0  0
  8 10  1  0  0  0  0
  8 18  1  0  0  0  0
  8 19  1  0  0  0  0
  9 10  1  0  0  0  0
  9 20  1  0  0  0  0
  9 21  1  0  0  0  0
 10 22  1  0  0  0  0
 11 23  1  0  0  0  0
 11 24  1  0  0  0  0
 11 25  1  0  0  0  0
 12 26  1  0  0  0  0
 12 27  1  0  0  0  0
M  CHG  1  13  -1
M  END
$$$$
