
  -OEChem-05262117483D

 25 26  0     0  0  0  0  0  0999 V2000
    2.0189   -1.3363   -0.0098 C   0  0  0  0  0  0  0  0  0  0  0  0
    0.5210    3.0302    5.9395 C   0  0  0  0  0  0  0  0  0  0  0  0
    0.9828   -2.0036    0.6790 C   0  0  0  0  0  0  0  0  0  0  0  0
    1.8304    2.5544    6.1678 C   0  0  0  0  0  0  0  0  0  0  0  0
    2.9637   -0.5790    0.6653 C   0  0  0  0  0  0  0  0  0  0  0  0
   -0.4148    2.2657    5.2599 C   0  0  0  0  0  0  0  0  0  0  0  0
    0.9411   -1.8894    2.0731 C   0  0  0  0  0  0  0  0  0  0  0  0
    2.1566    1.2773    5.6972 C   0  0  0  0  0  0  0  0  0  0  0  0
    2.9638   -0.4038    2.1123 C   0  0  0  0  0  0  0  0  0  0  0  0
   -0.1329    0.9383    4.7282 C   0  0  0  0  0  0  0  0  0  0  0  0
    1.9008   -1.1567    2.7727 C   0  0  0  0  0  0  0  0  0  0  0  0
    1.2192    0.4814    5.0379 C   0  0  0  0  0  0  0  0  0  0  0  0
    3.8108    0.3326    2.6949 O   0  5  0  0  0  0  0  0  0  0  0  0
   -0.9944    0.2855    4.0719 O   0  5  0  0  0  0  0  0  0  0  0  0
    0.7146   -2.1507    4.9270 O   0  0  0  0  0  0  0  0  0  0  0  0
    3.0977   -1.3880    5.1637 O   0  0  0  0  0  0  0  0  0  0  0  0
    1.7586   -1.1569    4.5575 S   0  0  0  0  0  0  0  0  0  0  0  0
    2.0738   -1.4095   -1.1000 H   0  0  0  0  0  0  0  0  0  0  0  0
    0.2399    4.0253    6.2971 H   0  0  0  0  0  0  0  0  0  0  0  0
    0.2222   -2.5708    0.1445 H   0  0  0  0  0  0  0  0  0  0  0  0
    2.5748    3.1678    6.6731 H   0  0  0  0  0  0  0  0  0  0  0  0
    3.7516   -0.0545    0.1236 H   0  0  0  0  0  0  0  0  0  0  0  0
   -1.4196    2.6468    5.0747 H   0  0  0  0  0  0  0  0  0  0  0  0
    0.1529   -2.3631    2.6510 H   0  0  0  0  0  0  0  0  0  0  0  0
    3.1555    0.8709    5.8264 H   0  0  0  0  0  0  0  0  0  0  0  0
  1  3  1  0  0  0  0
  1  5  2  0  0  0  0
  1 18  1  0  0  0  0
  2  4  1  0  0  0  0
  2  6  2  0  0  0  0
  2 19  1  0  0  0  0
  3  7  2  0  0  0  0
  3 20  1  0  0  0  0
  4  8  2  0  0  0  0
  4 21  1  0  0  0  0
  5  9  1  0  0  0  0
  5 22  1  0  0  0  0
  6 10  1  0  0  0  0
  6 23  1  0  0  0  0
  7 11  1  0  0  0  0
  7 24  1  0  0  0  0
  8 12  1  0  0  0  0
  8 25  1  0  0  0  0
  9 11  2  0  0  0  0
  9 13  1  0  0  0  0
 10 12  2  0  0  0  0
 10 14  1  0  0  0  0
 11 17  1  0  0  0  0
 12 17  1  0  0  0  0
 15 17  2  0  0  0  0
 16 17  2  0  0  0  0
M  CHG  2  13  -1  14  -1
M  END
$$$$
