46
0 1 C17H25NO3
C                    -3.852749894240     3.352708646320    -3.235690424991
C                    -2.579312930237     3.894805618045    -3.033535374662
C                    -4.035777633202     1.968982272020    -3.137414893157
C                    -1.501547214580     3.059538417822    -2.726251349651
C                    -2.954914029485     1.138793728366    -2.829103825140
C                    -1.676172852419     1.672291501624    -2.611835775305
C                    -0.501006313690     1.894007942094     0.030415354493
C                    -1.568152337039    -0.443217452898    -0.153560685906
C                    -0.878177598142    -1.004110190592     1.083389572922
C                    -0.490537129964     0.515739813759    -0.668506437510
C                    -3.403048141932     3.877593451921     0.916658470592
C                     1.290475554710    -2.210245486757     2.671925906076
C                     2.900031843859    -1.428707675482     0.912483505821
C                     1.674197539727     0.264748273975     2.311111774963
C                    -0.523894413409     0.787566965366    -2.192215763010
C                    -1.910216460137     3.607029705613     0.900650351959
C                     1.578368240677    -1.114170488324     1.631742430006
N                     0.498305911801    -1.217629490857     0.614467940278
O                     0.469920052455     2.620366831622     0.100446100333
O                     0.738139623096    -0.153250926734    -0.393660435752
O                    -1.730552102733     2.233340627059     0.466581399348
H                    -4.692131637780     4.000144474993    -3.476206139876
H                    -2.424390756036     4.967686657624    -3.117562085126
H                    -5.019667629192     1.537282969666    -3.303524836694
H                    -0.515451904314     3.487481223452    -2.561858279240
H                    -3.106737326065     0.064295517939    -2.754907295754
H                    -1.721008264736    -1.236852075289    -0.890418017369
H                    -2.516942458446     0.044148254541     0.060204184335
H                    -0.958351581006    -0.290380178698     1.916381993778
H                    -1.296446033632    -1.961672821294     1.401983321450
H                    -3.823290053869     3.741607455571    -0.083931310396
H                    -3.918527484085     3.204284085628     1.608349606356
H                    -3.588631319979     4.908159915370     1.237046468537
H                     0.398055257779    -1.988373309434     3.265813663080
H                     1.152410108884    -3.180273172412     2.183881920456
H                     2.135350237073    -2.289789595279     3.362590289882
H                     3.112954449193    -0.674882059796     0.151319027740
H                     2.842428237424    -2.405987226799     0.423498330906
H                     3.727690788152    -1.441728049000     1.629434106095
H                     1.853577062206     1.049486422018     1.574084154274
H                     0.766337672158     0.515324155644     2.870069618520
H                     2.502786232505     0.264424100016     3.027072395802
H                    -0.564399404565    -0.185930508801    -2.689451096396
H                     0.429734054612     1.254304022190    -2.452696085194
H                    -1.451960992144     3.720543800122     1.887913000692
H                    -1.382937757378     4.261339853175     0.202997405197
