30
-1 1 C14H13O3
C                     0.270039543363    -3.432525503360     1.079870861978
C                     3.001602858523    -3.136731391997    -1.452385815609
C                    -0.281037454500    -2.166379521799     1.016755139338
C                     3.564539818366    -4.390585073797    -1.405926247305
C                     1.296725201069    -1.500752665582    -0.674893839281
C                     1.963221707114    -5.082402751707     0.289382256314
C                     1.886720002422    -2.788014167251    -0.633732700134
C                     1.367984754602    -3.785641005660     0.253988799506
C                     0.215107419284    -1.169519069577     0.131398823700
C                     3.038026692153    -5.376289496733    -0.524994620456
C                     0.635542676698     1.343431657000     0.368419333691
C                    -1.100410250981     0.440936148776    -1.280712727308
C                     3.212223447739    -7.610239529559     0.298618319553
C                    -0.423225794059     0.196387526743     0.080042577579
O                     1.482598574606     1.530784144342    -0.549966736449
O                     0.496053908221     1.933194149557     1.469792819490
O                     3.688181951928    -6.596694209845    -0.569476738191
H                    -0.133179340969    -4.172542070396     1.770148332574
H                     3.410075371868    -2.382887715493    -2.121707418861
H                    -1.117563794853    -1.911606354664     1.664946760070
H                     4.415458995667    -4.657528454219    -2.027014300325
H                     1.714395031299    -0.727239784372    -1.314267071054
H                     1.549782839188    -5.818023485989     0.972590686682
H                    -0.344170079060     0.475515937413    -2.069584500798
H                    -1.830036423486    -0.345571091600    -1.519518797627
H                    -1.619666203884     1.406975161205    -1.276047014176
H                     3.844644264650    -8.483808608041     0.123900647213
H                     2.166992901687    -7.870432005800     0.081647968942
H                     3.291944952337    -7.309852313469     1.352348303583
H                    -1.178521538120     0.253029237178     0.870313331569
