
  -OEChem-05262117483D

 30 31  0     1  0  0  0  0  0999 V2000
   -0.1127   -3.4855    0.5553 C   0  0  0  0  0  0  0  0  0  0  0  0
    3.3811   -3.0408   -0.6942 C   0  0  0  0  0  0  0  0  0  0  0  0
   -0.5661   -2.1868    0.5584 C   0  0  0  0  0  0  0  0  0  0  0  0
    3.8573   -4.3413   -0.6974 C   0  0  0  0  0  0  0  0  0  0  0  0
    1.5613   -1.3942   -0.2579 C   0  0  0  0  0  0  0  0  0  0  0  0
    1.7159   -5.1280    0.1345 C   0  0  0  0  0  0  0  0  0  0  0  0
    2.0633   -2.7263   -0.2782 C   0  0  0  0  0  0  0  0  0  0  0  0
    1.2152   -3.8030    0.1447 C   0  0  0  0  0  0  0  0  0  0  0  0
    0.2751   -1.0997    0.1562 C   0  0  0  0  0  0  0  0  0  0  0  0
    3.0096   -5.3976   -0.2762 C   0  0  0  0  0  0  0  0  0  0  0  0
   -1.5624    0.4842   -0.6693 C   0  0  0  0  0  0  0  0  0  0  0  0
   -0.5109    0.7611    1.6449 C   0  0  0  0  0  0  0  0  0  0  0  0
    4.7175   -7.0339   -0.6720 C   0  0  0  0  0  0  0  0  0  0  0  0
   -0.2419    0.3148    0.1957 C   0  0  1  0  0  0  0  0  0  0  0  0
   -1.4334    1.1818   -1.7063 O   0  5  0  0  0  0  0  0  0  0  0  0
   -2.5865   -0.0896   -0.2008 O   0  0  0  0  0  0  0  0  0  0  0  0
    3.4018   -6.7273   -0.2472 O   0  0  0  0  0  0  0  0  0  0  0  0
   -0.7741   -4.2963    0.8572 H   0  0  0  0  0  0  0  0  0  0  0  0
    4.0337   -2.2334   -1.0210 H   0  0  0  0  0  0  0  0  0  0  0  0
   -1.5918   -1.9449    0.8217 H   0  0  0  0  0  0  0  0  0  0  0  0
    4.8730   -4.5369   -1.0244 H   0  0  0  0  0  0  0  0  0  0  0  0
    2.2170   -0.5869   -0.5813 H   0  0  0  0  0  0  0  0  0  0  0  0
    1.0819   -5.9534    0.4501 H   0  0  0  0  0  0  0  0  0  0  0  0
   -1.3145    0.1611    2.0808 H   0  0  0  0  0  0  0  0  0  0  0  0
    0.3867    0.6643    2.2715 H   0  0  0  0  0  0  0  0  0  0  0  0
   -0.8353    1.8084    1.6609 H   0  0  0  0  0  0  0  0  0  0  0  0
    4.8212   -8.1174   -0.5759 H   0  0  0  0  0  0  0  0  0  0  0  0
    5.4753   -6.5452   -0.0439 H   0  0  0  0  0  0  0  0  0  0  0  0
    4.8863   -6.7499   -1.7199 H   0  0  0  0  0  0  0  0  0  0  0  0
    0.5166    0.9695   -0.2446 H   0  0  0  0  0  0  0  0  0  0  0  0
  1  3  1  0  0  0  0
  1  8  2  0  0  0  0
  1 18  1  0  0  0  0
  2  4  2  0  0  0  0
  2  7  1  0  0  0  0
  2 19  1  0  0  0  0
  3  9  2  0  0  0  0
  3 20  1  0  0  0  0
  4 10  1  0  0  0  0
  4 21  1  0  0  0  0
  5  7  2  0  0  0  0
  5  9  1  0  0  0  0
  5 22  1  0  0  0  0
  6  8  1  0  0  0  0
  6 10  2  0  0  0  0
  6 23  1  0  0  0  0
  7  8  1  0  0  0  0
  9 14  1  0  0  0  0
 10 17  1  0  0  0  0
 11 14  1  0  0  0  0
 11 15  1  0  0  0  0
 11 16  2  0  0  0  0
 12 14  1  0  0  0  0
 12 24  1  0  0  0  0
 12 25  1  0  0  0  0
 12 26  1  0  0  0  0
 13 17  1  0  0  0  0
 13 27  1  0  0  0  0
 13 28  1  0  0  0  0
 13 29  1  0  0  0  0
 14 30  1  0  0  0  0
M  CHG  1  15  -1
M  END
$$$$
