21   
torsion grid (-75,)
C        0.3847129388    2.1801495046   -0.6836253650
C       -0.3448868184    3.2237352439   -1.2512265738
C       -0.2650721881    1.0965050028   -0.0771311423
C       -2.6786344794    4.2629051036   -1.3020626398
C       -1.7427581212    3.1271491266   -1.2403645008
C       -2.4265912645    2.0390267321   -0.6244897225
C       -1.6628672546    0.9721377580   -0.0962157986
C       -4.0027275421    4.0979842000   -0.9448636272
C       -4.5365622500    2.7184182999   -0.9420999813
C       -3.5468179297   -0.2508343061    0.7972831105
N       -3.6604271397    1.8228921943   -1.2623684577
O       -2.1620462222   -0.1820521816    0.4171047080
Cl      -6.2451335293    2.4183889000   -1.1609957764
Br      -5.1150620898    5.6103079949   -0.6023990863
H        1.4703841631    2.2193053384   -0.6717986171
H        0.1478074958    4.1069206609   -1.6484092872
H        0.3068495439    0.2940374432    0.3802623401
H       -2.2971938272    5.2638277209   -1.4829043840
H       -3.6317482185   -1.1523918329    1.4062530626
H       -4.1956416932   -0.3160028441   -0.0764446872
H       -3.8250366212    0.6235253589    1.3959706317
21   
torsion grid (-60,)
C        0.3574724522    2.1983480368   -0.6721447321
C       -0.3782966106    3.2668344612   -1.1670694012
C       -0.2827317756    1.0735114906   -0.1236770027
C       -2.6746064291    4.3158950096   -1.2643445120
C       -1.7828829716    3.1815324769   -1.1406760446
C       -2.4546897140    2.0452805473   -0.5925114614
C       -1.6745959366    0.9543631820   -0.1226183823
C       -4.0162355025    4.1776073140   -0.9785781496
C       -4.5523680496    2.8250281055   -0.9248853978
C       -3.5215420513   -0.2831048970    0.8389088659
N       -3.7263929916    1.8427455642   -1.1126994602
O       -2.1755696369   -0.2228976078    0.3342605595
Cl      -6.2700302439    2.5419907484   -1.1149534125
Br      -5.1252684577    5.7165874253   -0.7820786779
H        1.4432279741    2.2383772330   -0.6739306678
H        0.1090316733    4.1671651259   -1.5310089134
H        0.2970091209    0.2464244299    0.2759258953
H       -2.2675332856    5.3004641365   -1.4757011991
H       -3.5631465883   -1.1981861791    1.4325846755
H       -4.2473943298   -0.3189502143    0.0265294451
H       -3.7325945745    0.5795219405    1.4798586028
21   
torsion grid (-45,)
C        0.3345608585    2.1932215959   -0.6565028190
C       -0.3940185004    3.2835323711   -1.1011504657
C       -0.3129776022    1.0429508465   -0.1645274810
C       -2.6578779695    4.3486107069   -1.2739306807
C       -1.8042497968    3.2136478469   -1.0813056238
C       -2.4791751829    2.0483942365   -0.5968091625
C       -1.7011842521    0.9362218662   -0.1603844246
C       -4.0152776723    4.2350686664   -1.0731337729
C       -4.5628983272    2.9063808141   -0.9542132807
C       -3.5169497364   -0.3000633755    0.8649272562
N       -3.7831591464    1.8681857599   -1.0001955106
O       -2.2184770794   -0.2535465195    0.2450564199
Cl      -6.2891378892    2.6434531185   -1.1093782234
Br      -5.1136565439    5.7936426173   -1.0544595799
H        1.4205809291    2.2271069419   -0.6571722967
H        0.0993941195    4.1923711777   -1.4345854988
H        0.2623937809    0.1952529957    0.1957539011
H       -2.2224701634    5.3164681147   -1.5046712087
H       -3.5239947322   -1.2244127123    1.4461150114
H       -4.3096924880   -0.3101145738    0.1168865353
H       -3.6579591175    0.5547689279    1.5342861947
21   
torsion grid (-30,)
C        0.3168061004    2.1991124630   -0.6410841549
C       -0.4158031482    3.3046561119   -1.0314637792
C       -0.3259809183    1.0247791026   -0.1975961116
C       -2.6679426985    4.3606657413   -1.2469106377
C       -1.8280549171    3.2340098955   -1.0038285268
C       -2.4992463718    2.0457875082   -0.5737749242
C       -1.7118901449    0.9199361456   -0.1758800585
C       -4.0333302886    4.2531801202   -1.1125742680
C       -4.5869698209    2.9443990305   -0.9127175520
C       -3.4840292924   -0.3578853388    0.8867738146
N       -3.8322053751    1.8898861084   -0.8373383413
O       -2.2226492088   -0.2838938202    0.1961202940
Cl      -6.3199286995    2.6935641755   -1.0039997332
Br      -5.1261763224    5.8093905377   -1.2584905528
H        1.4028002114    2.2332968446   -0.6515524937
H        0.0729369952    4.2243533760   -1.3408668635
H        0.2530710307    0.1631725234    0.1210349453
H       -2.2210282007    5.3193098714   -1.4934652442
H       -3.4565508515   -1.3049567118    1.4298092253
H       -4.3180645563   -0.3404496441    0.1855394423
H       -3.5880359197    0.4690277948    1.5963466172
21   
torsion grid (-15,)
C        0.3205042070    2.2030089323   -0.6348642690
C       -0.4046510710    3.3206875038   -0.9991697881
C       -0.3298107561    1.0161689462   -0.2354030538
C       -2.6357933807    4.3816360579   -1.2967305221
C       -1.8196245314    3.2597435030   -0.9895953268
C       -2.4945997034    2.0568511602   -0.6032440071
C       -1.7148967591    0.9193348224   -0.2187024020
C       -4.0055754101    4.2792051116   -1.2470600238
C       -4.5688823825    2.9933459136   -0.9734678145
C       -3.4636018877   -0.3727970611    0.8682290775
N       -3.8451419364    1.9360275531   -0.7554593603
O       -2.2356000962   -0.2906409068    0.1195593867
Cl      -6.3079224069    2.7631711312   -1.0297811775
Br      -5.0828109529    5.8180368029   -1.5742974828
H        1.4066549136    2.2334928369   -0.6371725987
H        0.0917333583    4.2431653151   -1.2877090345
H        0.2435056461    0.1430554042    0.0613132008
H       -2.1697661551    5.3285938935   -1.5525138602
H       -3.4211578515   -1.3364045208    1.3805817782
H       -4.3297481971   -0.3253521789    0.2085562145
H       -3.5246597740    0.4331809937    1.6059808107
21   
torsion grid (0,)
C        0.3138962006    2.2072482963   -0.6199344262
C       -0.4126316146    3.3346015848   -0.9489105726
C       -0.3350096414    1.0079726055   -0.2574986717
C       -2.6401086289    4.3812895836   -1.2962703139
C       -1.8277618241    3.2729202209   -0.9380543522
C       -2.5017522460    2.0583528875   -0.5876631760
C       -1.7199325709    0.9131462052   -0.2268469589
C       -4.0093459127    4.2650926777   -1.3094598210
C       -4.5773224057    3.0035982908   -0.9505501823
C       -3.4439018486   -0.4149943163    0.8652636166
N       -3.8618233756    1.9743347195   -0.6089856581
O       -2.2355721216   -0.3053685616    0.0883047054
Cl      -6.3195260026    2.7895501798   -0.9487403938
Br      -5.0803468731    5.7641447827   -1.8005468591
H        1.4000425443    2.2370569898   -0.6280148996
H        0.0825839871    4.2622174641   -1.2224864270
H        0.2392833354    0.1259871916    0.0094997194
H       -2.1709836604    5.3225958623   -1.5668389619
H       -3.3883862242   -1.3977894249    1.3385333434
H       -4.3272994718   -0.3429422968    0.2310968747
H       -3.4862509386    0.3625533766    1.6336442791
21   
torsion grid (15,)
C        0.2663949078    2.2439258588   -0.6806077395
C       -0.5108107761    3.2396145341   -1.2399683289
C       -0.3259651861    1.1415620793   -0.0293111833
C       -2.7898755926    4.1069320199   -1.7285472897
C       -1.9198813148    3.1532113222   -1.1332330678
C       -2.5379204723    2.0504033928   -0.4601289521
C       -1.7045362825    1.0278137198    0.0971532412
C       -4.1529401949    3.9656285508   -1.6191472901
C       -4.6548004571    2.8939381684   -0.8151292396
C       -3.4071473080   -0.6751176189    0.4468298156
N       -3.8779070026    2.0495765331   -0.2058154582
O       -2.1611335831   -0.0440275184    0.7981238559
Cl      -6.3784983507    2.7410467787   -0.5240069543
Br      -5.3043747436    5.2036826702   -2.5005466096
H        1.3494892671    2.2934593799   -0.7521351111
H       -0.0605030898    4.0802237779   -1.7606733671
H        0.2885357580    0.3551493300    0.3984227767
H       -2.3715777875    4.9384009608   -2.2881734316
H       -3.3240727061   -1.6967662180    0.8238213543
H       -3.5424960124   -0.6935147078   -0.6388769299
H       -4.2514094907   -0.1624339928    0.9072187273
21   
torsion grid (30,)
C        0.2785986489    2.2492437464   -0.6776251308
C       -0.4987351133    3.2674304979   -1.1974448641
C       -0.3154663307    1.1280013412   -0.0618409270
C       -2.7946197267    4.1032591826   -1.7097650764
C       -1.9057441472    3.1819571470   -1.0813941495
C       -2.5269938639    2.0611154105   -0.4451002396
C       -1.6940458616    1.0247847459    0.0821044383
C       -4.1559673489    3.9136134273   -1.6408153550
C       -4.6470098825    2.8854950308   -0.7683555611
C       -3.4239513801   -0.6462057962    0.4196660742
N       -3.8419606379    2.1363155996   -0.0768974485
O       -2.1536950062   -0.0598646795    0.7609958768
Cl      -6.3615117760    2.7638038702   -0.4222884260
Br      -5.3228218111    5.0448534066   -2.6389031550
H        1.3612020312    2.2936013643   -0.7592828992
H       -0.0494459692    4.1171410560   -1.7039754543
H        0.2978014345    0.3237973893    0.3335838758
H       -2.3906794483    4.9315133320   -2.2845419858
H       -3.3606096837   -1.6822461033    0.7591218503
H       -3.5842183236   -0.6240647471   -0.6628787064
H       -4.2427896493   -0.1274521857    0.9177686763
21   
torsion grid (45,)
C        0.2983361801    2.2866571433   -0.6951835239
C       -0.4931438227    3.3182583849   -1.1715626917
C       -0.2805599025    1.1401496812   -0.1163335080
C       -2.8246870786    4.0799974615   -1.7017834780
C       -1.8941859911    3.2110869876   -1.0393089657
C       -2.5036300602    2.0644883245   -0.4430701978
C       -1.6583979459    1.0258602591    0.0500039456
C       -4.1760768448    3.8135874264   -1.6647479057
C       -4.6407940084    2.8212094150   -0.7245941125
C       -3.4050810686   -0.6160050670    0.4232922988
N       -3.7864169520    2.2035789027    0.0320314885
O       -2.0981380504   -0.0817774466    0.7038725089
Cl      -6.3417684559    2.7113963438   -0.3204308214
Br      -5.3745136388    4.8026637337   -2.7713529208
H        1.3794379640    2.3405314324   -0.7896350278
H       -0.0581508083    4.1832690783   -1.6643534817
H        0.3428463288    0.3266328277    0.2428375676
H       -2.4539915884    4.9080060634   -2.2989564596
H       -3.3603159795   -1.6606024894    0.7379992897
H       -3.6229509426   -0.5653037015   -0.6484626868
H       -4.1766988504   -0.0806676398    0.9763808236
21   
torsion grid (60,)
C        0.3159563849    2.2705030342   -0.6584279897
C       -0.4551518437    3.3450382605   -1.0811518143
C       -0.2870467092    1.1072870225   -0.1487728823
C       -2.7965159386    4.0970090406   -1.6642344989
C       -1.8542191837    3.2584487110   -0.9532965058
C       -2.4861928743    2.0866766738   -0.4342032731
C       -1.6704584104    1.0162611848    0.0202776445
C       -4.1378919722    3.7785836698   -1.6747562181
C       -4.6087122907    2.8325933689   -0.6729631065
C       -3.4800913891   -0.5494283985    0.3826339456
N       -3.7302088307    2.3262878519    0.1363654090
O       -2.1321984871   -0.1086879595    0.6271087571
Cl      -6.3032689049    2.7711787068   -0.2366777593
Br      -5.3268992126    4.6476247421   -2.8865627870
H        1.3979166780    2.3071592387   -0.7506889906
H       -0.0004203513    4.2199585658   -1.5375452255
H        0.3189596997    0.2631334105    0.1674180776
H       -2.4321612814    4.9145325706   -2.2795496649
H       -3.4906806235   -1.6062162492    0.6562427089
H       -3.7354521324   -0.4428516463   -0.6769491872
H       -4.1938134602    0.0107273776    0.9870401614
21   
torsion grid (75,)
C        0.3590117134    2.2561964869   -0.6212435301
C       -0.3984171027    3.3776171975   -0.9546409533
C       -0.2605401716    1.0732970206   -0.1943892798
C       -2.7774082224    4.1110356848   -1.5291579391
C       -1.7891109445    3.2996437050   -0.7995002833
C       -2.4419971434    2.1065018988   -0.3730767048
C       -1.6478415193    0.9969367144    0.0009204874
C       -4.1055716193    3.7315630057   -1.5619460223
C       -4.5687092391    2.7936833860   -0.5177960939
C       -3.5047450272   -0.4928677202    0.4245296777
N       -3.6349662908    2.4248325058    0.2982567114
O       -2.1083773096   -0.1671219633    0.5285210783
Cl      -6.2480403122    2.7457771949   -0.0359934617
Br      -5.3055128381    4.4994583663   -2.8320958814
H        1.4399627294    2.2771891485   -0.7283787380
H        0.0645570620    4.2703688488   -1.3659735065
H        0.3326432936    0.1956002351    0.0464075689
H       -2.4407450355    4.9233687157   -2.1669843599
H       -3.5714019549   -1.5505809774    0.6846049288
H       -3.8585468774   -0.3446763885   -0.6017712615
H       -4.1050139320    0.1082745159    1.1077268323
