25
0 1 C11H7N5O2
C                     0.101046203165    -0.295407827875     1.026645937665
C                     7.418833735287     0.397789335647     7.150891125414
C                     1.260703748498     0.043181056186     1.720159475073
C                     6.569134327331     0.612855129851     6.082146457712
C                    -0.684927981131    -1.331897112546     1.533481688675
C                     7.068287510056    -0.620265166581     8.048946090701
C                     1.609682741335    -0.648741965031     2.889762927248
C                     5.431447156139    -0.211654956034     5.997017132445
C                     0.733376880030    -1.683036508388     3.307979736209
C                     4.473945206188    -0.044801470890     4.884010918653
C                     2.821985126923    -0.297490769920     3.618070204932
N                    -0.377734514215    -2.010014958691     2.646613888977
N                     5.972195588536    -1.375235276154     7.919265463070
N                     5.149277336494    -1.171559915574     6.889778092498
N                     3.334464791015    -0.797516661117     4.710914512992
N                     4.670264082771     0.874201477000     3.958438151025
O                     3.574644039153     0.717948930124     3.105114889904
O                     1.008778195062    -2.385483620759     4.420290870444
H                    -0.187594691751     0.226403601155     0.120359033479
H                     8.320228692499     0.986085763909     7.296936912834
H                     1.904711228527     0.841663592715     1.366362688866
H                     6.751684356858     1.376036016526     5.332578818827
H                    -1.600672070545    -1.635354085636     1.029543320479
H                     7.684528273366    -0.851183781782     8.914725553640
H                     0.283928619482    -3.032747895472     4.514133707038
