29
0 1 C12FH9N2O4S
C                     6.003106199980    -3.367777009728    -1.384548551641
C                     2.339466153556    -2.228583747277     1.746218293511
C                     2.376877654116    -0.236218896477     0.342878071733
C                     7.041687486210    -3.897983872248    -2.129167923222
C                     1.295361691318    -1.692944293303     2.498161149598
C                     1.334601827230     0.304120063885     1.087319650355
C                     7.037487168559    -1.914682869256    -3.547252318574
C                     2.880905580263    -1.510342631956     0.668570764292
C                     5.448575172503    -2.104648613585    -1.689977598858
C                     7.562906141512    -3.169442677070    -3.216177512775
C                     5.994481389337    -1.407482091806    -2.781355800289
C                     0.801619393198    -0.433719076515     2.152297671714
N                     3.939581688429    -2.154032012980    -0.021922658232
N                     4.399513674494    -1.487264277155    -0.994770726125
O                    -0.535579662241    -0.329538498521     4.428977002142
O                    -0.609687051726     1.699162051444     2.869821434408
O                     8.585534507583    -3.741220875743    -3.913377965396
O                    -1.861466067813    -0.391134831679     2.333647162195
F                     5.501681407660    -0.199541370001    -3.114284922411
S                    -0.546517612307     0.255666069009     3.099284103182
H                     5.589264633488    -3.913850467728    -0.543813887185
H                     2.753857529878    -3.204126290276     1.982137458724
H                     2.815844374650     0.310759068253    -0.484132217719
H                     7.470167115661    -4.867765908550    -1.896959295692
H                     0.876456872606    -2.230689867284     3.342385907095
H                     0.945116488543     1.292965449905     0.866077474377
H                     7.418996780078    -1.329557593639    -4.379918649849
H                     8.862909187934    -3.152214154078    -4.633719459151
H                    -2.266234695233     0.315939654936     1.795068245235
