14
0 1 C5ClH5N2O
C                    -0.095566086306     0.005654396082     0.942334302315
C                    -1.427263513831    -0.390760994438     2.731336949025
C                     0.685671750284     0.909075567542     1.669829811574
C                     0.262643958462     1.082930135976     2.995788391627
C                     1.858700566543     1.637239623414     1.052791276576
N                    -1.147447966554    -0.650941363105     1.453086631448
N                    -0.765366393847     0.456416365515     3.536082985772
O                     1.602264587027     3.023032080173     0.829157611196
Cl                    1.131748225940     2.208231131370     4.040510239625
H                     0.143160459262    -0.195608371510    -0.101621958554
H                    -2.274422537794    -0.911178406650     3.172361174055
H                     2.752175958164     1.495560595753     1.673971517557
H                     2.064292374142     1.211079758685     0.068265172536
H                     1.586938408482     3.469336123197     1.691481081273
