
  -OEChem-05262117483D

 23 24  0     1  0  0  0  0  0999 V2000
   -1.0065    2.5280    0.3294 C   0  0  0  0  0  0  0  0  0  0  0  0
   -1.3873    3.7197    0.9582 C   0  0  0  0  0  0  0  0  0  0  0  0
   -0.4288    1.5853    2.4798 C   0  0  0  0  0  0  0  0  0  0  0  0
   -0.5270    1.4539    1.0864 C   0  0  0  0  0  0  0  0  0  0  0  0
   -1.2953    3.8375    2.3426 C   0  0  0  0  0  0  0  0  0  0  0  0
   -0.8135    2.7651    3.1124 C   0  0  0  0  0  0  0  0  0  0  0  0
   -1.3000   -0.8846    0.1296 C   0  0  0  0  0  0  0  0  0  0  0  0
   -0.5878   -1.1093   -1.2253 C   0  0  0  0  0  0  0  0  0  0  0  0
   -0.1677    0.1452    0.4317 C   0  0  1  0  0  0  0  0  0  0  0  0
    0.1177    0.1877   -1.0292 N   0  0  0  0  0  0  0  0  0  0  0  0
   -1.6453    4.9716    3.0598 O   0  0  0  0  0  0  0  0  0  0  0  0
   -0.7119    2.8757    4.4756 O   0  0  0  0  0  0  0  0  0  0  0  0
   -1.0666    2.4252   -0.7489 H   0  0  0  0  0  0  0  0  0  0  0  0
   -1.7541    4.5585    0.3677 H   0  0  0  0  0  0  0  0  0  0  0  0
   -0.0514    0.7713    3.0946 H   0  0  0  0  0  0  0  0  0  0  0  0
   -2.2687   -0.3924    0.0197 H   0  0  0  0  0  0  0  0  0  0  0  0
   -1.3907   -1.7362    0.8067 H   0  0  0  0  0  0  0  0  0  0  0  0
    0.0740   -1.9870   -1.2010 H   0  0  0  0  0  0  0  0  0  0  0  0
   -1.2065   -1.1528   -2.1279 H   0  0  0  0  0  0  0  0  0  0  0  0
    0.6320   -0.3454    1.0077 H   0  0  0  0  0  0  0  0  0  0  0  0
    1.1075    0.1909   -1.2694 H   0  0  0  0  0  0  0  0  0  0  0  0
   -1.9500    5.6597    2.4484 H   0  0  0  0  0  0  0  0  0  0  0  0
   -1.0162    3.7661    4.7235 H   0  0  0  0  0  0  0  0  0  0  0  0
  1  2  1  0  0  0  0
  1  4  2  0  0  0  0
  1 13  1  0  0  0  0
  2  5  2  0  0  0  0
  2 14  1  0  0  0  0
  3  4  1  0  0  0  0
  3  6  2  0  0  0  0
  3 15  1  0  0  0  0
  4  9  1  0  0  0  0
  5  6  1  0  0  0  0
  5 11  1  0  0  0  0
  6 12  1  0  0  0  0
  7  8  1  0  0  0  0
  7  9  1  0  0  0  0
  7 16  1  0  0  0  0
  7 17  1  0  0  0  0
  8 10  1  0  0  0  0
  8 18  1  0  0  0  0
  8 19  1  0  0  0  0
  9 10  1  0  0  0  0
  9 20  1  0  0  0  0
 10 21  1  0  0  0  0
 11 22  1  0  0  0  0
 12 23  1  0  0  0  0
M  END
$$$$
