
  -OEChem-05262117483D

 43 45  0     1  0  0  0  0  0999 V2000
   -0.0450    6.3348   -1.0381 C   0  0  0  0  0  0  0  0  0  0  0  0
    0.3531    5.9721   -2.3423 C   0  0  0  0  0  0  0  0  0  0  0  0
   -0.9795    5.5677   -0.3446 C   0  0  0  0  0  0  0  0  0  0  0  0
   -0.1540    4.8374   -2.9777 C   0  0  0  0  0  0  0  0  0  0  0  0
   -1.5052    4.4400   -0.9817 C   0  0  0  0  0  0  0  0  0  0  0  0
   -1.0850    4.0737   -2.2670 C   0  0  0  0  0  0  0  0  0  0  0  0
   -2.4839    3.4414   -0.5282 C   0  0  0  0  0  0  0  0  0  0  0  0
   -2.2826    0.1377   -1.8486 C   0  0  0  0  0  0  0  0  0  0  0  0
    0.9124   -0.7485   -0.7692 C   0  0  0  0  0  0  0  0  0  0  0  0
   -0.4961   -1.3162   -1.0337 C   0  0  0  0  0  0  0  0  0  0  0  0
   -1.6043    0.2016    0.5689 C   0  0  0  0  0  0  0  0  0  0  0  0
   -0.2481    0.1001    1.2996 C   0  0  1  0  0  0  0  0  0  0  0  0
    0.9314    0.3531    0.3270 C   0  0  2  0  0  0  0  0  0  0  0  0
   -0.2605    1.0108    2.5318 C   0  0  0  0  0  0  0  0  0  0  0  0
    0.8917    1.7444   -0.3061 C   0  0  0  0  0  0  0  0  0  0  0  0
   -3.2753    1.2841   -1.5842 C   0  0  0  0  0  0  0  0  0  0  0  0
   -1.6768    2.8545   -2.6319 N   0  0  0  0  0  0  0  0  0  0  0  0
   -2.6270    2.5821   -1.6137 N   0  0  0  0  0  0  0  0  0  0  0  0
   -1.5130   -0.2899   -0.8117 N   0  0  0  0  0  0  0  0  0  0  0  0
   -3.0554    3.3043    0.5560 O   0  0  0  0  0  0  0  0  0  0  0  0
   -2.2084   -0.3247   -2.9916 O   0  0  0  0  0  0  0  0  0  0  0  0
    2.1818    0.3102    1.0413 O   0  0  0  0  0  0  0  0  0  0  0  0
    0.3840    7.2194   -0.5765 H   0  0  0  0  0  0  0  0  0  0  0  0
    1.0822    6.5865   -2.8639 H   0  0  0  0  0  0  0  0  0  0  0  0
   -1.3035    5.8274    0.6592 H   0  0  0  0  0  0  0  0  0  0  0  0
    0.1752    4.5539   -3.9735 H   0  0  0  0  0  0  0  0  0  0  0  0
    1.5668   -1.5719   -0.4594 H   0  0  0  0  0  0  0  0  0  0  0  0
    1.3352   -0.3424   -1.6927 H   0  0  0  0  0  0  0  0  0  0  0  0
   -0.5992   -1.6764   -2.0560 H   0  0  0  0  0  0  0  0  0  0  0  0
   -0.7057   -2.1565   -0.3601 H   0  0  0  0  0  0  0  0  0  0  0  0
   -2.3554   -0.3767    1.1254 H   0  0  0  0  0  0  0  0  0  0  0  0
   -1.9308    1.2389    0.5776 H   0  0  0  0  0  0  0  0  0  0  0  0
   -0.1282   -0.9346    1.6558 H   0  0  0  0  0  0  0  0  0  0  0  0
   -0.4564    2.0518    2.2594 H   0  0  0  0  0  0  0  0  0  0  0  0
    0.6966    0.9683    3.0572 H   0  0  0  0  0  0  0  0  0  0  0  0
   -1.0499    0.7021    3.2259 H   0  0  0  0  0  0  0  0  0  0  0  0
    0.8230    2.5306    0.4489 H   0  0  0  0  0  0  0  0  0  0  0  0
    0.0531    1.8348   -0.9961 H   0  0  0  0  0  0  0  0  0  0  0  0
    1.8125    1.9019   -0.8750 H   0  0  0  0  0  0  0  0  0  0  0  0
   -3.7831    1.2270   -0.6197 H   0  0  0  0  0  0  0  0  0  0  0  0
   -4.0224    1.2206   -2.3805 H   0  0  0  0  0  0  0  0  0  0  0  0
   -2.0968    2.8096   -3.5597 H   0  0  0  0  0  0  0  0  0  0  0  0
    2.2568   -0.5617    1.4624 H   0  0  0  0  0  0  0  0  0  0  0  0
  1  2  1  0  0  0  0
  1  3  2  0  0  0  0
  1 23  1  0  0  0  0
  2  4  2  0  0  0  0
  2 24  1  0  0  0  0
  3  5  1  0  0  0  0
  3 25  1  0  0  0  0
  4  6  1  0  0  0  0
  4 26  1  0  0  0  0
  5  6  2  0  0  0  0
  5  7  1  0  0  0  0
  6 17  1  0  0  0  0
  7 18  1  0  0  0  0
  7 20  2  0  0  0  0
  8 16  1  0  0  0  0
  8 19  1  0  0  0  0
  8 21  2  0  0  0  0
  9 10  1  0  0  0  0
  9 13  1  0  0  0  0
  9 27  1  0  0  0  0
  9 28  1  0  0  0  0
 10 19  1  0  0  0  0
 10 29  1  0  0  0  0
 10 30  1  0  0  0  0
 11 12  1  0  0  0  0
 11 19  1  0  0  0  0
 11 31  1  0  0  0  0
 11 32  1  0  0  0  0
 12 13  1  0  0  0  0
 12 14  1  0  0  0  0
 12 33  1  0  0  0  0
 13 15  1  0  0  0  0
 13 22  1  0  0  0  0
 14 34  1  0  0  0  0
 14 35  1  0  0  0  0
 14 36  1  0  0  0  0
 15 37  1  0  0  0  0
 15 38  1  0  0  0  0
 15 39  1  0  0  0  0
 16 18  1  0  0  0  0
 16 40  1  0  0  0  0
 16 41  1  0  0  0  0
 17 18  1  0  0  0  0
 17 42  1  0  0  0  0
 22 43  1  0  0  0  0
M  END
$$$$
