43
0 1 C16H21N3O3
C                    -2.759508623895     3.700459498228     5.015029480901
C                    -2.329962289606     2.836446026644     6.045698752898
C                    -3.192267471319     3.184791001681     3.795076600458
C                    -2.334500174691     1.449833615089     5.892122080549
C                    -3.188643369441     1.795896867954     3.629059553981
C                    -2.770744447813     0.942948121421     4.662661166239
C                    -3.498567099716     0.960144396353     2.460317327133
C                    -1.675485033173    -1.716020695440     1.867884373533
C                    -1.253713439256     0.604036709141    -0.708880203302
C                    -1.744785154622    -0.832507488152    -0.498545835456
C                     0.367992282390    -1.439769098467     0.575711996222
C                     0.902402870462     0.001151055685     0.486657784750
C                     0.281660269618     0.703595559213    -0.744708585568
C                     0.686243621512     0.758002469619     1.805856078310
C                     0.727432537171     2.162124005673    -0.875096066950
C                    -3.181721207640    -1.503059285542     2.079279598809
N                    -2.904641522416    -0.397652384585     4.272892056273
N                    -3.337346113301    -0.337841156662     2.922444006886
N                    -1.099250993049    -1.432800988209     0.676004788625
O                    -3.826025656627     1.260511196787     1.306737667820
O                    -1.025748151484    -2.078827993685     2.866592993039
O                     0.789602678345    -0.049488912039    -1.874031788147
H                    -2.749484308866     4.774014355024     5.180490981268
H                    -1.991281804970     3.261957945629     6.986816365679
H                    -3.520436692057     3.829704893478     2.984716411556
H                    -2.012271206273     0.791906398414     6.694296665309
H                    -1.664610097528     0.981270510588    -1.654588423094
H                    -1.667306694634     1.237738092568     0.079284430681
H                    -2.825922967386    -0.829773996811    -0.390107825715
H                    -1.487837741206    -1.449396017286    -1.366556939236
H                     0.644728912612    -1.995521112397    -0.324071891556
H                     0.765630627904    -1.951314817700     1.450621242449
H                     1.979786340253    -0.069051810335     0.293693140251
H                    -0.373155374475     0.935446780454     2.014150764348
H                     1.190087727371     1.728005495616     1.800328335502
H                     1.087180609043     0.176815008005     2.640993381404
H                     1.819938367612     2.230120292685    -0.867296640460
H                     0.329215700423     2.784291876541    -0.069562254672
H                     0.366095991731     2.583682923269    -1.821353530351
H                    -3.572981094477    -2.381051708702     2.599201780528
H                    -3.772664543267    -1.322360513693     1.185029385916
H                    -2.060361894535    -0.977821947375     4.333609309664
H                     0.456737105114     0.371944955690    -2.682658403091
