
  -OEChem-05262117483D

 51 54  0     1  0  0  0  0  0999 V2000
    2.0541    3.0416   -2.2238 C   0  0  0  0  0  0  0  0  0  0  0  0
   -0.9434    4.9400   -3.2637 C   0  0  0  0  0  0  0  0  0  0  0  0
    0.6795    3.3730   -2.4249 C   0  0  0  0  0  0  0  0  0  0  0  0
    0.3807    4.6547   -2.9339 C   0  0  0  0  0  0  0  0  0  0  0  0
   -1.9177    3.9430   -3.1155 C   0  0  0  0  0  0  0  0  0  0  0  0
   -0.3892    2.4387   -2.2276 C   0  0  0  0  0  0  0  0  0  0  0  0
   -0.2492    0.1919    1.3598 C   0  0  0  0  0  0  0  0  0  0  0  0
    0.9889   -2.4406    1.2978 C   0  0  0  0  0  0  0  0  0  0  0  0
   -3.3725   -0.1854    3.1633 C   0  0  0  0  0  0  0  0  0  0  0  0
   -3.2516    0.0873    4.6487 C   0  0  0  0  0  0  0  0  0  0  0  0
    1.4826   -1.3710    0.3282 C   0  0  0  0  0  0  0  0  0  0  0  0
   -0.7775   -0.9067   -0.8113 C   0  0  0  0  0  0  0  0  0  0  0  0
    0.6302   -1.7994    2.6325 C   0  0  0  0  0  0  0  0  0  0  0  0
   -1.3768    0.3205   -1.4945 C   0  0  0  0  0  0  0  0  0  0  0  0
    0.8929    0.8371   -0.7888 C   0  0  0  0  0  0  0  0  0  0  0  0
   -2.1842   -0.7147    3.9352 C   0  0  0  0  0  0  0  0  0  0  0  0
    0.3778   -0.3432    0.0628 C   0  0  1  0  0  0  0  0  0  0  0  0
    1.4738    5.6709   -3.1405 C   0  0  0  0  0  0  0  0  0  0  0  0
   -3.3523    4.1842   -3.5124 C   0  0  0  0  0  0  0  0  0  0  0  0
   -0.8213   -0.0935    3.7103 C   0  0  0  0  0  0  0  0  0  0  0  0
    3.1942    2.8135   -2.1103 N   0  0  0  0  0  0  0  0  0  0  0  0
   -1.6470    2.7360   -2.6111 N   0  0  0  0  0  0  0  0  0  0  0  0
   -0.2158    1.2021   -1.6804 N   0  0  0  0  0  0  0  0  0  0  0  0
   -0.1705   -0.5803    2.4866 N   0  0  0  0  0  0  0  0  0  0  0  0
   -0.8584    1.2688    1.3517 O   0  0  0  0  0  0  0  0  0  0  0  0
   -1.2132    5.9146   -3.6584 H   0  0  0  0  0  0  0  0  0  0  0  0
    0.1138   -2.9496    0.8792 H   0  0  0  0  0  0  0  0  0  0  0  0
    1.7553   -3.2036    1.4682 H   0  0  0  0  0  0  0  0  0  0  0  0
   -4.1263   -0.8962    2.8367 H   0  0  0  0  0  0  0  0  0  0  0  0
   -3.1874    0.6363    2.4790 H   0  0  0  0  0  0  0  0  0  0  0  0
   -3.0013    1.0989    4.9571 H   0  0  0  0  0  0  0  0  0  0  0  0
   -3.9187   -0.4364    5.3272 H   0  0  0  0  0  0  0  0  0  0  0  0
    2.3619   -0.8680    0.7521 H   0  0  0  0  0  0  0  0  0  0  0  0
    1.7999   -1.8158   -0.6214 H   0  0  0  0  0  0  0  0  0  0  0  0
   -1.5249   -1.4558   -0.2335 H   0  0  0  0  0  0  0  0  0  0  0  0
   -0.3522   -1.5905   -1.5550 H   0  0  0  0  0  0  0  0  0  0  0  0
    0.0663   -2.5057    3.2515 H   0  0  0  0  0  0  0  0  0  0  0  0
    1.5500   -1.5544    3.1852 H   0  0  0  0  0  0  0  0  0  0  0  0
   -1.8405    0.0900   -2.4563 H   0  0  0  0  0  0  0  0  0  0  0  0
   -2.1242    0.8100   -0.8638 H   0  0  0  0  0  0  0  0  0  0  0  0
    1.1798    1.6834   -0.1613 H   0  0  0  0  0  0  0  0  0  0  0  0
    1.7698    0.5225   -1.3624 H   0  0  0  0  0  0  0  0  0  0  0  0
   -2.1780   -1.7846    4.1367 H   0  0  0  0  0  0  0  0  0  0  0  0
    2.0162    5.8602   -2.2088 H   0  0  0  0  0  0  0  0  0  0  0  0
    2.2100    5.3097   -3.8662 H   0  0  0  0  0  0  0  0  0  0  0  0
    1.0639    6.6160   -3.5039 H   0  0  0  0  0  0  0  0  0  0  0  0
   -3.6724    3.4279   -4.2362 H   0  0  0  0  0  0  0  0  0  0  0  0
   -4.0032    4.0889   -2.6372 H   0  0  0  0  0  0  0  0  0  0  0  0
   -3.4930    5.1757   -3.9496 H   0  0  0  0  0  0  0  0  0  0  0  0
   -0.1569   -0.3125    4.5551 H   0  0  0  0  0  0  0  0  0  0  0  0
   -0.9150    0.9899    3.6263 H   0  0  0  0  0  0  0  0  0  0  0  0
  1  3  1  0  0  0  0
  1 21  3  0  0  0  0
  2  4  1  0  0  0  0
  2  5  2  0  0  0  0
  2 26  1  0  0  0  0
  3  4  2  0  0  0  0
  3  6  1  0  0  0  0
  4 18  1  0  0  0  0
  5 19  1  0  0  0  0
  5 22  1  0  0  0  0
  6 22  2  0  0  0  0
  6 23  1  0  0  0  0
  7 17  1  0  0  0  0
  7 24  1  0  0  0  0
  7 25  2  0  0  0  0
  8 11  1  0  0  0  0
  8 13  1  0  0  0  0
  8 27  1  0  0  0  0
  8 28  1  0  0  0  0
  9 10  1  0  0  0  0
  9 16  1  0  0  0  0
  9 29  1  0  0  0  0
  9 30  1  0  0  0  0
 10 16  1  0  0  0  0
 10 31  1  0  0  0  0
 10 32  1  0  0  0  0
 11 17  1  0  0  0  0
 11 33  1  0  0  0  0
 11 34  1  0  0  0  0
 12 14  1  0  0  0  0
 12 17  1  0  0  0  0
 12 35  1  0  0  0  0
 12 36  1  0  0  0  0
 13 24  1  0  0  0  0
 13 37  1  0  0  0  0
 13 38  1  0  0  0  0
 14 23  1  0  0  0  0
 14 39  1  0  0  0  0
 14 40  1  0  0  0  0
 15 17  1  0  0  0  0
 15 23  1  0  0  0  0
 15 41  1  0  0  0  0
 15 42  1  0  0  0  0
 16 20  1  0  0  0  0
 16 43  1  0  0  0  0
 18 44  1  0  0  0  0
 18 45  1  0  0  0  0
 18 46  1  0  0  0  0
 19 47  1  0  0  0  0
 19 48  1  0  0  0  0
 19 49  1  0  0  0  0
 20 24  1  0  0  0  0
 20 50  1  0  0  0  0
 20 51  1  0  0  0  0
M  END
$$$$
