51
0 1 C20H26N4O
C                    -1.752007825577    -1.999289282771     4.533964919347
C                     1.500883203016    -0.793048690924     5.815934199109
C                    -0.421035751838    -1.480297442214     4.538398821111
C                     0.253700387343    -1.415568760977     5.776301059158
C                     2.024185361291    -0.228346258321     4.645060827464
C                     0.216795018326    -0.943554574379     3.373204753919
C                     0.217475333840    -0.672124247471    -1.523763142822
C                    -1.111899100983     1.838224308381    -0.616186363893
C                     3.398694743898     1.992077888582    -2.764177337462
C                     3.669221913477     1.247649004921    -4.056083956686
C                    -1.662838189972     0.437086321067    -0.292007425079
C                    -1.143288289713    -2.014777770550     0.146787614492
C                     0.234623030304     1.786263853013    -1.367138542033
C                    -1.341459678124    -1.969428326075     1.666841632534
C                     0.390201347204    -0.395905538861     0.991097125011
C                     2.728439031741     0.660829917720    -3.029863800297
C                    -0.560614136476    -0.634413962875    -0.202868936845
C                    -0.377381886398    -1.979475729105     7.022645716339
C                     3.338346427566     0.510775872227     4.650137018067
C                     1.245231009033     0.588202007172    -3.331662231465
N                    -2.845447034658    -2.403896008423     4.601733474946
N                     1.403728373262    -0.308453236767     3.463760997861
N                    -0.316664500712    -1.012597568622     2.120803282555
N                     0.410080915726     0.544104749439    -2.127249285410
O                     0.621642477275    -1.727177222154    -2.018940442534
H                     2.050167607786    -0.723392015162     6.749554614381
H                    -1.848673573878     2.380620524527    -1.215893948359
H                    -0.969257034300     2.418148692786     0.300774896607
H                     4.186745906412     2.032470847631    -2.017741485728
H                     2.791150171945     2.891561119036    -2.822251821654
H                     3.236381800309     1.649182274625    -4.968994799564
H                     4.639636411798     0.779502452845    -4.190063233677
H                    -2.235135283943     0.464942944993     0.640614072956
H                    -2.359560954326     0.126235556987    -1.077506678121
H                    -0.420160836697    -2.783382326752    -0.132120933630
H                    -2.076025942145    -2.221291844067    -0.384243753747
H                     0.299928811040     2.614820625821    -2.076664129861
H                     1.070219632758     1.915634975477    -0.668684214594
H                    -2.343885084897    -1.627419512579     1.938409757188
H                    -1.190961938707    -2.948901703230     2.129290978091
H                     1.359921247518    -0.881252011900     0.825332025096
H                     0.584151436088     0.656328630531     1.201886320670
H                     3.099807644656    -0.191713579613    -2.467139040516
H                    -1.312996357818    -1.459849262195     7.254415698295
H                    -0.628655017251    -3.036914271696     6.893109257747
H                     0.294381409298    -1.882194097908     7.878329536452
H                     4.018396643673     0.073515219020     3.912607636839
H                     3.179969292399     1.555912267069     4.363525867010
H                     3.815839931965     0.485578294991     5.632583640881
H                     1.029795806802    -0.311565793619    -3.910467543655
H                     0.935854188697     1.458339704825    -3.922325547679
