
  -OEChem-05262117483D

 51 54  0     1  0  0  0  0  0999 V2000
   -2.1471    2.1832   -2.8001 C   0  0  0  0  0  0  0  0  0  0  0  0
   -3.9616   -0.5212   -4.5488 C   0  0  0  0  0  0  0  0  0  0  0  0
   -2.4843    0.8714   -3.2537 C   0  0  0  0  0  0  0  0  0  0  0  0
   -3.6802    0.7237   -3.9899 C   0  0  0  0  0  0  0  0  0  0  0  0
   -3.0392   -1.5666   -4.3949 C   0  0  0  0  0  0  0  0  0  0  0  0
   -1.6334   -0.2705   -3.0772 C   0  0  0  0  0  0  0  0  0  0  0  0
    0.0400   -0.5647    0.7945 C   0  0  0  0  0  0  0  0  0  0  0  0
    1.2727    2.0508    1.0940 C   0  0  0  0  0  0  0  0  0  0  0  0
   -2.7225    1.2494    3.6518 C   0  0  0  0  0  0  0  0  0  0  0  0
   -3.1244   -0.0888    4.2402 C   0  0  0  0  0  0  0  0  0  0  0  0
    1.9038    1.0399    0.1405 C   0  0  0  0  0  0  0  0  0  0  0  0
    1.4427   -1.0587   -1.2496 C   0  0  0  0  0  0  0  0  0  0  0  0
    0.7253    1.3299    2.3198 C   0  0  0  0  0  0  0  0  0  0  0  0
    0.3235   -1.4781   -2.2033 C   0  0  0  0  0  0  0  0  0  0  0  0
   -0.1695    0.7421   -1.3148 C   0  0  0  0  0  0  0  0  0  0  0  0
   -2.2698   -0.0379    2.9956 C   0  0  0  0  0  0  0  0  0  0  0  0
    0.8451    0.0523   -0.3601 C   0  0  1  0  0  0  0  0  0  0  0  0
   -4.6075    1.8950   -4.1867 C   0  0  0  0  0  0  0  0  0  0  0  0
   -3.2716   -2.9152   -5.0277 C   0  0  0  0  0  0  0  0  0  0  0  0
   -0.8231   -0.4790    3.0604 C   0  0  0  0  0  0  0  0  0  0  0  0
   -1.9109    3.2816   -2.4791 N   0  0  0  0  0  0  0  0  0  0  0  0
   -1.9172   -1.4425   -3.6821 N   0  0  0  0  0  0  0  0  0  0  0  0
   -0.4967   -0.2601   -2.3282 N   0  0  0  0  0  0  0  0  0  0  0  0
   -0.0081    0.1042    1.9862 N   0  0  0  0  0  0  0  0  0  0  0  0
   -0.5902   -1.6159    0.6252 O   0  0  0  0  0  0  0  0  0  0  0  0
   -4.8708   -0.6732   -5.1220 H   0  0  0  0  0  0  0  0  0  0  0  0
    2.0035    2.7970    1.4222 H   0  0  0  0  0  0  0  0  0  0  0  0
    0.4681    2.5929    0.5850 H   0  0  0  0  0  0  0  0  0  0  0  0
   -3.4820    1.8431    3.1515 H   0  0  0  0  0  0  0  0  0  0  0  0
   -1.9885    1.8338    4.2005 H   0  0  0  0  0  0  0  0  0  0  0  0
   -2.6500   -0.3918    5.1703 H   0  0  0  0  0  0  0  0  0  0  0  0
   -4.1571   -0.4090    4.1406 H   0  0  0  0  0  0  0  0  0  0  0  0
    2.3652    1.5429   -0.7165 H   0  0  0  0  0  0  0  0  0  0  0  0
    2.7021    0.4906    0.6571 H   0  0  0  0  0  0  0  0  0  0  0  0
    1.8113   -1.9028   -0.6632 H   0  0  0  0  0  0  0  0  0  0  0  0
    2.2839   -0.6362   -1.8106 H   0  0  0  0  0  0  0  0  0  0  0  0
    1.5526    1.0696    2.9972 H   0  0  0  0  0  0  0  0  0  0  0  0
    0.0504    1.9893    2.8736 H   0  0  0  0  0  0  0  0  0  0  0  0
    0.6917   -1.7864   -3.1852 H   0  0  0  0  0  0  0  0  0  0  0  0
   -0.2750   -2.2893   -1.7861 H   0  0  0  0  0  0  0  0  0  0  0  0
   -1.0696    1.0684   -0.7882 H   0  0  0  0  0  0  0  0  0  0  0  0
    0.2882    1.6301   -1.7645 H   0  0  0  0  0  0  0  0  0  0  0  0
   -2.7603   -0.3058    2.0637 H   0  0  0  0  0  0  0  0  0  0  0  0
   -4.9167    2.3192   -3.2262 H   0  0  0  0  0  0  0  0  0  0  0  0
   -4.1091    2.6980   -4.7399 H   0  0  0  0  0  0  0  0  0  0  0  0
   -5.5006    1.5960   -4.7399 H   0  0  0  0  0  0  0  0  0  0  0  0
   -2.4205   -3.1820   -5.6622 H   0  0  0  0  0  0  0  0  0  0  0  0
   -3.3481   -3.6837   -4.2516 H   0  0  0  0  0  0  0  0  0  0  0  0
   -4.1830   -2.9310   -5.6305 H   0  0  0  0  0  0  0  0  0  0  0  0
   -0.7647   -1.5660    2.9767 H   0  0  0  0  0  0  0  0  0  0  0  0
   -0.3772   -0.1844    4.0172 H   0  0  0  0  0  0  0  0  0  0  0  0
  1  3  1  0  0  0  0
  1 21  3  0  0  0  0
  2  4  1  0  0  0  0
  2  5  2  0  0  0  0
  2 26  1  0  0  0  0
  3  4  2  0  0  0  0
  3  6  1  0  0  0  0
  4 18  1  0  0  0  0
  5 19  1  0  0  0  0
  5 22  1  0  0  0  0
  6 22  2  0  0  0  0
  6 23  1  0  0  0  0
  7 17  1  0  0  0  0
  7 24  1  0  0  0  0
  7 25  2  0  0  0  0
  8 11  1  0  0  0  0
  8 13  1  0  0  0  0
  8 27  1  0  0  0  0
  8 28  1  0  0  0  0
  9 10  1  0  0  0  0
  9 16  1  0  0  0  0
  9 29  1  0  0  0  0
  9 30  1  0  0  0  0
 10 16  1  0  0  0  0
 10 31  1  0  0  0  0
 10 32  1  0  0  0  0
 11 17  1  0  0  0  0
 11 33  1  0  0  0  0
 11 34  1  0  0  0  0
 12 14  1  0  0  0  0
 12 17  1  0  0  0  0
 12 35  1  0  0  0  0
 12 36  1  0  0  0  0
 13 24  1  0  0  0  0
 13 37  1  0  0  0  0
 13 38  1  0  0  0  0
 14 23  1  0  0  0  0
 14 39  1  0  0  0  0
 14 40  1  0  0  0  0
 15 17  1  0  0  0  0
 15 23  1  0  0  0  0
 15 41  1  0  0  0  0
 15 42  1  0  0  0  0
 16 20  1  0  0  0  0
 16 43  1  0  0  0  0
 18 44  1  0  0  0  0
 18 45  1  0  0  0  0
 18 46  1  0  0  0  0
 19 47  1  0  0  0  0
 19 48  1  0  0  0  0
 19 49  1  0  0  0  0
 20 24  1  0  0  0  0
 20 50  1  0  0  0  0
 20 51  1  0  0  0  0
M  END
$$$$
