15
0 1 C7H4N2O2
C                     2.691229549873    -0.145084669311     3.785592617696
C                     0.223005637866    -0.447313305676     0.960875412335
C                    -0.575143225972    -1.434783465960     1.539281671991
C                     0.724020661813    -1.509702110568     3.418327398334
C                     1.598529527271    -0.514963415540     2.930692434946
C                     1.334999297525     0.032220542003     1.657433417364
C                     2.152019298042     1.093073838676     0.981355374738
N                     3.535370528034     0.075656582228     4.557039019564
N                    -0.335375534826    -1.963023397955     2.748572039105
O                     1.888253399225     1.537098593743    -0.119478392640
O                     3.205286421350     1.503506128070     1.714586826287
H                    -0.002652797108    -0.043762378519    -0.020158630125
H                    -1.444711174398    -1.819320442092     1.010346962070
H                     0.909437953388    -1.944608893582     4.397932990415
H                     3.669594491276     2.187722058930     1.193851934207
