
  -OEChem-05262117483D

 34 36  0     0  0  0  0  0  0999 V2000
   -0.7426   -2.3286  -12.9318 C   0  0  0  0  0  0  0  0  0  0  0  0
   -3.7841    2.5101   -8.1235 C   0  0  0  0  0  0  0  0  0  0  0  0
   -4.8907    1.6556   -8.2765 C   0  0  0  0  0  0  0  0  0  0  0  0
   -2.5005    1.9981   -7.9362 C   0  0  0  0  0  0  0  0  0  0  0  0
   -4.7301    0.2678   -8.2430 C   0  0  0  0  0  0  0  0  0  0  0  0
   -0.5815   -2.8823  -10.4648 C   0  0  0  0  0  0  0  0  0  0  0  0
   -0.9233   -3.1338  -11.7799 C   0  0  0  0  0  0  0  0  0  0  0  0
   -0.9740   -4.0255   -9.7020 C   0  0  0  0  0  0  0  0  0  0  0  0
   -2.3191    0.6074   -7.9010 C   0  0  0  0  0  0  0  0  0  0  0  0
   -3.4440   -0.2413   -8.0528 C   0  0  0  0  0  0  0  0  0  0  0  0
   -1.5566   -4.9411  -10.5991 C   0  0  0  0  0  0  0  0  0  0  0  0
   -1.2663   -1.3330   -7.7453 C   0  0  0  0  0  0  0  0  0  0  0  0
   -0.7876   -4.3100   -8.2882 C   0  0  0  0  0  0  0  0  0  0  0  0
   -2.1619   -6.2880  -10.3651 C   0  0  0  0  0  0  0  0  0  0  0  0
   -2.0542   -5.0120  -13.0583 C   0  0  0  0  0  0  0  0  0  0  0  0
   -0.6038   -1.6859  -13.8968 N   0  0  0  0  0  0  0  0  0  0  0  0
   -1.1037   -0.0431   -7.7348 N   0  0  0  0  0  0  0  0  0  0  0  0
   -0.4101   -3.5685   -7.2984 N   0  0  0  0  0  0  0  0  0  0  0  0
   -1.5233   -4.3939  -11.8496 N   0  0  0  0  0  0  0  0  0  0  0  0
   -0.1922   -2.2019   -7.5970 N   0  0  0  0  0  0  0  0  0  0  0  0
   -2.9317   -1.9215   -7.9625 S   0  0  0  0  0  0  0  0  0  0  0  0
   -3.9322    3.5863   -8.1532 H   0  0  0  0  0  0  0  0  0  0  0  0
   -5.8819    2.0757   -8.4227 H   0  0  0  0  0  0  0  0  0  0  0  0
   -1.6402    2.6504   -7.8188 H   0  0  0  0  0  0  0  0  0  0  0  0
   -5.5855   -0.3917   -8.3604 H   0  0  0  0  0  0  0  0  0  0  0  0
   -0.0990   -1.9874  -10.1048 H   0  0  0  0  0  0  0  0  0  0  0  0
   -0.9653   -5.3399   -7.9810 H   0  0  0  0  0  0  0  0  0  0  0  0
   -3.2202   -6.3042  -10.6506 H   0  0  0  0  0  0  0  0  0  0  0  0
   -1.6517   -7.0654  -10.9453 H   0  0  0  0  0  0  0  0  0  0  0  0
   -2.1035   -6.5646   -9.3124 H   0  0  0  0  0  0  0  0  0  0  0  0
   -1.5664   -5.9729  -13.2429 H   0  0  0  0  0  0  0  0  0  0  0  0
   -3.1331   -5.1680  -12.9683 H   0  0  0  0  0  0  0  0  0  0  0  0
   -1.8649   -4.3546  -13.9065 H   0  0  0  0  0  0  0  0  0  0  0  0
    0.4814   -1.8129   -6.9428 H   0  0  0  0  0  0  0  0  0  0  0  0
  1  7  1  0  0  0  0
  1 16  3  0  0  0  0
  2  3  1  0  0  0  0
  2  4  2  0  0  0  0
  2 22  1  0  0  0  0
  3  5  2  0  0  0  0
  3 23  1  0  0  0  0
  4  9  1  0  0  0  0
  4 24  1  0  0  0  0
  5 10  1  0  0  0  0
  5 25  1  0  0  0  0
  6  7  2  0  0  0  0
  6  8  1  0  0  0  0
  6 26  1  0  0  0  0
  7 19  1  0  0  0  0
  8 11  2  0  0  0  0
  8 13  1  0  0  0  0
  9 10  2  0  0  0  0
  9 17  1  0  0  0  0
 10 21  1  0  0  0  0
 11 14  1  0  0  0  0
 11 19  1  0  0  0  0
 12 17  2  0  0  0  0
 12 20  1  0  0  0  0
 12 21  1  0  0  0  0
 13 18  2  0  0  0  0
 13 27  1  0  0  0  0
 14 28  1  0  0  0  0
 14 29  1  0  0  0  0
 14 30  1  0  0  0  0
 15 19  1  0  0  0  0
 15 31  1  0  0  0  0
 15 32  1  0  0  0  0
 15 33  1  0  0  0  0
 18 20  1  0  0  0  0
 20 34  1  0  0  0  0
M  END
$$$$
