
  -OEChem-05262117483D

 37 39  0     0  0  0  0  0  0999 V2000
   -0.5752    4.7629    2.0927 C   0  0  0  0  0  0  0  0  0  0  0  0
   -6.4224    5.2743    2.8081 C   0  0  0  0  0  0  0  0  0  0  0  0
   -4.7383    6.9388    3.3742 C   0  0  0  0  0  0  0  0  0  0  0  0
   -7.4340    6.1356    3.2421 C   0  0  0  0  0  0  0  0  0  0  0  0
   -5.7437    7.8042    3.8137 C   0  0  0  0  0  0  0  0  0  0  0  0
   -5.0768    5.6770    2.8561 C   0  0  0  0  0  0  0  0  0  0  0  0
   -7.0742    7.3794    3.7644 C   0  0  0  0  0  0  0  0  0  0  0  0
   -2.1773    2.8934    1.5294 C   0  0  0  0  0  0  0  0  0  0  0  0
   -2.0791    0.8583    0.7360 C   0  0  0  0  0  0  0  0  0  0  0  0
   -1.9104    4.2408    2.0321 C   0  0  0  0  0  0  0  0  0  0  0  0
   -1.5495   -0.4193    0.1751 C   0  0  0  0  0  0  0  0  0  0  0  0
   -0.6999   -0.2281   -1.0984 C   0  0  0  0  0  0  0  0  0  0  0  0
    0.7088    0.3322   -0.8533 C   0  0  0  0  0  0  0  0  0  0  0  0
    0.7817    1.7401   -0.2435 C   0  0  0  0  0  0  0  0  0  0  0  0
    0.1822    1.8652    1.1615 C   0  0  0  0  0  0  0  0  0  0  0  0
    0.5173    5.1710    2.1268 N   0  0  0  0  0  0  0  0  0  0  0  0
   -3.4196    2.4383    1.3622 N   0  0  0  0  0  0  0  0  0  0  0  0
   -3.3562    1.1653    0.8602 N   0  0  0  0  0  0  0  0  0  0  0  0
   -2.8289    5.0958    2.4365 N   0  0  0  0  0  0  0  0  0  0  0  0
   -1.2879    1.9053    1.1493 N   0  0  0  0  0  0  0  0  0  0  0  0
   -4.1035    4.7716    2.4095 N   0  0  0  0  0  0  0  0  0  0  0  0
   -8.6992    9.0244    3.7627 I   0  0  0  0  0  0  0  0  0  0  0  0
   -6.6822    4.2913    2.4220 H   0  0  0  0  0  0  0  0  0  0  0  0
   -3.6969    7.2365    3.4231 H   0  0  0  0  0  0  0  0  0  0  0  0
   -8.4720    5.8261    3.1833 H   0  0  0  0  0  0  0  0  0  0  0  0
   -5.4816    8.7833    4.2009 H   0  0  0  0  0  0  0  0  0  0  0  0
   -0.9604   -0.9501    0.9352 H   0  0  0  0  0  0  0  0  0  0  0  0
   -2.4226   -1.0389   -0.0422 H   0  0  0  0  0  0  0  0  0  0  0  0
   -0.6008   -1.2043   -1.5859 H   0  0  0  0  0  0  0  0  0  0  0  0
   -1.2462    0.4159   -1.7980 H   0  0  0  0  0  0  0  0  0  0  0  0
    1.2569   -0.3613   -0.2004 H   0  0  0  0  0  0  0  0  0  0  0  0
    1.2492    0.3422   -1.8067 H   0  0  0  0  0  0  0  0  0  0  0  0
    1.8347    2.0341   -0.1715 H   0  0  0  0  0  0  0  0  0  0  0  0
    0.2979    2.4734   -0.8996 H   0  0  0  0  0  0  0  0  0  0  0  0
    0.4866    1.0191    1.7876 H   0  0  0  0  0  0  0  0  0  0  0  0
    0.5429    2.7673    1.6448 H   0  0  0  0  0  0  0  0  0  0  0  0
   -4.3702    3.8441    2.0365 H   0  0  0  0  0  0  0  0  0  0  0  0
  1 10  1  0  0  0  0
  1 16  3  0  0  0  0
  2  4  1  0  0  0  0
  2  6  2  0  0  0  0
  2 23  1  0  0  0  0
  3  5  2  0  0  0  0
  3  6  1  0  0  0  0
  3 24  1  0  0  0  0
  4  7  2  0  0  0  0
  4 25  1  0  0  0  0
  5  7  1  0  0  0  0
  5 26  1  0  0  0  0
  6 21  1  0  0  0  0
  7 22  1  0  0  0  0
  8 10  1  0  0  0  0
  8 17  2  0  0  0  0
  8 20  1  0  0  0  0
  9 11  1  0  0  0  0
  9 18  2  0  0  0  0
  9 20  1  0  0  0  0
 10 19  2  0  0  0  0
 11 12  1  0  0  0  0
 11 27  1  0  0  0  0
 11 28  1  0  0  0  0
 12 13  1  0  0  0  0
 12 29  1  0  0  0  0
 12 30  1  0  0  0  0
 13 14  1  0  0  0  0
 13 31  1  0  0  0  0
 13 32  1  0  0  0  0
 14 15  1  0  0  0  0
 14 33  1  0  0  0  0
 14 34  1  0  0  0  0
 15 20  1  0  0  0  0
 15 35  1  0  0  0  0
 15 36  1  0  0  0  0
 17 18  1  0  0  0  0
 19 21  1  0  0  0  0
 21 37  1  0  0  0  0
M  END
$$$$
