47
0 1 C18H22N2O4S
C                     0.619009847110     1.352790595188    -4.481034921369
C                     0.111204886872     0.798199627808    -3.308206213472
C                     2.166606311276     1.361488453453    -2.097899741445
C                     1.901882411204     1.900179767653    -4.441608276949
C                     2.664220630797     1.902943506763    -3.278780081690
C                     0.880214438268     0.813374144165    -2.132002778458
C                     2.685244423326     2.539375312302    -5.524593405021
C                     1.009243082533    -0.794505108319    -0.250408217162
C                    -0.854818964631     0.588393643407    -0.309651876067
C                     3.983464629392     2.557158391843    -3.591956706613
C                     0.111965991870    -1.170315518321     0.929657502393
C                     0.878348697009    -0.980033961033     2.246068915924
C                    -0.357279237930    -2.624389562693     0.755764097644
C                    -3.230199803964     1.164168987433     3.583243660961
C                    -1.967478509141     1.011708281028     2.729625325337
C                    -3.095084997347     2.263185719023     4.642656680144
C                    -2.116078984213    -0.113940463170     1.699185435785
C                    -4.364275732285     2.442567040704     5.463480025445
N                     0.357820819054     0.219918994822    -0.943507890366
N                    -0.991631752747    -0.213192607422     0.773194925083
O                     2.394640323292     2.734623748057    -6.681210139348
O                     2.082093286955    -1.295836294482    -0.529198922811
O                     3.901206831341     2.914693291159    -4.988144749132
O                    -4.122511847114     3.464827834993     6.437053568836
S                    -1.882729064318     1.789750194188    -0.813693148063
H                     0.043607319013     1.357585956737    -5.401823969347
H                    -0.879741803642     0.359945232717    -3.286685862215
H                     2.743184607634     1.347584978423    -1.178611731084
H                     4.157432695755     3.470297410643    -3.013580096756
H                     4.835898454749     1.883205307932    -3.459131094151
H                     0.254970285646    -1.265699715836     3.098081272799
H                     1.188540825965     0.060672966551     2.372934209667
H                     1.769015290081    -1.613194975151     2.237207473107
H                    -0.983605901913    -2.931709973930     1.598093638711
H                     0.513963138317    -3.282567355361     0.712927260649
H                    -0.931317637138    -2.740242292383    -0.167810840803
H                    -4.080027690855     1.388818307925     2.925068911063
H                    -3.462534079331     0.208202386949     4.073831316765
H                    -1.103301410671     0.813237187811     3.373596916567
H                    -1.766883182181     1.946119419347     2.196779080352
H                    -2.268897869505     2.029884419929     5.325213566364
H                    -2.850469095724     3.218292882799     4.163234187226
H                    -2.217652644763    -1.081265037549     2.199710759141
H                    -3.019406189676     0.047642194701     1.104370936024
H                    -4.630057722190     1.493883955971     5.955577434414
H                    -5.199214228792     2.723311278111     4.803380695073
H                    -4.938040615668     3.603689771898     6.942515279468
