
  -OEChem-05262117493D

 66 70  0     1  0  0  0  0  0999 V2000
   -7.5523    4.9253   -5.4342 C   0  0  0  0  0  0  0  0  0  0  0  0
   -8.4928    5.6267   -5.7584 C   0  0  0  0  0  0  0  0  0  0  0  0
   -0.5109   -1.3281   -2.2492 C   0  0  0  0  0  0  0  0  0  0  0  0
    0.7505   -0.7487   -2.0894 C   0  0  0  0  0  0  0  0  0  0  0  0
   -5.9201    3.1523   -5.9826 C   0  0  0  0  0  0  0  0  0  0  0  0
   -1.6142   -0.5109   -2.5000 C   0  0  0  0  0  0  0  0  0  0  0  0
    0.9001    0.6372   -2.1999 C   0  0  0  0  0  0  0  0  0  0  0  0
   -4.8528    2.3424   -5.6404 C   0  0  0  0  0  0  0  0  0  0  0  0
   -5.8735    4.1947   -3.7918 C   0  0  0  0  0  0  0  0  0  0  0  0
   -6.4501    4.0973   -5.0618 C   0  0  0  0  0  0  0  0  0  0  0  0
   -4.7941    3.3715   -3.4412 C   0  0  0  0  0  0  0  0  0  0  0  0
   -1.4695    0.8783   -2.5742 C   0  0  0  0  0  0  0  0  0  0  0  0
   -0.1978    1.4723   -2.4462 C   0  0  0  0  0  0  0  0  0  0  0  0
   -4.2678    2.4368   -4.3587 C   0  0  0  0  0  0  0  0  0  0  0  0
   -4.2168    3.4527   -2.0987 C   0  0  0  0  0  0  0  0  0  0  0  0
   -2.6751    1.7139   -2.8599 C   0  0  0  0  0  0  0  0  0  0  0  0
   -4.0895    1.0211    2.8437 C   0  0  0  0  0  0  0  0  0  0  0  0
  -10.6637    6.8016   -5.0603 C   0  0  0  0  0  0  0  0  0  0  0  0
   -9.7093    7.8720   -5.5157 C   0  0  0  0  0  0  0  0  0  0  0  0
   -3.1827    1.8430    1.9203 C   0  0  0  0  0  0  0  0  0  0  0  0
   -4.2179   -0.4200    2.3432 C   0  0  0  0  0  0  0  0  0  0  0  0
   -3.7903    0.2569    0.0728 C   0  0  0  0  0  0  0  0  0  0  0  0
   -9.6064    6.4698   -6.1111 C   0  0  0  0  0  0  0  0  0  0  0  0
   -3.6582    1.7323    0.4660 C   0  0  2  0  0  0  0  0  0  0  0  0
   -0.0113    2.9646   -2.5985 C   0  0  0  0  0  0  0  0  0  0  0  0
   -3.9446   -2.7578    0.2425 C   0  0  0  0  0  0  0  0  0  0  0  0
   -6.0332   -1.6907   -0.7188 C   0  0  0  0  0  0  0  0  0  0  0  0
   -2.6905    2.4811   -0.4589 C   0  0  0  0  0  0  0  0  0  0  0  0
   -5.1116   -1.7842    0.5042 C   0  0  0  0  0  0  0  0  0  0  0  0
   -3.1857    1.6317   -4.0523 N   0  0  0  0  0  0  0  0  0  0  0  0
   -3.1651    2.5430   -1.8571 N   0  0  0  0  0  0  0  0  0  0  0  0
   -4.7117   -0.4417    0.9664 N   0  0  1  0  0  0  0  0  0  0  0  0
   -4.5992    4.2190   -1.2148 O   0  0  0  0  0  0  0  0  0  0  0  0
   -0.6356   -2.4056   -2.1829 H   0  0  0  0  0  0  0  0  0  0  0  0
    1.6188   -1.3729   -1.8945 H   0  0  0  0  0  0  0  0  0  0  0  0
   -6.3689    3.0773   -6.9689 H   0  0  0  0  0  0  0  0  0  0  0  0
   -2.5984   -0.9472   -2.6414 H   0  0  0  0  0  0  0  0  0  0  0  0
    1.8890    1.0797   -2.1043 H   0  0  0  0  0  0  0  0  0  0  0  0
   -4.4398    1.6239   -6.3421 H   0  0  0  0  0  0  0  0  0  0  0  0
   -6.2532    4.8999   -3.0600 H   0  0  0  0  0  0  0  0  0  0  0  0
   -3.6943    1.0210    3.8662 H   0  0  0  0  0  0  0  0  0  0  0  0
   -5.0874    1.4735    2.8744 H   0  0  0  0  0  0  0  0  0  0  0  0
  -10.5209    6.3760   -4.0727 H   0  0  0  0  0  0  0  0  0  0  0  0
  -11.6949    6.8475   -5.3977 H   0  0  0  0  0  0  0  0  0  0  0  0
  -10.0817    8.6570   -6.1671 H   0  0  0  0  0  0  0  0  0  0  0  0
   -8.9183    8.1735   -4.8372 H   0  0  0  0  0  0  0  0  0  0  0  0
   -3.1641    2.8931    2.2346 H   0  0  0  0  0  0  0  0  0  0  0  0
   -2.1515    1.4672    1.9944 H   0  0  0  0  0  0  0  0  0  0  0  0
   -3.2341   -0.9208    2.4404 H   0  0  0  0  0  0  0  0  0  0  0  0
   -4.9238   -0.9720    2.9735 H   0  0  0  0  0  0  0  0  0  0  0  0
   -4.1713    0.1857   -0.9487 H   0  0  0  0  0  0  0  0  0  0  0  0
   -2.7836   -0.2017    0.0762 H   0  0  0  0  0  0  0  0  0  0  0  0
   -9.9664    6.3565   -7.1306 H   0  0  0  0  0  0  0  0  0  0  0  0
   -4.6448    2.1985    0.3880 H   0  0  0  0  0  0  0  0  0  0  0  0
   -0.5172    3.3359   -3.4954 H   0  0  0  0  0  0  0  0  0  0  0  0
   -0.4208    3.5177   -1.7460 H   0  0  0  0  0  0  0  0  0  0  0  0
    1.0489    3.2179   -2.6777 H   0  0  0  0  0  0  0  0  0  0  0  0
   -3.3412   -2.4388   -0.6138 H   0  0  0  0  0  0  0  0  0  0  0  0
   -3.2815   -2.8389    1.1097 H   0  0  0  0  0  0  0  0  0  0  0  0
   -4.3289   -3.7597    0.0219 H   0  0  0  0  0  0  0  0  0  0  0  0
   -5.4954   -1.3721   -1.6182 H   0  0  0  0  0  0  0  0  0  0  0  0
   -6.8406   -0.9767   -0.5326 H   0  0  0  0  0  0  0  0  0  0  0  0
   -6.4737   -2.6695   -0.9364 H   0  0  0  0  0  0  0  0  0  0  0  0
   -1.7147    1.9983   -0.4462 H   0  0  0  0  0  0  0  0  0  0  0  0
   -2.5789    3.5100   -0.1124 H   0  0  0  0  0  0  0  0  0  0  0  0
   -5.7107   -2.1995    1.3240 H   0  0  0  0  0  0  0  0  0  0  0  0
  1  2  3  0  0  0  0
  1 10  1  0  0  0  0
  2 23  1  0  0  0  0
  3  4  1  0  0  0  0
  3  6  2  0  0  0  0
  3 34  1  0  0  0  0
  4  7  2  0  0  0  0
  4 35  1  0  0  0  0
  5  8  2  0  0  0  0
  5 10  1  0  0  0  0
  5 36  1  0  0  0  0
  6 12  1  0  0  0  0
  6 37  1  0  0  0  0
  7 13  1  0  0  0  0
  7 38  1  0  0  0  0
  8 14  1  0  0  0  0
  8 39  1  0  0  0  0
  9 10  2  0  0  0  0
  9 11  1  0  0  0  0
  9 40  1  0  0  0  0
 11 14  2  0  0  0  0
 11 15  1  0  0  0  0
 12 13  2  0  0  0  0
 12 16  1  0  0  0  0
 13 25  1  0  0  0  0
 14 30  1  0  0  0  0
 15 31  1  0  0  0  0
 15 33  2  0  0  0  0
 16 30  2  0  0  0  0
 16 31  1  0  0  0  0
 17 20  1  0  0  0  0
 17 21  1  0  0  0  0
 17 41  1  0  0  0  0
 17 42  1  0  0  0  0
 18 19  1  0  0  0  0
 18 23  1  0  0  0  0
 18 43  1  0  0  0  0
 18 44  1  0  0  0  0
 19 23  1  0  0  0  0
 19 45  1  0  0  0  0
 19 46  1  0  0  0  0
 20 24  1  0  0  0  0
 20 47  1  0  0  0  0
 20 48  1  0  0  0  0
 21 32  1  0  0  0  0
 21 49  1  0  0  0  0
 21 50  1  0  0  0  0
 22 24  1  0  0  0  0
 22 32  1  0  0  0  0
 22 51  1  0  0  0  0
 22 52  1  0  0  0  0
 23 53  1  0  0  0  0
 24 28  1  0  0  0  0
 24 54  1  0  0  0  0
 25 55  1  0  0  0  0
 25 56  1  0  0  0  0
 25 57  1  0  0  0  0
 26 29  1  0  0  0  0
 26 58  1  0  0  0  0
 26 59  1  0  0  0  0
 26 60  1  0  0  0  0
 27 29  1  0  0  0  0
 27 61  1  0  0  0  0
 27 62  1  0  0  0  0
 27 63  1  0  0  0  0
 28 31  1  0  0  0  0
 28 64  1  0  0  0  0
 28 65  1  0  0  0  0
 29 32  1  0  0  0  0
 29 66  1  0  0  0  0
M  END
$$$$
