
  -OEChem-05262117493D

 47 49  0     0  0  0  0  0  0999 V2000
    2.2105    0.7574   -4.4043 C   0  0  0  0  0  0  0  0  0  0  0  0
    1.6242    0.1864   -3.2759 C   0  0  0  0  0  0  0  0  0  0  0  0
    1.4575    2.3781   -2.1928 C   0  0  0  0  0  0  0  0  0  0  0  0
    2.3993    2.1392   -4.4101 C   0  0  0  0  0  0  0  0  0  0  0  0
    2.0302    2.9351   -3.3305 C   0  0  0  0  0  0  0  0  0  0  0  0
    1.2521    0.9938   -2.1880 C   0  0  0  0  0  0  0  0  0  0  0  0
    2.9837    3.0052   -5.4608 C   0  0  0  0  0  0  0  0  0  0  0  0
    1.2779   -0.6821   -0.3611 C   0  0  0  0  0  0  0  0  0  0  0  0
   -0.5688    0.7222   -0.4567 C   0  0  0  0  0  0  0  0  0  0  0  0
    2.3672    4.3620   -3.6717 C   0  0  0  0  0  0  0  0  0  0  0  0
    0.3437   -1.0608    0.7883 C   0  0  0  0  0  0  0  0  0  0  0  0
    1.0743   -0.8979    2.1284 C   0  0  0  0  0  0  0  0  0  0  0  0
   -0.1416   -2.5056    0.5822 C   0  0  0  0  0  0  0  0  0  0  0  0
   -3.1232    1.2546    3.3365 C   0  0  0  0  0  0  0  0  0  0  0  0
   -1.8312    1.1050    2.5226 C   0  0  0  0  0  0  0  0  0  0  0  0
   -3.4626    0.0332    4.2008 C   0  0  0  0  0  0  0  0  0  0  0  0
   -1.9127   -0.0229    1.4852 C   0  0  0  0  0  0  0  0  0  0  0  0
   -4.6761    0.2677    5.0890 C   0  0  0  0  0  0  0  0  0  0  0  0
    0.6735    0.3711   -1.0415 N   0  0  0  0  0  0  0  0  0  0  0  0
   -0.7413   -0.0849    0.6158 N   0  0  0  0  0  0  0  0  0  0  0  0
    3.4297    2.7161   -6.5461 O   0  0  0  0  0  0  0  0  0  0  0  0
    2.3409   -1.2081   -0.6294 O   0  0  0  0  0  0  0  0  0  0  0  0
    2.9497    4.3034   -4.9915 O   0  0  0  0  0  0  0  0  0  0  0  0
   -4.9160   -0.9313    5.8353 O   0  0  0  0  0  0  0  0  0  0  0  0
   -1.6123    1.8850   -1.0204 S   0  0  0  0  0  0  0  0  0  0  0  0
    2.5082    0.1539   -5.2564 H   0  0  0  0  0  0  0  0  0  0  0  0
    1.4566   -0.8837   -3.2226 H   0  0  0  0  0  0  0  0  0  0  0  0
    1.1620    2.9785   -1.3396 H   0  0  0  0  0  0  0  0  0  0  0  0
    1.4844    5.0082   -3.7134 H   0  0  0  0  0  0  0  0  0  0  0  0
    3.1019    4.8054   -2.9919 H   0  0  0  0  0  0  0  0  0  0  0  0
    0.4194   -1.1803    2.9577 H   0  0  0  0  0  0  0  0  0  0  0  0
    1.3991    0.1358    2.2744 H   0  0  0  0  0  0  0  0  0  0  0  0
    1.9536   -1.5467    2.1407 H   0  0  0  0  0  0  0  0  0  0  0  0
   -0.7856   -2.8210    1.4078 H   0  0  0  0  0  0  0  0  0  0  0  0
    0.7230   -3.1726    0.5435 H   0  0  0  0  0  0  0  0  0  0  0  0
   -0.7008   -2.5990   -0.3531 H   0  0  0  0  0  0  0  0  0  0  0  0
   -3.0223    2.1367    3.9812 H   0  0  0  0  0  0  0  0  0  0  0  0
   -3.9550    1.4695    2.6527 H   0  0  0  0  0  0  0  0  0  0  0  0
   -0.9859    0.9222    3.1964 H   0  0  0  0  0  0  0  0  0  0  0  0
   -1.6274    2.0391    1.9912 H   0  0  0  0  0  0  0  0  0  0  0  0
   -3.6681   -0.8436    3.5762 H   0  0  0  0  0  0  0  0  0  0  0  0
   -2.6082   -0.2243    4.8396 H   0  0  0  0  0  0  0  0  0  0  0  0
   -2.0067   -0.9957    1.9716 H   0  0  0  0  0  0  0  0  0  0  0  0
   -2.7939    0.1193    0.8528 H   0  0  0  0  0  0  0  0  0  0  0  0
   -5.5495    0.5216    4.4690 H   0  0  0  0  0  0  0  0  0  0  0  0
   -4.4867    1.1155    5.7651 H   0  0  0  0  0  0  0  0  0  0  0  0
   -5.6905   -0.7892    6.4009 H   0  0  0  0  0  0  0  0  0  0  0  0
  1  2  1  0  0  0  0
  1  4  2  0  0  0  0
  1 26  1  0  0  0  0
  2  6  2  0  0  0  0
  2 27  1  0  0  0  0
  3  5  2  0  0  0  0
  3  6  1  0  0  0  0
  3 28  1  0  0  0  0
  4  5  1  0  0  0  0
  4  7  1  0  0  0  0
  5 10  1  0  0  0  0
  6 19  1  0  0  0  0
  7 21  2  0  0  0  0
  7 23  1  0  0  0  0
  8 11  1  0  0  0  0
  8 19  1  0  0  0  0
  8 22  2  0  0  0  0
  9 19  1  0  0  0  0
  9 20  1  0  0  0  0
  9 25  2  0  0  0  0
 10 23  1  0  0  0  0
 10 29  1  0  0  0  0
 10 30  1  0  0  0  0
 11 12  1  0  0  0  0
 11 13  1  0  0  0  0
 11 20  1  0  0  0  0
 12 31  1  0  0  0  0
 12 32  1  0  0  0  0
 12 33  1  0  0  0  0
 13 34  1  0  0  0  0
 13 35  1  0  0  0  0
 13 36  1  0  0  0  0
 14 15  1  0  0  0  0
 14 16  1  0  0  0  0
 14 37  1  0  0  0  0
 14 38  1  0  0  0  0
 15 17  1  0  0  0  0
 15 39  1  0  0  0  0
 15 40  1  0  0  0  0
 16 18  1  0  0  0  0
 16 41  1  0  0  0  0
 16 42  1  0  0  0  0
 17 20  1  0  0  0  0
 17 43  1  0  0  0  0
 17 44  1  0  0  0  0
 18 24  1  0  0  0  0
 18 45  1  0  0  0  0
 18 46  1  0  0  0  0
 24 47  1  0  0  0  0
M  END
$$$$
