
  -OEChem-05262117493D

 39 41  0     1  0  0  0  0  0999 V2000
    2.9586   -1.5114    5.2746 C   0  0  0  0  0  0  0  0  0  0  0  0
   -0.6589   -4.9811    4.3686 C   0  0  0  0  0  0  0  0  0  0  0  0
   -0.9486   -3.8941    3.5350 C   0  0  0  0  0  0  0  0  0  0  0  0
    0.4083   -4.8993    5.2666 C   0  0  0  0  0  0  0  0  0  0  0  0
   -0.1778   -2.7326    3.6059 C   0  0  0  0  0  0  0  0  0  0  0  0
    1.1838   -3.7375    5.3349 C   0  0  0  0  0  0  0  0  0  0  0  0
    0.5934   -1.2828    8.8127 C   0  0  0  0  0  0  0  0  0  0  0  0
   -0.6273   -1.6051    7.1294 C   0  0  0  0  0  0  0  0  0  0  0  0
    0.8936   -2.6496    4.5058 C   0  0  0  0  0  0  0  0  0  0  0  0
    2.3530    0.4437    0.7005 C   0  0  0  0  0  0  0  0  0  0  0  0
    3.6510    0.7479    1.5072 C   0  0  0  0  0  0  0  0  0  0  0  0
    2.0014   -1.0271    1.0207 C   0  0  0  0  0  0  0  0  0  0  0  0
    3.9670   -0.5393    2.3070 C   0  0  0  0  0  0  0  0  0  0  0  0
    2.6275   -1.2798    2.3930 C   0  0  0  0  0  0  0  0  0  0  0  0
    0.7888   -0.3137    5.4720 C   0  0  0  0  0  0  0  0  0  0  0  0
    1.6334   -1.3160    4.6281 C   0  0  1  0  0  0  0  0  0  0  0  0
    4.0096   -1.6654    5.7442 N   0  0  0  0  0  0  0  0  0  0  0  0
   -0.5545   -1.9133    8.4151 N   0  0  0  0  0  0  0  0  0  0  0  0
    1.2232   -0.6086    7.8590 N   0  0  0  0  0  0  0  0  0  0  0  0
    0.4203   -0.8175    6.7744 N   0  0  0  0  0  0  0  0  0  0  0  0
    1.7677   -0.6483    3.3864 O   0  0  0  0  0  0  0  0  0  0  0  0
   -1.2613   -5.8840    4.3171 H   0  0  0  0  0  0  0  0  0  0  0  0
   -1.7748   -3.9517    2.8312 H   0  0  0  0  0  0  0  0  0  0  0  0
    0.6370   -5.7361    5.9205 H   0  0  0  0  0  0  0  0  0  0  0  0
   -0.3994   -1.8878    2.9608 H   0  0  0  0  0  0  0  0  0  0  0  0
    2.0060   -3.6802    6.0419 H   0  0  0  0  0  0  0  0  0  0  0  0
    0.9698   -1.3150    9.8269 H   0  0  0  0  0  0  0  0  0  0  0  0
   -1.3892   -1.9244    6.4301 H   0  0  0  0  0  0  0  0  0  0  0  0
    1.5424    1.1018    1.0259 H   0  0  0  0  0  0  0  0  0  0  0  0
    2.4826    0.6013   -0.3739 H   0  0  0  0  0  0  0  0  0  0  0  0
    4.4850    1.0252    0.8566 H   0  0  0  0  0  0  0  0  0  0  0  0
    3.4860    1.5864    2.1889 H   0  0  0  0  0  0  0  0  0  0  0  0
    0.9284   -1.2342    1.0107 H   0  0  0  0  0  0  0  0  0  0  0  0
    2.4771   -1.7037    0.3015 H   0  0  0  0  0  0  0  0  0  0  0  0
    4.6705   -1.1759    1.7574 H   0  0  0  0  0  0  0  0  0  0  0  0
    4.4025   -0.3466    3.2885 H   0  0  0  0  0  0  0  0  0  0  0  0
    2.7269   -2.3433    2.6276 H   0  0  0  0  0  0  0  0  0  0  0  0
    1.3514    0.6104    5.6043 H   0  0  0  0  0  0  0  0  0  0  0  0
   -0.1142   -0.1046    4.8959 H   0  0  0  0  0  0  0  0  0  0  0  0
  1 16  1  0  0  0  0
  1 17  3  0  0  0  0
  2  3  1  0  0  0  0
  2  4  2  0  0  0  0
  2 22  1  0  0  0  0
  3  5  2  0  0  0  0
  3 23  1  0  0  0  0
  4  6  1  0  0  0  0
  4 24  1  0  0  0  0
  5  9  1  0  0  0  0
  5 25  1  0  0  0  0
  6  9  2  0  0  0  0
  6 26  1  0  0  0  0
  7 18  1  0  0  0  0
  7 19  2  0  0  0  0
  7 27  1  0  0  0  0
  8 18  2  0  0  0  0
  8 20  1  0  0  0  0
  8 28  1  0  0  0  0
  9 16  1  0  0  0  0
 10 11  1  0  0  0  0
 10 12  1  0  0  0  0
 10 29  1  0  0  0  0
 10 30  1  0  0  0  0
 11 13  1  0  0  0  0
 11 31  1  0  0  0  0
 11 32  1  0  0  0  0
 12 14  1  0  0  0  0
 12 33  1  0  0  0  0
 12 34  1  0  0  0  0
 13 14  1  0  0  0  0
 13 35  1  0  0  0  0
 13 36  1  0  0  0  0
 14 21  1  0  0  0  0
 14 37  1  0  0  0  0
 15 16  1  0  0  0  0
 15 20  1  0  0  0  0
 15 38  1  0  0  0  0
 15 39  1  0  0  0  0
 16 21  1  0  0  0  0
 19 20  1  0  0  0  0
M  END
$$$$
