
  -OEChem-05262117493D

 65 69  0     1  0  0  0  0  0999 V2000
   -2.1034   -2.6997   -4.1157 C   0  0  0  0  0  0  0  0  0  0  0  0
    0.3506   -2.9050   -4.1201 C   0  0  0  0  0  0  0  0  0  0  0  0
   -1.0498   -4.1734   -5.6563 C   0  0  0  0  0  0  0  0  0  0  0  0
   -0.8262   -2.3403   -3.6102 C   0  0  0  0  0  0  0  0  0  0  0  0
   -2.2292   -3.6212   -5.1457 C   0  0  0  0  0  0  0  0  0  0  0  0
   -0.9091   -5.1468   -6.6895 C   0  0  0  0  0  0  0  0  0  0  0  0
    0.2238   -3.8392   -5.1573 C   0  0  0  0  0  0  0  0  0  0  0  0
    0.4408   -5.4021   -6.8116 C   0  0  0  0  0  0  0  0  0  0  0  0
   -6.3988   -1.4887   -8.2938 C   0  0  0  0  0  0  0  0  0  0  0  0
   -2.1465   -5.6536   -7.3741 C   0  0  0  0  0  0  0  0  0  0  0  0
   -3.9885   -3.0650   -6.8619 C   0  0  0  0  0  0  0  0  0  0  0  0
   -5.1407   -4.9671   -8.0540 C   0  0  0  0  0  0  0  0  0  0  0  0
   -2.6621   -0.2829   -0.8086 C   0  0  0  0  0  0  0  0  0  0  0  0
   -1.8891    0.8784   -1.4255 C   0  0  0  0  0  0  0  0  0  0  0  0
   -3.5160   -4.0735   -5.7992 C   0  0  1  0  0  0  0  0  0  0  0  0
   -0.7103   -1.3214   -2.5040 C   0  0  0  0  0  0  0  0  0  0  0  0
   -3.3734   -5.4939   -6.4179 C   0  0  1  0  0  0  0  0  0  0  0  0
   -5.2881   -3.5417   -7.5172 C   0  0  2  0  0  0  0  0  0  0  0  0
    1.1824   -6.3281   -7.7205 C   0  0  0  0  0  0  0  0  0  0  0  0
   -6.4281    1.8136   -8.5894 C   0  0  0  0  0  0  0  0  0  0  0  0
   -6.8992   -1.6519  -11.5483 C   0  0  0  0  0  0  0  0  0  0  0  0
   -4.7371   -7.2670   -7.4246 C   0  0  0  0  0  0  0  0  0  0  0  0
   -7.3032    0.6441   -9.0497 C   0  0  0  0  0  0  0  0  0  0  0  0
   -6.0104   -0.7630  -10.6683 C   0  0  0  0  0  0  0  0  0  0  0  0
    1.1279   -4.5998   -5.8859 N   0  0  0  0  0  0  0  0  0  0  0  0
   -4.6626   -5.8722   -7.0143 N   0  0  2  0  0  0  0  0  0  0  0  0
   -5.7254   -2.6651   -8.6033 N   0  0  0  0  0  0  0  0  0  0  0  0
   -6.5283   -0.5703   -9.3176 N   0  0  0  0  0  0  0  0  0  0  0  0
   -6.8836   -1.2938   -7.1736 O   0  0  0  0  0  0  0  0  0  0  0  0
   -1.6335   -1.7944   -0.9472 S   0  0  0  0  0  0  0  0  0  0  0  0
   -1.3149    0.3311   -3.0695 S   0  0  0  0  0  0  0  0  0  0  0  0
   -2.9847   -2.2421   -3.6744 H   0  0  0  0  0  0  0  0  0  0  0  0
    1.3182   -2.6192   -3.7136 H   0  0  0  0  0  0  0  0  0  0  0  0
   -2.3239   -5.0987   -8.3037 H   0  0  0  0  0  0  0  0  0  0  0  0
   -2.0476   -6.7068   -7.6569 H   0  0  0  0  0  0  0  0  0  0  0  0
   -4.1475   -2.0846   -6.4036 H   0  0  0  0  0  0  0  0  0  0  0  0
   -3.2090   -2.9408   -7.6261 H   0  0  0  0  0  0  0  0  0  0  0  0
   -6.1195   -5.3195   -8.3954 H   0  0  0  0  0  0  0  0  0  0  0  0
   -4.4805   -4.9608   -8.9465 H   0  0  0  0  0  0  0  0  0  0  0  0
   -2.8516   -0.1143    0.2561 H   0  0  0  0  0  0  0  0  0  0  0  0
   -3.6151   -0.4280   -1.3234 H   0  0  0  0  0  0  0  0  0  0  0  0
   -2.5315    1.7518   -1.5775 H   0  0  0  0  0  0  0  0  0  0  0  0
   -1.0419    1.1643   -0.7957 H   0  0  0  0  0  0  0  0  0  0  0  0
   -4.3040   -4.1468   -5.0407 H   0  0  0  0  0  0  0  0  0  0  0  0
    0.3361   -1.2208   -2.2111 H   0  0  0  0  0  0  0  0  0  0  0  0
   -3.2070   -6.1847   -5.5823 H   0  0  0  0  0  0  0  0  0  0  0  0
   -6.0824   -3.5320   -6.7696 H   0  0  0  0  0  0  0  0  0  0  0  0
    1.8371   -5.7847   -8.4136 H   0  0  0  0  0  0  0  0  0  0  0  0
    1.8070   -7.0360   -7.1612 H   0  0  0  0  0  0  0  0  0  0  0  0
    0.4756   -6.9081   -8.3186 H   0  0  0  0  0  0  0  0  0  0  0  0
   -5.9236    1.5564   -7.6540 H   0  0  0  0  0  0  0  0  0  0  0  0
   -5.6660    2.0613   -9.3370 H   0  0  0  0  0  0  0  0  0  0  0  0
   -7.0387    2.7076   -8.4193 H   0  0  0  0  0  0  0  0  0  0  0  0
   -7.0033   -2.6509  -11.1158 H   0  0  0  0  0  0  0  0  0  0  0  0
   -7.9004   -1.2188  -11.6394 H   0  0  0  0  0  0  0  0  0  0  0  0
   -6.4748   -1.7489  -12.5541 H   0  0  0  0  0  0  0  0  0  0  0  0
   -4.3829   -7.9082   -6.6107 H   0  0  0  0  0  0  0  0  0  0  0  0
   -4.1466   -7.5043   -8.3284 H   0  0  0  0  0  0  0  0  0  0  0  0
   -5.7799   -7.5309   -7.6314 H   0  0  0  0  0  0  0  0  0  0  0  0
   -7.8457    0.9065   -9.9654 H   0  0  0  0  0  0  0  0  0  0  0  0
   -8.0417    0.4079   -8.2830 H   0  0  0  0  0  0  0  0  0  0  0  0
   -5.9141    0.2277  -11.1227 H   0  0  0  0  0  0  0  0  0  0  0  0
   -4.9868   -1.1568  -10.6337 H   0  0  0  0  0  0  0  0  0  0  0  0
    2.1283   -4.6176   -5.7476 H   0  0  0  0  0  0  0  0  0  0  0  0
   -5.1096   -2.6505   -9.4057 H   0  0  0  0  0  0  0  0  0  0  0  0
  1  4  2  0  0  0  0
  1  5  1  0  0  0  0
  1 32  1  0  0  0  0
  2  4  1  0  0  0  0
  2  7  2  0  0  0  0
  2 33  1  0  0  0  0
  3  5  2  0  0  0  0
  3  6  1  0  0  0  0
  3  7  1  0  0  0  0
  4 16  1  0  0  0  0
  5 15  1  0  0  0  0
  6  8  2  0  0  0  0
  6 10  1  0  0  0  0
  7 25  1  0  0  0  0
  8 19  1  0  0  0  0
  8 25  1  0  0  0  0
  9 27  1  0  0  0  0
  9 28  1  0  0  0  0
  9 29  2  0  0  0  0
 10 17  1  0  0  0  0
 10 34  1  0  0  0  0
 10 35  1  0  0  0  0
 11 15  1  0  0  0  0
 11 18  1  0  0  0  0
 11 36  1  0  0  0  0
 11 37  1  0  0  0  0
 12 18  1  0  0  0  0
 12 26  1  0  0  0  0
 12 38  1  0  0  0  0
 12 39  1  0  0  0  0
 13 14  1  0  0  0  0
 13 30  1  0  0  0  0
 13 40  1  0  0  0  0
 13 41  1  0  0  0  0
 14 31  1  0  0  0  0
 14 42  1  0  0  0  0
 14 43  1  0  0  0  0
 15 17  1  0  0  0  0
 15 44  1  0  0  0  0
 16 30  1  0  0  0  0
 16 31  1  0  0  0  0
 16 45  1  0  0  0  0
 17 26  1  0  0  0  0
 17 46  1  0  0  0  0
 18 27  1  0  0  0  0
 18 47  1  0  0  0  0
 19 48  1  0  0  0  0
 19 49  1  0  0  0  0
 19 50  1  0  0  0  0
 20 23  1  0  0  0  0
 20 51  1  0  0  0  0
 20 52  1  0  0  0  0
 20 53  1  0  0  0  0
 21 24  1  0  0  0  0
 21 54  1  0  0  0  0
 21 55  1  0  0  0  0
 21 56  1  0  0  0  0
 22 26  1  0  0  0  0
 22 57  1  0  0  0  0
 22 58  1  0  0  0  0
 22 59  1  0  0  0  0
 23 28  1  0  0  0  0
 23 60  1  0  0  0  0
 23 61  1  0  0  0  0
 24 28  1  0  0  0  0
 24 62  1  0  0  0  0
 24 63  1  0  0  0  0
 25 64  1  0  0  0  0
 27 65  1  0  0  0  0
M  END
$$$$
