
  -OEChem-05262117493D

 47 49  0     0  0  0  0  0  0999 V2000
    0.7935    1.3565   -4.5150 C   0  0  0  0  0  0  0  0  0  0  0  0
    0.3299    0.8133   -3.3190 C   0  0  0  0  0  0  0  0  0  0  0  0
    2.2911    1.6620   -2.1194 C   0  0  0  0  0  0  0  0  0  0  0  0
    2.0086    2.0424   -4.4923 C   0  0  0  0  0  0  0  0  0  0  0  0
    2.7466    2.1900   -3.3233 C   0  0  0  0  0  0  0  0  0  0  0  0
    1.0725    0.9758   -2.1367 C   0  0  0  0  0  0  0  0  0  0  0  0
    2.7355    2.7051   -5.6001 C   0  0  0  0  0  0  0  0  0  0  0  0
    1.3467   -0.5008   -0.1643 C   0  0  0  0  0  0  0  0  0  0  0  0
   -0.6687    0.6384   -0.3381 C   0  0  0  0  0  0  0  0  0  0  0  0
    3.9930    2.9651   -3.6580 C   0  0  0  0  0  0  0  0  0  0  0  0
    0.4783   -0.9042    1.0283 C   0  0  0  0  0  0  0  0  0  0  0  0
    1.1748   -0.4625    2.3263 C   0  0  0  0  0  0  0  0  0  0  0  0
    0.2389   -2.4205    1.0055 C   0  0  0  0  0  0  0  0  0  0  0  0
   -4.2979   -0.9831    1.9803 C   0  0  0  0  0  0  0  0  0  0  0  0
   -3.0423   -1.0658    1.1068 C   0  0  0  0  0  0  0  0  0  0  0  0
   -5.4223   -1.8965    1.4801 C   0  0  0  0  0  0  0  0  0  0  0  0
   -1.9206   -0.1661    1.6382 C   0  0  0  0  0  0  0  0  0  0  0  0
   -6.6842   -1.7879    2.3244 C   0  0  0  0  0  0  0  0  0  0  0  0
    0.5979    0.3916   -0.9238 N   0  0  0  0  0  0  0  0  0  0  0  0
   -0.7465   -0.1350    0.7708 N   0  0  0  0  0  0  0  0  0  0  0  0
    2.4441    2.8077   -6.7684 O   0  0  0  0  0  0  0  0  0  0  0  0
    2.4781   -0.8844   -0.3947 O   0  0  0  0  0  0  0  0  0  0  0  0
    3.8954    3.2375   -5.0722 O   0  0  0  0  0  0  0  0  0  0  0  0
   -7.6541   -2.6966    1.7908 O   0  0  0  0  0  0  0  0  0  0  0  0
   -1.8040    1.7069   -0.9064 S   0  0  0  0  0  0  0  0  0  0  0  0
    0.2362    1.2486   -5.4406 H   0  0  0  0  0  0  0  0  0  0  0  0
   -0.6077    0.2707   -3.2846 H   0  0  0  0  0  0  0  0  0  0  0  0
    2.8509    1.7602   -1.1950 H   0  0  0  0  0  0  0  0  0  0  0  0
    4.0593    3.9208   -3.1281 H   0  0  0  0  0  0  0  0  0  0  0  0
    4.9103    2.3945   -3.4800 H   0  0  0  0  0  0  0  0  0  0  0  0
    0.5959   -0.7693    3.2019 H   0  0  0  0  0  0  0  0  0  0  0  0
    1.2980    0.6240    2.3518 H   0  0  0  0  0  0  0  0  0  0  0  0
    2.1608   -0.9302    2.3821 H   0  0  0  0  0  0  0  0  0  0  0  0
   -0.3695   -2.7242    1.8623 H   0  0  0  0  0  0  0  0  0  0  0  0
    1.1998   -2.9385    1.0578 H   0  0  0  0  0  0  0  0  0  0  0  0
   -0.2731   -2.7226    0.0880 H   0  0  0  0  0  0  0  0  0  0  0  0
   -4.0450   -1.2460    3.0173 H   0  0  0  0  0  0  0  0  0  0  0  0
   -4.6496    0.0570    2.0018 H   0  0  0  0  0  0  0  0  0  0  0  0
   -3.2822   -0.7542    0.0855 H   0  0  0  0  0  0  0  0  0  0  0  0
   -2.6900   -2.1024    1.0550 H   0  0  0  0  0  0  0  0  0  0  0  0
   -5.6736   -1.6480    0.4423 H   0  0  0  0  0  0  0  0  0  0  0  0
   -5.0894   -2.9415    1.4843 H   0  0  0  0  0  0  0  0  0  0  0  0
   -2.2853    0.8597    1.7421 H   0  0  0  0  0  0  0  0  0  0  0  0
   -1.5939   -0.5036    2.6257 H   0  0  0  0  0  0  0  0  0  0  0  0
   -7.0631   -0.7547    2.2984 H   0  0  0  0  0  0  0  0  0  0  0  0
   -6.4566   -2.0355    3.3730 H   0  0  0  0  0  0  0  0  0  0  0  0
   -8.4702   -2.6094    2.3068 H   0  0  0  0  0  0  0  0  0  0  0  0
  1  2  1  0  0  0  0
  1  4  2  0  0  0  0
  1 26  1  0  0  0  0
  2  6  2  0  0  0  0
  2 27  1  0  0  0  0
  3  5  2  0  0  0  0
  3  6  1  0  0  0  0
  3 28  1  0  0  0  0
  4  5  1  0  0  0  0
  4  7  1  0  0  0  0
  5 10  1  0  0  0  0
  6 19  1  0  0  0  0
  7 21  2  0  0  0  0
  7 23  1  0  0  0  0
  8 11  1  0  0  0  0
  8 19  1  0  0  0  0
  8 22  2  0  0  0  0
  9 19  1  0  0  0  0
  9 20  1  0  0  0  0
  9 25  2  0  0  0  0
 10 23  1  0  0  0  0
 10 29  1  0  0  0  0
 10 30  1  0  0  0  0
 11 12  1  0  0  0  0
 11 13  1  0  0  0  0
 11 20  1  0  0  0  0
 12 31  1  0  0  0  0
 12 32  1  0  0  0  0
 12 33  1  0  0  0  0
 13 34  1  0  0  0  0
 13 35  1  0  0  0  0
 13 36  1  0  0  0  0
 14 15  1  0  0  0  0
 14 16  1  0  0  0  0
 14 37  1  0  0  0  0
 14 38  1  0  0  0  0
 15 17  1  0  0  0  0
 15 39  1  0  0  0  0
 15 40  1  0  0  0  0
 16 18  1  0  0  0  0
 16 41  1  0  0  0  0
 16 42  1  0  0  0  0
 17 20  1  0  0  0  0
 17 43  1  0  0  0  0
 17 44  1  0  0  0  0
 18 24  1  0  0  0  0
 18 45  1  0  0  0  0
 18 46  1  0  0  0  0
 24 47  1  0  0  0  0
M  END
$$$$
