47
0 1 C18H22N2O4S
C                     2.958624482500     2.069759790749    -3.273614401929
C                     2.391304533034     1.519249367050    -2.125411378872
C                     0.442597982180     0.751390664960    -3.397218948034
C                     2.246117245678     1.960382480875    -4.467500282854
C                     1.014301588033     1.317055316361    -4.531139351172
C                     1.146079127988     0.872459859547    -2.193658564675
C                     2.595590537656     2.452014579032    -5.820944777030
C                     1.293461061405    -0.605901413213    -0.208390398320
C                    -0.675770410747     0.596987650645    -0.465391480888
C                     0.529392659880     1.386606082596    -5.954527552120
C                     0.375626658507    -0.957199170627     0.963241294851
C                     1.045995820966    -0.512249599008     2.273800918617
C                     0.086587658283    -2.464737613167     0.961529861667
C                    -4.421441989630    -0.890779291942     1.769864630087
C                    -3.146140977735    -1.014462616659     0.930395910981
C                    -5.555876858852    -1.779773261686     1.248838764627
C                    -2.016998452131    -0.135929183885     1.480922908510
C                    -6.834009529752    -1.635387884184     2.062688279264
N                     0.603510188400     0.306198407380    -1.000919468974
N                    -0.814596823985    -0.153707368537     0.652590739677
O                     3.571735924625     3.055686499863    -6.199572140202
O                     2.413146840998    -1.039256214720    -0.401913255984
O                     1.565377045990     2.095420969555    -6.668143886166
O                    -7.815335418735    -2.518547489969     1.507213501274
S                    -1.765847243707     1.681426857149    -1.092572670815
H                     3.920090636523     2.573593355398    -3.246428197903
H                     2.905677492642     1.578234390593    -1.172530691167
H                    -0.516498209371     0.246131623908    -3.422418165719
H                     0.407222946031     0.401587192862    -6.416357400500
H                    -0.405129166436     1.947350777673    -6.057750218819
H                     0.429719502239    -0.780889606235     3.136379986578
H                     1.205868485015     0.569706506936     2.281709524948
H                     2.013158086111    -1.011588872190     2.370359746662
H                    -0.557642420139    -2.731791570458     1.804189794526
H                     1.027911401463    -3.012104311476     1.053937130449
H                    -0.406007685275    -2.768436981170     0.033960201500
H                    -4.202006091267    -1.150410533417     2.815271677906
H                    -4.746619528175     0.158086167078     1.773280913491
H                    -3.351372050522    -0.710004943005    -0.100552787751
H                    -2.818436443381    -2.059915470056     0.900485529133
H                    -5.776976215194    -1.531592970542     0.204078810577
H                    -5.248726514588    -2.832495798143     1.266637809445
H                    -2.355620034052     0.901271145620     1.554827199782
H                    -1.731722314633    -0.463767721784     2.484434276878
H                    -7.184207985012    -0.592437869656     2.026497908035
H                    -6.638108851335    -1.887119266627     3.116698086911
H                    -8.638780059224    -2.413309240192     2.007963126975
