66
1 1 C24H35N4OS2
C                    -1.226746880815    -1.904308133078    -5.126664318965
C                    -0.100129752905    -3.466385272317    -3.593547688480
C                    -0.586365921004    -4.067423896221    -5.900034242951
C                    -0.689189540460    -2.222240478886    -3.850274191577
C                    -1.172215851894    -2.825207747343    -6.160050757186
C                    -0.437479499734    -5.182134404597    -6.774395139877
C                    -0.056907135141    -4.398569659392    -4.639417041385
C                     0.182063138867    -6.181385600080    -6.049827721586
C                     1.299755047523    -2.105921723994   -10.883810575999
C                    -0.937650247901    -5.070879722149    -8.190445811956
C                    -0.537720199933    -1.963933265251    -8.442253321832
C                    -1.560659785706    -3.085563908679   -10.514880670968
C                    -2.150436835928     1.147014623336    -2.243512905328
C                    -0.657670264097     1.365812529778    -2.007523359545
C                    -1.636509480574    -2.619288045669    -7.586922690465
C                    -0.737716217826    -1.200675917760    -2.741330873406
C                    -0.959218823077    -1.803863831948    -9.911806371128
C                    -2.044761337606    -3.988623022383    -8.188174064774
C                     0.596911586713    -7.562648813218    -6.440433873481
C                     4.561767149148    -2.181759067866   -10.434567620333
C                     1.837691553933     0.121020579077   -13.279604352149
C                    -3.217454766641    -4.915191024175   -10.240618796182
C                     3.605523614354    -2.285225574131   -11.623879139988
C                     2.407635682603    -0.090519476709   -11.872665910551
N                     0.414367563347    -5.698049804646    -4.758294495093
N                     0.117108075619    -1.358760814813   -10.794633235574
N                     2.381254219529    -1.488987479240   -11.434803265349
N                    -2.584793343436    -3.715689123099    -9.597877960017
O                     1.320439536917    -3.288479820585   -10.499993339084
S                    -2.479623383978    -0.660411481424    -2.338981649486
S                     0.249319657305     0.291639572833    -3.171812036280
H                    -1.681877313957    -0.927612269516    -5.265862701448
H                     0.303148679739    -3.687488348774    -2.608600195336
H                    -0.126876628719    -4.789795927601    -8.871420431857
H                    -1.349467182385    -6.022809478407    -8.540022483994
H                    -0.306612033455    -0.977626093597    -8.029433136150
H                     0.373404161849    -2.560185179653    -8.384660283067
H                    -2.064317891067    -2.862852345172   -11.458299876525
H                    -0.777993932662    -3.819269672345   -10.688421585486
H                    -2.740837876042     1.549842413958    -1.415513345539
H                    -2.467136108874     1.624037107100    -3.173739299681
H                    -0.367922864924     2.400855038664    -2.211383635810
H                    -0.380449103346     1.119093487416    -0.979141164994
H                    -2.528628691548    -1.974455451367    -7.586364688971
H                    -0.321798662678    -1.634202379063    -1.830309669430
H                    -1.728193861536    -1.022617554981    -9.963880716016
H                    -2.906919016463    -4.370225149954    -7.632884953901
H                     1.685824975949    -7.682273618609    -6.401055267768
H                     0.154470833666    -8.319096237393    -5.782177392162
H                     0.278883523332    -7.780187092687    -7.462573994199
H                     4.860245120321    -1.144624970180   -10.248172557443
H                     4.086834333271    -2.574064984587    -9.531237536146
H                     5.469104157882    -2.763121449006   -10.627535736235
H                     2.396331742994    -0.468839636635   -14.012268605105
H                     0.787806100548    -0.181936252756   -13.336604490185
H                     1.908969094199     1.175246089939   -13.565658650028
H                    -2.436816789462    -5.621970065861   -10.514359457874
H                    -3.910550904941    -5.373083688273    -9.534164478800
H                    -3.750549391533    -4.592216116977   -11.135481150689
H                     3.310304919706    -3.322420410777   -11.782764459906
H                     4.086294662476    -1.931890616750   -12.541522806252
H                     1.896168223388     0.544853185935   -11.139665518939
H                     3.451255450268     0.232512989094   -11.843510807460
H                     0.851041311402    -6.235725945285    -4.021479566601
H                     0.177735469429    -0.358727532454   -10.923510106523
H                    -3.331741200580    -3.026438515589    -9.462191171045
