23   
torsion grid (-165,)
C        1.9243222038   -1.0889503298   -0.1731248332
C        0.7558490877   -0.5779696342    0.4001287478
C        3.0369236157   -1.3762054970    0.6339508605
C        1.1233365187   -0.0003320113    8.0267629241
C        2.3120328491    0.0425828199    8.7639311558
C        0.6990023607   -0.3545991254    1.7777213124
C        2.9878862587   -1.1570841489    2.0076741213
C        1.1907140439   -0.2191735324    6.6539455321
C        3.5197782338   -0.1455023313    8.0843164291
C        1.8102353442   -0.6435875709    2.5836624679
C        2.4579845914   -0.3933230404    6.0695832790
N        3.6016670570   -0.3689364537    6.7677392938
N        1.6447668490   -0.3792811568    3.9681260561
N        2.6516499662   -0.6452434066    4.6793572525
H        1.9729435423   -1.2634493332   -1.2448887507
H       -0.1056407479   -0.3540049220   -0.2230976720
H        3.9429722308   -1.7718747278    0.1822654856
H        0.1622759403    0.1325389763    8.5172062897
H        2.3072307280    0.2089971595    9.8373082865
H       -0.1949929040    0.0433488827    2.2497296391
H        3.8376000439   -1.3707289879    2.6473866343
H        0.3041046286   -0.2603797568    6.0314779886
H        4.4652914723   -0.1217153609    8.6242935450
23   
torsion grid (-150,)
C        1.8521604096   -1.0305739867   -0.1786362622
C        2.6727769221   -1.9288821397    0.5102518365
C        1.1268927804   -0.0576785250    0.5277140301
C        3.1257231881   -0.3948829925    8.0029787534
C        2.0336845564    0.0393610977    8.7617082534
C        2.7689815212   -1.8553705581    1.9019383486
C        1.2193178961    0.0230831394    1.9144213233
C        3.0064690784   -0.4368746505    6.6160234504
C        0.8696758424    0.4245774922    8.0882386552
C        2.0477949929   -0.8803618134    2.6059970739
C        1.7913000371   -0.0241394614    6.0435931502
N        0.7446896396    0.4111968633    6.7559371981
N        2.2190479498   -0.8944551729    4.0168065555
N        1.5802022584   -0.0006313935    4.6339420549
H        1.7731089531   -1.0859050110   -1.2613177255
H        3.2332505001   -2.6839888996   -0.0341550121
H        0.4876189875    0.6360233219   -0.0122722705
H        4.0524451389   -0.6943649849    8.4859479578
H        2.0812746734    0.0893677014    9.8456861807
H        3.3960822747   -2.5426693339    2.4629248834
H        0.6637093017    0.7655655373    2.4774615104
H        3.8157504386   -0.7713290317    5.9764051676
H       -0.0007533177    0.7683591704    8.6451689714
23   
torsion grid (-135,)
C        1.8594764872   -1.0392258316   -0.1744144409
C        2.5699762968   -2.0132162704    0.5335479066
C        1.2249276808    0.0074661998    0.5133491769
C        3.1719418702   -0.2622536847    7.9947650373
C        2.0284190552   -0.0077800625    8.7584508248
C        2.6474220135   -1.9416284935    1.9266768519
C        1.2993877910    0.0876315612    1.9013196517
C        3.0649582448   -0.2692797027    6.6052596776
C        0.8257990973    0.2394671976    8.0883155491
C        2.0182885042   -0.8920004815    2.6102445679
C        1.8096127680    0.0043526053    6.0404470592
N        0.7091890282    0.2619472121    6.7544921042
N        2.1620017540   -0.9152396087    4.0265472094
N        1.6239208144    0.0514673755    4.6260968406
H        1.7949048372   -1.0931412186   -1.2581316765
H        3.0591429916   -2.8256206572    0.0031036677
H        0.6698620945    0.7590968521   -0.0419762722
H        4.1278381640   -0.4560239299    8.4747781955
H        2.0635233477    0.0062119556    9.8439070871
H        3.1888498591   -2.6863989518    2.5033352696
H        0.8119377881    0.8863518434    2.4505489703
H        3.9140208315   -0.4732945425    5.9616327437
H       -0.0870776277    0.4352845196    8.6488539586
23   
torsion grid (-120,)
C        1.8542795349   -1.0475563003   -0.1758307720
C        2.4508049181   -2.0872108667    0.5436491187
C        1.3249630557    0.0634603974    0.4998901049
C        3.1981159241   -0.1172110761    8.0095007520
C        2.0190401815   -0.0454068009    8.7576866968
C        2.5192838014   -2.0168164123    1.9375261014
C        1.3919596071    0.1415096963    1.8884828966
C        3.1143692822   -0.0975518710    6.6178660588
C        0.8040741433    0.0502170274    8.0726304363
C        1.9960050907   -0.9040438782    2.6091123378
C        1.8424339266    0.0170293169    6.0401068266
N        0.7062641247    0.0933488807    6.7365600174
N        2.1202389176   -0.9361216039    4.0296429777
N        1.6904152892    0.0869170577    4.6185828017
H        1.7965107235   -1.0999025364   -1.2600010444
H        2.8579807113   -2.9490782086    0.0220738199
H        0.8577594412    0.8661515693   -0.0647759635
H        4.1642726118   -0.1953522210    8.5015569935
H        2.0355181584   -0.0606091704    9.8434810366
H        2.9729245930   -2.8110902249    2.5237274883
H        0.9839567134    0.9893733419    2.4288503049
H        3.9942215484   -0.1652696994    5.9862792096
H       -0.1361257400    0.0980585106    8.6199946330
23   
torsion grid (-105,)
C        1.8489888543   -1.0493550803   -0.1812782011
C        2.3288513835   -2.1447698181    0.5425920216
C        1.4269929101    0.1086277792    0.4910689274
C        3.2074935980    0.0314649681    8.0368067232
C        2.0145005922   -0.0698407024    8.7596528880
C        2.3878523491   -2.0837579615    1.9374625922
C        1.4862215513    0.1779793968    1.8805502265
C        3.1513820780    0.0662736662    6.6439406952
C        0.8139618553   -0.1288032268    8.0476318287
C        1.9731922254   -0.9241271757    2.6047532111
C        1.8890644457    0.0064556137    6.0399742005
N        0.7394826987   -0.0849245352    6.7089000945
N        2.0770171394   -0.9708618927    4.0279451361
N        1.7734497296    0.0967897244    4.6122766296
H        1.7980686653   -1.0945512598   -1.2661194576
H        2.6522925101   -3.0429199611    0.0236348014
H        1.0488811749    0.9547038374   -0.0769159363
H        4.1652768414    0.0756383975    8.5490054443
H        2.0103986216   -0.1014872473    9.8451686336
H        2.7509586166   -2.9208014794    2.5271858557
H        1.1597275255    1.0621662175    2.4182177848
H        4.0462796268    0.1357815633    6.0335305767
H       -0.1361081714   -0.2147735682    8.5727879909
23   
torsion grid (-90,)
C        1.8413309184   -1.0508909093   -0.1873164963
C        2.1886967117   -2.1951643888    0.5365928891
C        1.5450020137    0.1452423924    0.4853990377
C        3.1769877413    0.1925352416    8.0719189214
C        1.9938593011   -0.0921259073    8.7625488043
C        2.2404058566   -2.1446317349    1.9322344892
C        1.5981990202    0.2029205973    1.8756823979
C        3.1492493941    0.2359807395    6.6789873124
C        0.8340395960   -0.3215933642    8.0200235474
C        1.9513415349   -0.9483629392    2.6008281029
C        1.9294180660   -0.0228530003    6.0408476610
N        0.7895662086   -0.2870783499    6.6787363467
N        2.0359136996   -1.0109586783    4.0248458695
N        1.8530629763    0.0824360579    4.6103066078
H        1.7961734678   -1.0870265151   -1.2727504399
H        2.4146785681   -3.1224408975    0.0172684100
H        1.2694567527    1.0299660267   -0.0827490127
H        4.1040743214    0.3763644442    8.6089165594
H        1.9673384215   -0.1322309764    9.8474269463
H        2.5015869688   -3.0186667796    2.5221593961
H        1.3678679540    1.1169274850    2.4133171347
H        4.0363119531    0.4561283334    6.0930731151
H       -0.1076843699   -0.5437687557    8.5196323285
23   
torsion grid (-75,)
C        1.8365865733   -1.0528163018   -0.1896373770
C        2.0450078246   -2.2299063014    0.5350840035
C        1.6728424632    0.1689873902    0.4823718594
C        3.1355825587    0.3460756333    8.0967707629
C        1.9951797376   -0.1203461633    8.7605946498
C        2.0903969603   -2.1868613767    1.9310463622
C        1.7201155624    0.2200537787    1.8730221421
C        3.1269348538    0.4019858925    6.7045638940
C        0.8967396556   -0.5117733683    7.9927815649
C        1.9330976476   -0.9653323559    2.5985390555
C        1.9790652990   -0.0470663466    6.0376440286
N        0.8770006036   -0.4809958138    6.6510135256
N        1.9981863786   -1.0391265765    4.0217315909
N        1.9353065655    0.0676100927    4.6089634300
H        1.7969970857   -1.0827827582   -1.2754826942
H        2.1683072314   -3.1764528105    0.0160000358
H        1.5052715420    1.0796001869   -0.0869828257
H        4.0122188586    0.6658924161    8.6542409141
H        1.9525371089   -0.1714677704    9.8445104830
H        2.2450999291   -3.0850653331    2.5222151603
H        1.5917349757    1.1543026946    2.4099277822
H        3.9769329396    0.7698955842    6.1380128636
H       -0.0144965132   -0.8663548968    8.4721773544
23   
torsion grid (-60,)
C        1.8338969392   -1.0557155659   -0.1917544145
C        1.9045073447   -2.2478647768    0.5350486830
C        1.8009731015    0.1772469801    0.4790733444
C        3.0725469353    0.4864115820    8.1172734873
C        2.0012712741   -0.1462190233    8.7579927712
C        1.9426844958   -2.2086309135    1.9311943075
C        1.8418184826    0.2237300110    1.8700294347
C        3.0774964599    0.5521159001    6.7256869770
C        0.9828578285   -0.6856188155    7.9681694810
C        1.9157579402   -0.9768924808    2.5990197553
C        2.0245454823   -0.0631440387    6.0333165050
N        0.9838479098   -0.6537769906    6.6274527695
N        1.9603298654   -1.0571579283    4.0205503509
N        2.0160035674    0.0516898517    4.6084726212
H        1.8006532696   -1.0821302379   -1.2779129040
H        1.9267331006   -3.2028088052    0.0171333714
H        1.7407063915    1.1004055181   -0.0916176224
H        3.8816114346    0.9294489907    8.6921687553
H        1.9459886604   -0.2083328194    9.8408201594
H        1.9919894737   -3.1177528656    2.5237778557
H        1.8142378986    1.1672272570    2.4052814767
H        3.8695192108    1.0496163921    6.1743409455
H        0.1202430304   -1.1628422643    8.4311090585
23   
torsion grid (-45,)
C        1.8366326834   -1.0587219279   -0.1923604704
C        1.7680413477   -2.2508452020    0.5348756336
C        1.9351240342    0.1706107664    0.4788159006
C        2.9993061357    0.6225926160    8.1282726510
C        2.0261771907   -0.1596995703    8.7585309515
C        1.7981870151   -2.2152477723    1.9311282684
C        1.9681367811    0.2130514911    1.8700164148
C        3.0088116558    0.6839845023    6.7361843376
C        1.1054304709   -0.8442797584    7.9582060705
C        1.9017573887   -0.9877637636    2.6007113040
C        2.0669352568   -0.0813668651    6.0322194410
N        1.1163273675   -0.8173413572    6.6197071083
N        1.9230148452   -1.0730239392    4.0202394028
N        2.0899064358    0.0255423998    4.6107469325
H        1.8105649018   -1.0819642331   -1.2788000800
H        1.6886953237   -3.2027154026    0.0168517376
H        1.9836606523    1.0943939329   -0.0920616154
H        3.7265029319    1.1826670910    8.7102909347
H        1.9663905372   -0.2260085374    9.8409470519
H        1.7411157824   -3.1237050010    2.5239826328
H        2.0416313825    1.1541578395    2.4049741398
H        3.7237350304    1.2909103173    6.1891826437
H        0.3145607256   -1.4374583722    8.4155432674
23   
torsion grid (-30,)
C        1.8492339780   -1.0569926329   -0.1992232882
C        1.6303132593   -2.2339472409    0.5231690001
C        2.0807569383    0.1511273643    0.4779069155
C        2.8884179048    0.7451563788    8.1275161843
C        2.0414277229   -0.1680643825    8.7611797046
C        1.6431898342   -2.2042510049    1.9196617947
C        2.0962266947    0.1871622443    1.8694835582
C        2.8977869323    0.7906735956    6.7341140914
C        1.2391186163   -0.9932711517    7.9624911999
C        1.8778363095   -0.9983783761    2.5966754401
C        2.0816165982   -0.1088520335    6.0314113181
N        1.2523259956   -0.9770067613    6.6260926584
N        1.8669281824   -1.0898825716    4.0139089111
N        2.1321855447   -0.0130420023    4.6113299680
H        1.8382704803   -1.0754057857   -1.2860212089
H        1.4488238839   -3.1693678844    0.0008616700
H        2.2474596904    1.0635605860   -0.0890133478
H        3.5194829239    1.4143437993    8.7064021308
H        1.9856015772   -0.2329943065    9.8439494584
H        1.4726538337   -3.1008541663    2.5087141359
H        2.2720043038    1.1121780834    2.4084681152
H        3.5194190822    1.4885539973    6.1818627578
H        0.5461472573   -1.6955573521    8.4246463157
23   
torsion grid (-15,)
C        1.8708279705   -1.0500394418   -0.2016949653
C        1.5044067281   -2.1969221716    0.5093356326
C        2.2261969744    0.1210831164    0.4868107930
C        2.7670190685    0.8525097296    8.1225595938
C        2.0609265846   -0.1643087178    8.7685576279
C        1.4932530592   -2.1742871141    1.9058222993
C        2.2189791912    0.1505966420    1.8784978340
C        2.7817732594    0.8681924431    6.7278506500
C        1.3990808895   -1.1181138183    7.9815026343
C        1.8517405247   -1.0053078849    2.5941979254
C        2.1036449304   -0.1477774309    6.0370539398
N        1.4143069975   -1.1222959018    6.6471238649
N        1.8033982284   -1.1016618903    4.0089482521
N        2.1714251458   -0.0605083008    4.6165349304
H        1.8792264088   -1.0630804451   -1.2886002553
H        1.2275391461   -3.1034902797   -0.0219530545
H        2.5075262031    1.0102571385   -0.0717538690
H        3.2886221646    1.6182906264    8.6906110296
H        2.0096644659   -0.2193413955    9.8521421802
H        1.2106511328   -3.0476765561    2.4866209093
H        2.4899113689    1.0469789099    2.4262609097
H        3.3029916083    1.6347909054    6.1631236602
H        0.8249668696   -1.9134991645    8.4559912290
23   
torsion grid (0,)
C        1.8794647074   -1.0529210341   -0.2060911608
C        1.3583955862   -2.1409408261    0.5009381130
C        2.3797923322    0.0610566915    0.4872542844
C        2.6159617656    0.9555744584    8.1114623975
C        2.0852702872   -0.1553708877    8.7692441211
C        1.3375186042   -2.1154740637    1.8972878117
C        2.3621607712    0.0932736538    1.8787817663
C        2.6465295574    0.9508444151    6.7165579374
C        1.6085860285   -1.2225072059    7.9926274288
C        1.8373052344   -1.0026564911    2.5908941710
C        2.1431728835   -0.1688854391    6.0369764519
N        1.6314450536   -1.2407411344    6.6592355466
N        1.7627497923   -1.0920754986    4.0046474576
N        2.2147671869   -0.0864997921    4.6157204405
H        1.8978644977   -1.0680984064   -1.2928623090
H        0.9706182478   -3.0041616065   -0.0331871964
H        2.7836300937    0.9039257395   -0.0679757961
H        2.9972485004    1.8059993829    8.6705076841
H        2.0371787562   -0.2041672958    9.8533084142
H        0.9394442962   -2.9447724928    2.4749970115
H        2.7447100593    0.9460576155    2.4294700392
H        3.0453053241    1.7816199029    6.1429780011
H        1.1884814195   -2.1038028826    8.4767934724
23   
torsion grid (15,)
C        1.8871678764   -1.0576093426   -0.2012958158
C        1.2211106793   -2.0655428026    0.5026985751
C        2.5248578067   -0.0174105065    0.4938257568
C        2.4393973055    1.0044407201    8.1148703347
C        2.0943000307   -0.1797840793    8.7693318956
C        1.1916978848   -2.0344526131    1.8987568295
C        2.4983405593    0.0210456064    1.8850602177
C        2.4956287411    1.0008858497    6.7211334760
C        1.8239928513   -1.3151647206    7.9914598198
C        1.8257457638   -0.9932596395    2.5935858905
C        2.1846873694   -0.1853654427    6.0389482783
N        1.8624366889   -1.3301154157    6.6576251628
N        1.7288407640   -1.0670963420    4.0071962710
N        2.2623114864   -0.1026650513    4.6186593340
H        1.9137315366   -1.0790708826   -1.2877751833
H        0.7285582274   -2.8720824169   -0.0336548470
H        3.0433078681    0.7617995218   -0.0591776119
H        2.6651861198    1.9074032451    8.6759862138
H        2.0436025153   -0.2350748720    9.8529299027
H        0.6852553186   -2.8040370131    2.4743055794
H        2.9863156396    0.8167698674    2.4379199501
H        2.7659737784    1.8838220350    6.1505233458
H        1.5692961389   -2.2586744832    8.4734384192
23   
torsion grid (30,)
C        1.8956933014   -1.0785265698   -0.1981259857
C        1.1110870660   -1.9931543470    0.5109925997
C        2.6419632427   -0.1091170969    0.4910682742
C        2.2789670863    1.0278000457    8.1132330964
C        2.1042959314   -0.1972089968    8.7626455841
C        1.0715644595   -1.9391725911    1.9062571542
C        2.6057898853   -0.0491515557    1.8814347244
C        2.3613863205    1.0394072400    6.7215429152
C        2.0231859006   -1.3568794900    7.9808809068
C        1.8141063602   -0.9688350035    2.5951778475
C        2.2288177517   -0.1771317970    6.0348614464
N        2.0786145600   -1.3602027201    6.6454715630
N        1.6966619723   -1.0109393419    4.0099129118
N        2.3240615230   -0.1020400693    4.6158260925
H        1.9306402916   -1.1182256084   -1.2838475730
H        0.5346315050   -2.7454053275   -0.0205830545
H        3.2524389264    0.5975208555   -0.0654437691
H        2.3600114142    1.9520596653    8.6792195906
H        2.0490188377   -0.2623889493    9.8454282156
H        0.4747875678   -2.6381114942    2.4853120587
H        3.1773491659    0.6923165421    2.4297061997
H        2.5140348517    1.9547696215    6.1582891875
H        1.9166842634   -2.3311319076    8.4567936157
23   
torsion grid (45,)
C        1.9022362078   -1.0891398074   -0.1908246388
C        1.0088770906   -1.8987831567    0.5170755029
C        2.7507534639   -0.2076289186    0.4979385057
C        2.1138717241    1.0332074849    8.1075152362
C        2.1206095549   -0.2034923519    8.7607487656
C        0.9627300262   -1.8278086408    1.9115398267
C        2.7081711833   -0.1301366369    1.8873673406
C        2.2082766102    1.0552257898    6.7174175965
C        2.2232824231   -1.3626794430    7.9844191712
C        1.8066200068   -0.9436462478    2.5984836729
C        2.2592388726   -0.1705511971    6.0367316393
N        2.2884348272   -1.3609042198    6.6471924573
N        1.6730983728   -0.9571316028    4.0143833205
N        2.3808186553   -0.1093719843    4.6175712304
H        1.9432288612   -1.1434783466   -1.2756923324
H        0.3537971362   -2.5836593491   -0.0144470367
H        3.4462844211    0.4161166793   -0.0577688082
H        2.0495151180    1.9603623153    8.6709739798
H        2.0668427483   -0.2725915143    9.8433060490
H        0.2835520505   -2.4477696668    2.4898073271
H        3.3581612330    0.5436226857    2.4358412200
H        2.2311366936    1.9830922479    6.1541891400
H        2.2633761875   -2.3412128595    8.4612397203
23   
torsion grid (60,)
C        1.9049656182   -1.0919474981   -0.1899050715
C        0.9224551039   -1.7957089533    0.5128302164
C        2.8402197275   -0.3067114947    0.5029260478
C        1.9644906487    1.0064881395    8.0892211718
C        2.1447864834   -0.2076989661    8.7612308393
C        0.8737468194   -1.7148398357    1.9068611168
C        2.7955389274   -0.2194454083    1.8918016575
C        2.0655354470    1.0258151853    6.6998872424
C        2.4180910061   -1.3490259671    8.0032320776
C        1.8044197737   -0.9261311796    2.5965544167
C        2.2989166520   -0.1889023365    6.0392079527
N        2.4936907062   -1.3535612230    6.6642282380
N        1.6594071619   -0.9173267532    4.0135981928
N        2.4481917423   -0.1488347562    4.6181235063
H        1.9482240032   -1.1547521739   -1.2742150297
H        0.2000906167   -2.4062967165   -0.0219834976
H        3.6048553400    0.2339979554   -0.0489017308
H        1.7605783506    1.9216442689    8.6390125217
H        2.0906500250   -0.2690909408    9.8441573631
H        0.1258480315   -2.2541321248    2.4812255531
H        3.5119159040    0.3800279534    2.4439561703
H        1.9581110922    1.9413213105    6.1262265953
H        2.5898395665   -2.3071528007    8.4917627308
23   
torsion grid (75,)
C        1.9069498384   -1.0847370460   -0.1886491928
C        0.8465576784   -1.6740881975    0.5059138312
C        2.9184908546   -0.4078036900    0.5111639168
C        1.8177611625    0.9556216365    8.0670798671
C        2.1718691974   -0.2041695479    8.7658260472
C        0.7961961822   -1.5869237778    1.8996646770
C        2.8727305390   -0.3144553011    1.8996815563
C        1.9190296099    0.9609380780    6.6774024968
C        2.6105654317   -1.3084888384    8.0327960317
C        1.8032927283   -0.9055141339    2.5952657667
C        2.3412368059   -0.2172007893    6.0466432402
N        2.6979704866   -1.3277178564    6.6935477830
N        1.6497913695   -0.8784991290    4.0133645278
N        2.5118886187   -0.2010579864    4.6229878836
H        1.9517162278   -1.1534113498   -1.2725290661
H        0.0651399393   -2.2011812738   -0.0346179731
H        3.7432451547    0.0431914722   -0.0346046727
H        1.4753846321    1.8411534946    8.5963570146
H        2.1191643381   -0.2507412563    9.8495234270
H       -0.0116531672   -2.0392466105    2.4679403646
H        3.6473342844    0.2011525638    2.4579566989
H        1.6736724418    1.8375947985    6.0856789139
H        2.9095125373   -2.2246255845    8.5399271084
23   
torsion grid (90,)
C        1.9046668555   -1.0797762193   -0.1853637124
C        0.7795138418   -1.5412383418    0.5039594692
C        2.9829183486   -0.5212549736    0.5192917068
C        1.6736104185    0.8873995415    8.0364943708
C        2.1932955370   -0.1867386037    8.7671954843
C        0.7312096831   -1.4445364582    1.8972645379
C        2.9395557637   -0.4187543234    1.9073156090
C        1.7780623998    0.8706151557    6.6466198564
C        2.7957022436   -1.2326330225    8.0655081581
C        1.8051602951   -0.8803927983    2.5972876149
C        2.3930231471   -0.2382400902    6.0513885528
N        2.9023084853   -1.2674749362    6.7277081543
N        1.6482739103   -0.8312894625    4.0156627468
N        2.5780122733   -0.2538387580    4.6270264024
H        1.9478554718   -1.1567486801   -1.2687456662
H       -0.0539281235   -1.9770098466   -0.0401775833
H        3.8575375996   -0.1700427898   -0.0221311815
H        1.1946300643    1.7227554715    8.5408479065
H        2.1377955232   -0.2138314751    9.8513878124
H       -0.1268114143   -1.7994758742    2.4611814281
H        3.7649846028    0.0054333358    2.4696879552
H        1.3957628828    1.6792945534    6.0313641805
H        3.2147935842   -2.0859126942    8.5966379159
23   
torsion grid (105,)
C        1.9013607606   -1.0742226883   -0.1795332305
C        0.7276127132   -1.4026335377    0.5050477102
C        3.0312289837   -0.6354021136    0.5289320713
C        1.5326944745    0.8059925449    7.9986895698
C        2.1977197262   -0.1575431203    8.7637523380
C        0.6821846653   -1.2922255642    1.8973758584
C        2.9920496757   -0.5196458475    1.9160174039
C        1.6487577854    0.7620158677    6.6097909450
C        2.9548521507   -1.1236087198    8.0965021561
C        1.8086931426   -0.8469407269    2.6007047086
C        2.4409244300   -0.2498368877    6.0526727257
N        3.0874257074   -1.1747925692    6.7625340283
N        1.6506278532   -0.7714796151    4.0176399325
N        2.6388934260   -0.3034737756    4.6322230472
H        1.9419054811   -1.1623408929   -1.2621664789
H       -0.1461800685   -1.7458319608   -0.0420508816
H        3.9427229182   -0.3876567720   -0.0088630622
H        0.9286758545    1.5739217226    8.4752362979
H        2.1347033136   -0.1628211701    9.8478934857
H       -0.2136181351   -1.5450478119    2.4576270223
H        3.8564104510   -0.1873994600    2.4816841908
H        1.1476250256    1.4794042044    5.9675362803
H        3.4823273898   -1.8951271836    8.6553781401
23   
torsion grid (120,)
C        1.8983555321   -1.0671546760   -0.1742126687
C        0.6902701337   -1.2611704319    0.5020449171
C        3.0642101102   -0.7523740582    0.5418549297
C        1.4184885450    0.6943175691    7.9701944422
C        2.2158281972   -0.1381938651    8.7617734285
C        0.6468846405   -1.1402096635    1.8934516312
C        3.0269190951   -0.6267150563    1.9280999584
C        1.5391265157    0.6222008780    6.5830705255
C        3.1076315685   -1.0048194910    8.1229434533
C        1.8096931637   -0.8180641225    2.6056160022
C        2.4788119728   -0.2736633450    6.0545613101
N        3.2534624472   -1.0718797336    6.7922180565
N        1.6510568564   -0.7193879731    4.0196473041
N        2.6838308052   -0.3655437777    4.6410502987
H        1.9372146841   -1.1640441898   -1.2561503173
H       -0.2118643913   -1.5084150931   -0.0508456448
H        4.0017123529   -0.6089872201    0.0108325927
H        0.7098309964    1.3812797892    8.4257844335
H        2.1533193263   -0.1184396436    9.8458250977
H       -0.2758675923   -1.2904545826    2.4468311501
H        3.9180981466   -0.3891861338    2.4996622010
H        0.9362430762    1.2329093071    5.9188293952
H        3.7381258550   -1.6756121098    8.7046206608
23   
torsion grid (135,)
C        1.9015301803   -1.0579437202   -0.1728371029
C        0.6722576854   -1.1330853871    0.4889272820
C        3.0835269506   -0.8535824404    0.5568067855
C        1.3328380385    0.5893704655    7.9516426578
C        2.2354822403   -0.1051704536    8.7631103377
C        0.6237509247   -1.0032952518    1.8791394868
C        3.0428460913   -0.7207123634    1.9421161619
C        1.4498271946    0.4786700501    6.5673532325
C        3.2260130745   -0.8749491058    8.1444113927
C        1.8042025849   -0.7929591676    2.6051614519
C        2.4904043541   -0.3124918970    6.0564500997
N        3.3695976957   -0.9730065285    6.8166510430
N        1.6391486467   -0.6735693141    4.0142825815
N        2.7007869828   -0.4487592304    4.6513763166
H        1.9438261358   -1.1610140822   -1.2540735681
H       -0.2427365683   -1.2942167142   -0.0745502330
H        4.0364896778   -0.8010378271    0.0366538019
H        0.5497473972    1.2020200852    8.3911004216
H        2.1816657102   -0.0500540837    9.8464869508
H       -0.3159779352   -1.0614438141    2.4212420920
H        3.9455511455   -0.5667943402    2.5240400414
H        0.7711222788    0.9832981070    5.8880106396
H        3.9428616601   -1.4350027997    8.7430472080
23   
torsion grid (150,)
C        1.9128460197   -1.0578088663   -0.1762180211
C        0.6709798518   -1.0004525700    0.4636512146
C        3.0965437769   -0.9700844345    0.5738943410
C        1.2611334289    0.4685144101    7.9587968517
C        2.2676779325   -0.0705235982    8.7669489814
C        0.6120097559   -0.8552922370    1.8517537843
C        3.0450717969   -0.8232160652    1.9572735199
C        1.3594757933    0.3257618010    6.5769187615
C        3.3386618907   -0.7216678288    8.1457601594
C        1.7944119342   -0.7630790312    2.6000261963
C        2.4806296535   -0.3449862825    6.0594802292
N        3.4605945127   -0.8496069830    6.8192764089
N        1.6189180658   -0.6169869027    4.0027765454
N        2.6894214138   -0.5159162532    4.6597574870
H        1.9632503093   -1.1727388772   -1.2559045339
H       -0.2458172426   -1.0704102140   -0.1154120705
H        4.0589695780   -1.0188662441    0.0710436013
H        0.4159891378    0.9906782363    8.4001943355
H        2.2331822204    0.0173620583    9.8490162405
H       -0.3384681544   -0.8112936213    2.3761519190
H        3.9483638275   -0.7573852279    2.5545378374
H        0.6068416457    0.7157709266    5.9006330346
H        4.1410316657   -1.1538641179    8.7419180985
23   
torsion grid (165,)
C        1.9296400534   -1.0649073561   -0.1761728464
C        0.6892116229   -0.8674832258    0.4381669654
C        3.1012034552   -1.0959501258    0.5972915343
C        1.1998942031    0.3333982047    7.9828948670
C        2.2941498792   -0.0341861109    8.7739322645
C        0.6194884948   -0.7010439259    1.8232037216
C        3.0401029671   -0.9301068219    1.9779798204
C        1.2778822044    0.1597708132    6.6041829058
C        3.4255983799   -0.5548424804    8.1378103732
C        1.7904866994   -0.7302544960    2.5950872773
C        2.4624017653   -0.3752489683    6.0671405692
N        3.5218948356   -0.7169834048    6.8132597014
N        1.6056374346   -0.5510771032    3.9906912232
N        2.6673849299   -0.5784894510    4.6706232726
H        1.9881707721   -1.1956679816   -1.2536551571
H       -0.2184972166   -0.8443788774   -0.1587154859
H        4.0623997096   -1.2512755638    0.1140989501
H        0.3038896467    0.7500477336    8.4361091793
H        2.2783566325    0.0851421026    9.8534562606
H       -0.3306797690   -0.5479317899    2.3273053655
H        3.9336887340   -0.9531080726    2.5926869329
H        0.4615481099    0.4242065325    5.9416666238
H        4.2979285494   -0.8494870133    8.7194944408
23   
torsion grid (180,)
C        1.9304219425   -1.0786956863   -0.1767743341
C        0.7151391634   -0.7200366494    0.4144926905
C        3.0786490282   -1.2406992808    0.6151449934
C        1.1513047426    0.1664361379    8.0065202524
C        2.3128306966    0.0015175692    8.7698829177
C        0.6477197782   -0.5235897905    1.7956603347
C        3.0187166664   -1.0464166600    1.9921233613
C        1.2177333918   -0.0270596375    6.6302196648
C        3.4931959068   -0.3526995811    8.1090438537
C        1.7947065124   -0.6851947808    2.5872001776
C        2.4568451734   -0.3812021461    6.0661672273
N        3.5748922726   -0.5428205254    6.7873911234
N        1.6145742250   -0.4616417670    3.9762788665
N        2.6560179079   -0.6090399185    4.6721580925
H        1.9875419974   -1.2326953105   -1.2512482664
H       -0.1742123251   -0.5943545092   -0.1970735063
H        4.0203211717   -1.5197215984    0.1493823325
H        0.2119818000    0.4412062689    8.4798524545
H        2.3079258540    0.1423292609    9.8469609192
H       -0.2829037880   -0.2446418736    2.2819456079
H        3.8944117895   -1.1666366229    2.6210070343
H        0.3513724566    0.0861594832    5.9885925487
H        4.4173504586   -0.4902584528    8.6686170579
