
  -OEChem-05262117483D

 28 30  0     1  0  0  0  0  0999 V2000
    0.2266    0.2294    2.2134 C   0  0  0  0  0  0  0  0  0  0  0  0
    0.0649   -0.4800    1.0132 C   0  0  0  0  0  0  0  0  0  0  0  0
   -0.0269   -0.3866    3.4449 C   0  0  0  0  0  0  0  0  0  0  0  0
   -0.3539   -1.8178    1.0026 C   0  0  0  0  0  0  0  0  0  0  0  0
   -0.4476   -1.7160    3.4430 C   0  0  0  0  0  0  0  0  0  0  0  0
   -0.6038   -2.4010    2.2376 C   0  0  0  0  0  0  0  0  0  0  0  0
    1.5279   -3.7349    4.7832 C   0  0  0  0  0  0  0  0  0  0  0  0
    2.9177   -4.7369    3.1456 C   0  0  0  0  0  0  0  0  0  0  0  0
   -1.4737   -3.8045    3.7948 C   0  0  0  0  0  0  0  0  0  0  0  0
    3.6830   -5.0555    4.4329 C   0  0  0  0  0  0  0  0  0  0  0  0
   -0.7559   -2.6763    4.5696 C   0  0  1  0  0  0  0  0  0  0  0  0
    1.5829   -4.2947    3.5793 N   0  3  0  0  0  0  0  0  0  0  0  0
    0.4648   -3.1234    5.3038 N   0  0  0  0  0  0  0  0  0  0  0  0
   -0.9756   -3.7289    2.4297 O   0  0  0  0  0  0  0  0  0  0  0  0
    3.0276   -3.8608    5.6790 S   0  0  0  0  0  0  0  0  0  0  0  0
    0.5409    1.2680    2.1846 H   0  0  0  0  0  0  0  0  0  0  0  0
    0.2582    0.0197    0.0684 H   0  0  0  0  0  0  0  0  0  0  0  0
    0.0958    0.1649    4.3736 H   0  0  0  0  0  0  0  0  0  0  0  0
   -0.4918   -2.3697    0.0783 H   0  0  0  0  0  0  0  0  0  0  0  0
    3.3992   -3.9341    2.5778 H   0  0  0  0  0  0  0  0  0  0  0  0
    2.8223   -5.6188    2.5097 H   0  0  0  0  0  0  0  0  0  0  0  0
   -1.2874   -4.8098    4.1741 H   0  0  0  0  0  0  0  0  0  0  0  0
   -2.5489   -3.6084    3.7748 H   0  0  0  0  0  0  0  0  0  0  0  0
    3.4907   -6.0680    4.7912 H   0  0  0  0  0  0  0  0  0  0  0  0
    4.7558   -4.8959    4.3278 H   0  0  0  0  0  0  0  0  0  0  0  0
   -1.4063   -2.2598    5.3392 H   0  0  0  0  0  0  0  0  0  0  0  0
    0.7905   -4.2655    2.9282 H   0  0  0  0  0  0  0  0  0  0  0  0
    0.5517   -2.8176    6.2667 H   0  0  0  0  0  0  0  0  0  0  0  0
  1  2  1  0  0  0  0
  1  3  2  0  0  0  0
  1 16  1  0  0  0  0
  2  4  2  0  0  0  0
  2 17  1  0  0  0  0
  3  5  1  0  0  0  0
  3 18  1  0  0  0  0
  4  6  1  0  0  0  0
  4 19  1  0  0  0  0
  5  6  2  0  0  0  0
  5 11  1  0  0  0  0
  6 14  1  0  0  0  0
  7 12  2  0  0  0  0
  7 13  1  0  0  0  0
  7 15  1  0  0  0  0
  8 10  1  0  0  0  0
  8 12  1  0  0  0  0
  8 20  1  0  0  0  0
  8 21  1  0  0  0  0
  9 11  1  0  0  0  0
  9 14  1  0  0  0  0
  9 22  1  0  0  0  0
  9 23  1  0  0  0  0
 10 15  1  0  0  0  0
 10 24  1  0  0  0  0
 10 25  1  0  0  0  0
 11 13  1  0  0  0  0
 11 26  1  0  0  0  0
 12 27  1  0  0  0  0
 13 28  1  0  0  0  0
M  CHG  1  12   1
M  END
$$$$
