
  -OEChem-05262117483D

 54 57  0     0  0  0  0  0  0999 V2000
   -2.9985   -0.5727   -1.5575 C   0  0  0  0  0  0  0  0  0  0  0  0
   -1.9890    0.4299   -1.2811 C   0  0  0  0  0  0  0  0  0  0  0  0
   -1.0151   -0.0543   -0.4505 C   0  0  0  0  0  0  0  0  0  0  0  0
   -4.1820   -0.4360   -2.3879 C   0  0  0  0  0  0  0  0  0  0  0  0
   -2.7499   -1.7753   -0.9226 C   0  0  0  0  0  0  0  0  0  0  0  0
   -4.7420   -2.8055   -1.8036 C   0  0  0  0  0  0  0  0  0  0  0  0
    1.5330    0.4064    2.1587 C   0  0  0  0  0  0  0  0  0  0  0  0
   -7.2377   -0.3791   -2.7870 C   0  0  0  0  0  0  0  0  0  0  0  0
   -7.5656   -1.8117   -2.4348 C   0  0  0  0  0  0  0  0  0  0  0  0
   -0.0716    0.9747    3.7682 C   0  0  0  0  0  0  0  0  0  0  0  0
   -0.6422    1.2530    2.3658 C   0  0  0  0  0  0  0  0  0  0  0  0
   -6.2788   -1.4850   -3.1514 C   0  0  0  0  0  0  0  0  0  0  0  0
   -6.0936   -1.8820   -4.6007 C   0  0  0  0  0  0  0  0  0  0  0  0
   -1.4208    1.8440   -3.3023 C   0  0  0  0  0  0  0  0  0  0  0  0
   -0.6119   -5.3267   -2.6614 C   0  0  0  0  0  0  0  0  0  0  0  0
   -2.0008    1.8160   -1.8777 C   0  0  0  0  0  0  0  0  0  0  0  0
    0.2267    0.6090    0.0688 C   0  0  0  0  0  0  0  0  0  0  0  0
   -3.2739   -4.1600   -0.3998 C   0  0  0  0  0  0  0  0  0  0  0  0
   -2.5696   -5.1165   -1.3510 C   0  0  0  0  0  0  0  0  0  0  0  0
   -5.0512   -1.5624   -2.3625 N   0  0  0  0  0  0  0  0  0  0  0  0
   -3.5866   -2.8648   -1.0186 N   0  0  0  0  0  0  0  0  0  0  0  0
    1.3562    0.8428    3.4714 N   0  0  0  0  0  0  0  0  0  0  0  0
    0.3066    0.5407    1.5184 N   0  0  0  0  0  0  0  0  0  0  0  0
   -4.4623    0.5488   -3.0673 O   0  0  0  0  0  0  0  0  0  0  0  0
   -5.4401   -3.8019   -1.9650 O   0  0  0  0  0  0  0  0  0  0  0  0
    2.5716   -0.0106    1.6615 O   0  0  0  0  0  0  0  0  0  0  0  0
   -1.3060   -4.5672   -1.6833 O   0  0  0  0  0  0  0  0  0  0  0  0
   -1.2908   -1.7353    0.0155 S   0  0  0  0  0  0  0  0  0  0  0  0
   -7.7582    0.1036   -3.6085 H   0  0  0  0  0  0  0  0  0  0  0  0
   -6.9507    0.2908   -1.9843 H   0  0  0  0  0  0  0  0  0  0  0  0
   -7.5003   -2.1090   -1.3940 H   0  0  0  0  0  0  0  0  0  0  0  0
   -8.3192   -2.3454   -3.0057 H   0  0  0  0  0  0  0  0  0  0  0  0
   -0.2667    1.7927    4.4659 H   0  0  0  0  0  0  0  0  0  0  0  0
   -0.4924    0.0464    4.1785 H   0  0  0  0  0  0  0  0  0  0  0  0
   -1.6585    0.8721    2.2370 H   0  0  0  0  0  0  0  0  0  0  0  0
   -0.6393    2.3306    2.1408 H   0  0  0  0  0  0  0  0  0  0  0  0
   -5.3638   -1.2262   -5.0849 H   0  0  0  0  0  0  0  0  0  0  0  0
   -7.0403   -1.7977   -5.1426 H   0  0  0  0  0  0  0  0  0  0  0  0
   -5.7524   -2.9197   -4.6717 H   0  0  0  0  0  0  0  0  0  0  0  0
   -0.3840    1.4904   -3.3111 H   0  0  0  0  0  0  0  0  0  0  0  0
   -1.4403    2.8624   -3.7047 H   0  0  0  0  0  0  0  0  0  0  0  0
   -2.0113    1.2073   -3.9658 H   0  0  0  0  0  0  0  0  0  0  0  0
    0.3354   -4.8168   -2.8479 H   0  0  0  0  0  0  0  0  0  0  0  0
   -1.1828   -5.3861   -3.5997 H   0  0  0  0  0  0  0  0  0  0  0  0
   -0.4084   -6.3479   -2.3059 H   0  0  0  0  0  0  0  0  0  0  0  0
   -3.0298    2.1805   -1.9086 H   0  0  0  0  0  0  0  0  0  0  0  0
   -1.4321    2.4961   -1.2356 H   0  0  0  0  0  0  0  0  0  0  0  0
    1.1308    0.1231   -0.3106 H   0  0  0  0  0  0  0  0  0  0  0  0
    0.2480    1.6516   -0.2760 H   0  0  0  0  0  0  0  0  0  0  0  0
   -4.2134   -4.6068   -0.0728 H   0  0  0  0  0  0  0  0  0  0  0  0
   -2.6505   -3.9742    0.4780 H   0  0  0  0  0  0  0  0  0  0  0  0
   -3.1841   -5.2652   -2.2492 H   0  0  0  0  0  0  0  0  0  0  0  0
   -2.4534   -6.0921   -0.8508 H   0  0  0  0  0  0  0  0  0  0  0  0
    1.9836    0.4338    4.1531 H   0  0  0  0  0  0  0  0  0  0  0  0
  1  2  1  0  0  0  0
  1  4  1  0  0  0  0
  1  5  2  0  0  0  0
  2  3  2  0  0  0  0
  2 16  1  0  0  0  0
  3 17  1  0  0  0  0
  3 28  1  0  0  0  0
  4 20  1  0  0  0  0
  4 24  2  0  0  0  0
  5 21  1  0  0  0  0
  5 28  1  0  0  0  0
  6 20  1  0  0  0  0
  6 21  1  0  0  0  0
  6 25  2  0  0  0  0
  7 22  1  0  0  0  0
  7 23  1  0  0  0  0
  7 26  2  0  0  0  0
  8  9  1  0  0  0  0
  8 12  1  0  0  0  0
  8 29  1  0  0  0  0
  8 30  1  0  0  0  0
  9 12  1  0  0  0  0
  9 31  1  0  0  0  0
  9 32  1  0  0  0  0
 10 11  1  0  0  0  0
 10 22  1  0  0  0  0
 10 33  1  0  0  0  0
 10 34  1  0  0  0  0
 11 23  1  0  0  0  0
 11 35  1  0  0  0  0
 11 36  1  0  0  0  0
 12 13  1  0  0  0  0
 12 20  1  0  0  0  0
 13 37  1  0  0  0  0
 13 38  1  0  0  0  0
 13 39  1  0  0  0  0
 14 16  1  0  0  0  0
 14 40  1  0  0  0  0
 14 41  1  0  0  0  0
 14 42  1  0  0  0  0
 15 27  1  0  0  0  0
 15 43  1  0  0  0  0
 15 44  1  0  0  0  0
 15 45  1  0  0  0  0
 16 46  1  0  0  0  0
 16 47  1  0  0  0  0
 17 23  1  0  0  0  0
 17 48  1  0  0  0  0
 17 49  1  0  0  0  0
 18 19  1  0  0  0  0
 18 21  1  0  0  0  0
 18 50  1  0  0  0  0
 18 51  1  0  0  0  0
 19 27  1  0  0  0  0
 19 52  1  0  0  0  0
 19 53  1  0  0  0  0
 22 54  1  0  0  0  0
M  END
$$$$
