27
0 1 C11H12N2OS
C                     0.303848082674     0.140793486641     1.727431544721
C                    -0.337895841835    -0.505232248810     0.660667730197
C                     0.258532960633    -0.408177523509     3.016938874472
C                    -1.033345479905    -1.707566682033     0.847527622349
C                    -0.431258233149    -1.602194005370     3.210542754459
C                    -1.063139003549    -2.232063669532     2.138017126170
C                     1.197872040559    -2.017446633478     6.067754943708
C                     2.864235381563    -1.119693928922     7.327296428547
C                    -1.396679960362    -3.670711229819     3.876056747760
C                     1.640344046812    -0.543366986447     8.075575261628
C                    -0.651606496524    -2.435647937547     4.456923607361
N                     2.433175658661    -2.137877338718     6.376998649516
N                     0.554935736916    -2.846798198705     5.172576019518
O                    -1.704686185264    -3.393658156917     2.486649978902
S                     0.245675018060    -0.718794565890     6.895582727282
H                     0.837046362799     1.070932561463     1.552847246206
H                    -0.294971198467    -0.068688651891    -0.333885631098
H                     0.750095429652     0.087163799971     3.850234757292
H                    -1.529030249979    -2.215854220138     0.026074556168
H                     3.386993974298    -0.322435231112     6.780046244477
H                     3.576816131683    -1.546777641809     8.040163013738
H                    -0.759492161676    -4.560277314212     3.916970591814
H                    -2.335177627356    -3.882243575493     4.390943744819
H                     1.406891397745    -1.119012877852     8.974781605399
H                     1.763249629198     0.508110972836     8.342115546601
H                    -1.288627673182    -1.911962755516     5.175318152323
H                     1.228347493708    -3.351149441544     4.601047539571
