64
-1 1 C30H28NO5
C                    -6.260872351084    -8.054170186335     9.194465777834
C                    -6.695830750043    -6.818631703511     8.651171018784
C                     6.496345054777     2.688936847274    -0.734345782336
C                     7.238069864058     1.492027882780    -0.746690751105
C                    -4.991256999061    -8.523348332340     8.917365391198
C                    -5.854047229897    -6.079733764181     7.842304824150
C                     5.146275330053     2.681473951032    -0.370642042021
C                     2.022017592139     1.811362675198     0.710223413816
C                     6.651550767419     0.269506016316    -0.403896506334
C                     0.923337613051     1.129367166622     1.227483347323
C                    -2.796398921944    -8.241502220978     7.776104818596
C                    -3.655895193980    -5.795323334140     6.712491275384
C                     2.110330114124    -1.007742410048     1.077255218402
C                    -4.104878011421    -7.784223243692     8.089032010549
C                    -4.543580561400    -6.538537385679     7.538943436340
C                     4.533441483709     1.471756892458    -0.021799074186
C                     3.202246361776     1.106721303064     0.415539870789
C                     5.297131216607     0.260227417812    -0.047774213831
C                     3.218472633714    -0.298953701486     0.612435957999
C                     0.983716880958    -0.270423609599     1.437741471316
C                    -1.944788607455    -7.514429444933     6.974718623211
C                    -2.380933220633    -6.252600438139     6.433771077306
C                     3.640414717944    -3.260199458007     2.561175264922
C                    -0.134912158204    -8.036043099272     5.455882956321
C                     4.959998622938    -2.615577534444     2.014023327893
C                    -0.988936774924    -2.544412841218     3.517375756442
C                    -0.693984886134    -3.898589161017     4.177128602743
C                     4.899570369096    -2.191301736381     0.534229381919
C                     0.142909264132    -2.179129237049     2.572297548579
C                    -1.836373209456    -4.344671711627     5.072559441743
N                     4.481033915932    -0.800656211298     0.319677699251
O                     3.352778418336    -3.012818330286     3.761166443247
O                     2.993933715463    -3.968354503319     1.729550290896
O                    -0.676784864627    -7.995419858176     6.791206105007
O                    -0.099207772743    -0.856026584068     2.044897039810
O                    -1.464878572989    -5.593167177831     5.680637403158
H                    -6.929439580472    -8.629401356268     9.830385911344
H                    -7.695566380804    -6.453709707297     8.874194474047
H                     6.980638899091     3.624397936680    -1.004907618314
H                     8.289619447477     1.515805084880    -1.024244430939
H                    -4.653073020234    -9.470239607162     9.333290153740
H                    -6.187993065486    -5.131385140612     7.426220435303
H                     4.576898024260     3.608684892552    -0.354505058154
H                     1.971362161857     2.889143424779     0.569236078979
H                     7.240303478730    -0.643179132482    -0.409959215552
H                     0.016844906556     1.656763722437     1.511379268945
H                    -2.436541601437    -9.186106069097     8.175481463621
H                    -3.992504521348    -4.842611935517     6.319144488256
H                     2.163036270142    -2.082063568363     1.201287535489
H                     0.620258943457    -8.825251556471     5.472472312619
H                     0.322292887734    -7.084361161995     5.184647334876
H                    -0.912911774230    -8.291800207929     4.728246278458
H                     5.735849588984    -3.386573834052     2.110685551873
H                     5.257532102750    -1.774579196860     2.646977349053
H                    -1.941017240851    -2.576470835857     2.970274440504
H                    -1.082318888672    -1.763103851460     4.281968461456
H                     0.232913581535    -3.834290864897     4.755833228385
H                    -0.524606823520    -4.660741253109     3.408234406687
H                     4.196481618774    -2.857960948543     0.024157209547
H                     5.872053008375    -2.298010384414     0.047039218436
H                     1.101524020840    -2.205846658859     3.100887351378
H                     0.206149639756    -2.901774170409     1.750380690323
H                    -2.756533859497    -4.485706566578     4.489387295709
H                    -2.038230899235    -3.607522067965     5.861851715320
