
  -OEChem-05262117483D

 39 41  0     1  0  0  0  0  0999 V2000
   -1.1603    2.0250   -2.7373 C   0  0  0  0  0  0  0  0  0  0  0  0
   -2.6532    1.0845   -1.0990 C   0  0  0  0  0  0  0  0  0  0  0  0
   -2.1436    1.9072   -3.7231 C   0  0  0  0  0  0  0  0  0  0  0  0
   -3.6535    0.9625   -2.0653 C   0  0  0  0  0  0  0  0  0  0  0  0
   -0.7038   -1.3545   -3.6122 C   0  0  0  0  0  0  0  0  0  0  0  0
    1.0639   -0.2190   -3.5163 C   0  0  0  0  0  0  0  0  0  0  0  0
   -1.3883    1.6028   -1.4213 C   0  0  0  0  0  0  0  0  0  0  0  0
   -3.3745    1.3707   -3.3658 C   0  0  0  0  0  0  0  0  0  0  0  0
    1.5432   -0.5500    2.2231 C   0  0  0  0  0  0  0  0  0  0  0  0
    0.5805    0.5313    2.6864 C   0  0  0  0  0  0  0  0  0  0  0  0
    1.2110    0.6104    1.3228 C   0  0  0  0  0  0  0  0  0  0  0  0
    2.1415    2.8296    1.6343 C   0  0  0  0  0  0  0  0  0  0  0  0
   -0.3090    1.7009   -0.3672 C   0  0  0  0  0  0  0  0  0  0  0  0
    1.3232   -0.2252   -0.9852 C   0  0  0  0  0  0  0  0  0  0  0  0
    0.3560    0.3623    0.0684 C   0  0  1  0  0  0  0  0  0  0  0  0
    0.2045   -0.7136   -4.4000 N   0  0  0  0  0  0  0  0  0  0  0  0
   -0.4474   -1.2917   -2.3088 N   0  0  0  0  0  0  0  0  0  0  0  0
    0.6943   -0.5476   -2.2596 N   0  0  0  0  0  0  0  0  0  0  0  0
   -0.6305   -0.6007    0.4226 O   0  0  0  0  0  0  0  0  0  0  0  0
    2.2622    1.5251    1.0699 O   0  0  0  0  0  0  0  0  0  0  0  0
   -4.3406    1.2466   -4.3161 F   0  0  0  0  0  0  0  0  0  0  0  0
   -0.1950    2.4457   -3.0075 H   0  0  0  0  0  0  0  0  0  0  0  0
   -2.8513    0.7628   -0.0811 H   0  0  0  0  0  0  0  0  0  0  0  0
   -1.9611    2.2119   -4.7486 H   0  0  0  0  0  0  0  0  0  0  0  0
   -4.6324    0.5589   -1.8247 H   0  0  0  0  0  0  0  0  0  0  0  0
   -1.5708   -1.8745   -3.9974 H   0  0  0  0  0  0  0  0  0  0  0  0
    1.9455    0.3696   -3.7360 H   0  0  0  0  0  0  0  0  0  0  0  0
    2.5420   -0.5471    2.6485 H   0  0  0  0  0  0  0  0  0  0  0  0
    1.1246   -1.5212    1.9838 H   0  0  0  0  0  0  0  0  0  0  0  0
   -0.4729    0.2765    2.7293 H   0  0  0  0  0  0  0  0  0  0  0  0
    0.9231    1.2213    3.4505 H   0  0  0  0  0  0  0  0  0  0  0  0
    2.9150    3.4386    1.1599 H   0  0  0  0  0  0  0  0  0  0  0  0
    2.3197    2.8190    2.7168 H   0  0  0  0  0  0  0  0  0  0  0  0
    1.1611    3.2780    1.4408 H   0  0  0  0  0  0  0  0  0  0  0  0
   -0.7454    2.1249    0.5428 H   0  0  0  0  0  0  0  0  0  0  0  0
    0.4744    2.3884   -0.6994 H   0  0  0  0  0  0  0  0  0  0  0  0
    2.1285    0.4834   -1.1823 H   0  0  0  0  0  0  0  0  0  0  0  0
    1.7577   -1.1388   -0.5700 H   0  0  0  0  0  0  0  0  0  0  0  0
   -0.9425   -1.0183   -0.4079 H   0  0  0  0  0  0  0  0  0  0  0  0
  1  3  1  0  0  0  0
  1  7  2  0  0  0  0
  1 22  1  0  0  0  0
  2  4  2  0  0  0  0
  2  7  1  0  0  0  0
  2 23  1  0  0  0  0
  3  8  2  0  0  0  0
  3 24  1  0  0  0  0
  4  8  1  0  0  0  0
  4 25  1  0  0  0  0
  5 16  1  0  0  0  0
  5 17  2  0  0  0  0
  5 26  1  0  0  0  0
  6 16  2  0  0  0  0
  6 18  1  0  0  0  0
  6 27  1  0  0  0  0
  7 13  1  0  0  0  0
  8 21  1  0  0  0  0
  9 10  1  0  0  0  0
  9 11  1  0  0  0  0
  9 28  1  0  0  0  0
  9 29  1  0  0  0  0
 10 11  1  0  0  0  0
 10 30  1  0  0  0  0
 10 31  1  0  0  0  0
 11 15  1  0  0  0  0
 11 20  1  0  0  0  0
 12 20  1  0  0  0  0
 12 32  1  0  0  0  0
 12 33  1  0  0  0  0
 12 34  1  0  0  0  0
 13 15  1  0  0  0  0
 13 35  1  0  0  0  0
 13 36  1  0  0  0  0
 14 15  1  0  0  0  0
 14 18  1  0  0  0  0
 14 37  1  0  0  0  0
 14 38  1  0  0  0  0
 15 19  1  0  0  0  0
 17 18  1  0  0  0  0
 19 39  1  0  0  0  0
M  END
$$$$
