39
0 1 C14H19NO4S
C                    -2.279105528563     3.013577810711     3.250997722494
C                    -2.970311355906     3.305207704893     4.425686805792
C                    -1.521607269574     1.835655819787     5.648352169240
C                    -1.213961297934     2.103182999090     3.231397077987
C                    -2.608941980312     2.723270621426     5.649194534691
C                    -0.851908701643     1.529414776599     4.466139191443
C                    -0.563372985989     1.904593047380     1.876528128721
C                    -3.600965705203     2.006174497419     7.964083587167
C                    -2.654658419767     3.141617639732     8.236980470505
C                    -3.357106701620     3.056661889881     6.888385885466
C                     3.936489642486     1.838091521944     3.187441359282
C                     3.653712364445    -0.204067756065     4.642856074117
C                     2.850812743405    -0.215423290452     2.241189319947
C                     3.041757719578     0.630751146392     3.506868143866
N                     1.725659663625     1.255509503752     3.905631006827
O                    -0.405479068992     2.852207120063     1.133044292056
O                     0.723801275525     0.095956783132     6.052101215053
O                     0.234929011151    -0.797271673235     3.740388813372
O                    -0.263240367638     0.659525030220     1.468380741854
S                     0.503211400419     0.355847125645     4.625946719069
H                    -2.552914835123     3.497324094198     2.319061842328
H                    -3.799715521349     4.007452756238     4.392235720395
H                    -1.173778226441     1.373062437485     6.566341843315
H                    -3.184006189544     1.018011718250     7.794168584314
H                    -4.571032364760     2.009328086672     8.451703426670
H                    -2.970916829887     3.930681726803     8.912421828279
H                    -1.589614912728     2.930716893517     8.257510053855
H                    -4.164664743730     3.766989779154     6.736148597679
H                     3.487385389459     2.456650314275     2.405042873024
H                     4.103120248772     2.459073961775     4.076114224295
H                     4.912755068013     1.491082528860     2.837913498550
H                     3.038366217543    -1.077309369106     4.874041971436
H                     3.759191781443     0.386457206767     5.558436584272
H                     4.645471548356    -0.559417751471     4.345136445637
H                     2.251658503673    -1.104900483658     2.440233993634
H                     2.357582747035     0.364625847480     1.458178342818
H                     3.832426398955    -0.536399177820     1.878196714426
H                     1.879295894869     2.074386736359     4.497016983316
H                    -0.316564422718    -0.004729621864     2.193277504165
