
  -OEChem-05262117483D

 64 67  0     1  0  0  0  0  0999 V2000
    2.8692    3.6488    4.7446 C   0  0  0  0  0  0  0  0  0  0  0  0
    1.4824    3.7942    4.6669 C   0  0  0  0  0  0  0  0  0  0  0  0
    0.4532    0.0189   -0.1674 C   0  0  0  0  0  0  0  0  0  0  0  0
    3.6334    3.2915    3.6350 C   0  0  0  0  0  0  0  0  0  0  0  0
   -0.6845    0.4782    0.5090 C   0  0  0  0  0  0  0  0  0  0  0  0
    1.6268    3.2476    2.2901 C   0  0  0  0  0  0  0  0  0  0  0  0
   -1.6693    1.2221   -1.5895 C   0  0  0  0  0  0  0  0  0  0  0  0
    0.8714    3.5846    3.4184 C   0  0  0  0  0  0  0  0  0  0  0  0
    0.5363    0.1868   -1.5524 C   0  0  0  0  0  0  0  0  0  0  0  0
   -0.5334    0.7602   -2.2550 C   0  0  0  0  0  0  0  0  0  0  0  0
    3.0311    3.0702    2.3650 C   0  0  0  0  0  0  0  0  0  0  0  0
   -1.7279    1.0901   -0.1943 C   0  0  0  0  0  0  0  0  0  0  0  0
   -2.6108    3.5947    2.5532 C   0  0  0  0  0  0  0  0  0  0  0  0
   -2.6692    3.5439    3.9147 C   0  0  0  0  0  0  0  0  0  0  0  0
   -0.5802    3.6484    3.2635 C   0  0  0  0  0  0  0  0  0  0  0  0
    3.6083   -0.9058   -1.0448 C   0  0  0  0  0  0  0  0  0  0  0  0
   -0.2269    0.7829   -3.7407 C   0  0  0  0  0  0  0  0  0  0  0  0
    0.9322   -0.2370   -3.8566 C   0  0  0  0  0  0  0  0  0  0  0  0
    1.6773   -0.1378   -2.5031 C   0  0  2  0  0  0  0  0  0  0  0  0
   -3.7611    3.4362    4.9191 C   0  0  0  0  0  0  0  0  0  0  0  0
    5.2813    0.8365    1.9917 C   0  0  0  0  0  0  0  0  0  0  0  0
    2.8023    3.5846   -0.8705 C   0  0  0  0  0  0  0  0  0  0  0  0
   -3.7176    3.5329    1.5394 C   0  0  0  0  0  0  0  0  0  0  0  0
    2.5722   -1.3262   -2.1302 C   0  0  0  0  0  0  0  0  0  0  0  0
    5.1504    2.2432    1.3937 C   0  0  0  0  0  0  0  0  0  0  0  0
    3.0912    2.3586    0.0024 C   0  0  0  0  0  0  0  0  0  0  0  0
   -3.2587    2.8678    0.2417 C   0  0  0  0  0  0  0  0  0  0  0  0
   -1.2771    3.6751    2.1605 N   0  0  0  0  0  0  0  0  0  0  0  0
    3.7630    2.6979    1.2619 N   0  0  0  0  0  0  0  0  0  0  0  0
    4.5226   -0.1282   -1.4531 O   0  5  0  0  0  0  0  0  0  0  0  0
    3.4131   -1.3217    0.1330 O   0  0  0  0  0  0  0  0  0  0  0  0
   -1.3688    3.5857    4.3874 O   0  0  0  0  0  0  0  0  0  0  0  0
   -2.8221    1.5382    0.5340 O   0  0  0  0  0  0  0  0  0  0  0  0
    3.3725    3.8008    5.6975 H   0  0  0  0  0  0  0  0  0  0  0  0
    0.8895    4.0485    5.5393 H   0  0  0  0  0  0  0  0  0  0  0  0
    1.2777   -0.4477    0.3685 H   0  0  0  0  0  0  0  0  0  0  0  0
    4.7014    3.1589    3.7599 H   0  0  0  0  0  0  0  0  0  0  0  0
   -0.7646    0.3985    1.5895 H   0  0  0  0  0  0  0  0  0  0  0  0
    1.0924    3.0801    1.3654 H   0  0  0  0  0  0  0  0  0  0  0  0
   -2.4991    1.6676   -2.1344 H   0  0  0  0  0  0  0  0  0  0  0  0
   -1.0945    0.5334   -4.3632 H   0  0  0  0  0  0  0  0  0  0  0  0
    0.1120    1.7847   -4.0437 H   0  0  0  0  0  0  0  0  0  0  0  0
    0.5195   -1.2487   -3.9659 H   0  0  0  0  0  0  0  0  0  0  0  0
    1.5920   -0.0474   -4.7102 H   0  0  0  0  0  0  0  0  0  0  0  0
    2.3387    0.7404   -2.5532 H   0  0  0  0  0  0  0  0  0  0  0  0
   -3.6286    2.5557    5.5588 H   0  0  0  0  0  0  0  0  0  0  0  0
   -3.8041    4.3178    5.5705 H   0  0  0  0  0  0  0  0  0  0  0  0
   -4.7232    3.3457    4.4081 H   0  0  0  0  0  0  0  0  0  0  0  0
    4.8598    0.7972    3.0025 H   0  0  0  0  0  0  0  0  0  0  0  0
    4.7645    0.1023    1.3631 H   0  0  0  0  0  0  0  0  0  0  0  0
    6.3415    0.5572    2.0514 H   0  0  0  0  0  0  0  0  0  0  0  0
    2.1763    4.3187   -0.3517 H   0  0  0  0  0  0  0  0  0  0  0  0
    3.7353    4.0798   -1.1631 H   0  0  0  0  0  0  0  0  0  0  0  0
    2.2784    3.2738   -1.7821 H   0  0  0  0  0  0  0  0  0  0  0  0
   -4.5704    2.9845    1.9543 H   0  0  0  0  0  0  0  0  0  0  0  0
   -4.0761    4.5413    1.2882 H   0  0  0  0  0  0  0  0  0  0  0  0
    3.1248   -1.6367   -3.0257 H   0  0  0  0  0  0  0  0  0  0  0  0
    1.9594   -2.1662   -1.7837 H   0  0  0  0  0  0  0  0  0  0  0  0
    5.5786    2.2409    0.3884 H   0  0  0  0  0  0  0  0  0  0  0  0
    5.7207    2.9803    1.9732 H   0  0  0  0  0  0  0  0  0  0  0  0
    3.7263    1.6533   -0.5373 H   0  0  0  0  0  0  0  0  0  0  0  0
    2.1667    1.8171    0.2081 H   0  0  0  0  0  0  0  0  0  0  0  0
   -4.0895    2.8457   -0.4783 H   0  0  0  0  0  0  0  0  0  0  0  0
   -2.4337    3.4396   -0.1922 H   0  0  0  0  0  0  0  0  0  0  0  0
  1  2  1  0  0  0  0
  1  4  2  0  0  0  0
  1 34  1  0  0  0  0
  2  8  2  0  0  0  0
  2 35  1  0  0  0  0
  3  5  2  0  0  0  0
  3  9  1  0  0  0  0
  3 36  1  0  0  0  0
  4 11  1  0  0  0  0
  4 37  1  0  0  0  0
  5 12  1  0  0  0  0
  5 38  1  0  0  0  0
  6  8  1  0  0  0  0
  6 11  2  0  0  0  0
  6 39  1  0  0  0  0
  7 10  1  0  0  0  0
  7 12  2  0  0  0  0
  7 40  1  0  0  0  0
  8 15  1  0  0  0  0
  9 10  2  0  0  0  0
  9 19  1  0  0  0  0
 10 17  1  0  0  0  0
 11 29  1  0  0  0  0
 12 33  1  0  0  0  0
 13 14  2  0  0  0  0
 13 23  1  0  0  0  0
 13 28  1  0  0  0  0
 14 20  1  0  0  0  0
 14 32  1  0  0  0  0
 15 28  2  0  0  0  0
 15 32  1  0  0  0  0
 16 24  1  0  0  0  0
 16 30  1  0  0  0  0
 16 31  2  0  0  0  0
 17 18  1  0  0  0  0
 17 41  1  0  0  0  0
 17 42  1  0  0  0  0
 18 19  1  0  0  0  0
 18 43  1  0  0  0  0
 18 44  1  0  0  0  0
 19 24  1  0  0  0  0
 19 45  1  0  0  0  0
 20 46  1  0  0  0  0
 20 47  1  0  0  0  0
 20 48  1  0  0  0  0
 21 25  1  0  0  0  0
 21 49  1  0  0  0  0
 21 50  1  0  0  0  0
 21 51  1  0  0  0  0
 22 26  1  0  0  0  0
 22 52  1  0  0  0  0
 22 53  1  0  0  0  0
 22 54  1  0  0  0  0
 23 27  1  0  0  0  0
 23 55  1  0  0  0  0
 23 56  1  0  0  0  0
 24 57  1  0  0  0  0
 24 58  1  0  0  0  0
 25 29  1  0  0  0  0
 25 59  1  0  0  0  0
 25 60  1  0  0  0  0
 26 29  1  0  0  0  0
 26 61  1  0  0  0  0
 26 62  1  0  0  0  0
 27 33  1  0  0  0  0
 27 63  1  0  0  0  0
 27 64  1  0  0  0  0
M  CHG  1  30  -1
M  END
$$$$
