
  -OEChem-05262117483D

 61 64  0     1  0  0  0  0  0999 V2000
    1.2818    5.0016    2.8861 C   0  0  0  0  0  0  0  0  0  0  0  0
    0.1815    0.5432   -1.4564 C   0  0  0  0  0  0  0  0  0  0  0  0
    2.6382    5.2225    2.6446 C   0  0  0  0  0  0  0  0  0  0  0  0
   -0.8392    0.7693   -0.5240 C   0  0  0  0  0  0  0  0  0  0  0  0
    1.0948    4.0670    0.6524 C   0  0  0  0  0  0  0  0  0  0  0  0
   -2.4300    1.1813   -2.3197 C   0  0  0  0  0  0  0  0  0  0  0  0
    0.5014    4.4296    1.8712 C   0  0  0  0  0  0  0  0  0  0  0  0
   -0.1025    0.6603   -2.8202 C   0  0  0  0  0  0  0  0  0  0  0  0
   -1.4070    0.9548   -3.2412 C   0  0  0  0  0  0  0  0  0  0  0  0
    3.2516    4.8670    1.4375 C   0  0  0  0  0  0  0  0  0  0  0  0
    2.4696    4.2456    0.4230 C   0  0  0  0  0  0  0  0  0  0  0  0
   -2.1296    1.1004   -0.9523 C   0  0  0  0  0  0  0  0  0  0  0  0
   -2.9723    3.5384    1.8843 C   0  0  0  0  0  0  0  0  0  0  0  0
   -2.7227    3.6802    3.2175 C   0  0  0  0  0  0  0  0  0  0  0  0
   -0.9149    4.1395    2.0691 C   0  0  0  0  0  0  0  0  0  0  0  0
    3.1384    0.1949   -3.0057 C   0  0  0  0  0  0  0  0  0  0  0  0
   -1.4703    0.9866   -4.7565 C   0  0  0  0  0  0  0  0  0  0  0  0
   -0.1740    0.2424   -5.1594 C   0  0  0  0  0  0  0  0  0  0  0  0
    0.8271    0.5431   -4.0166 C   0  0  2  0  0  0  0  0  0  0  0  0
    4.7078    5.1945    1.2155 C   0  0  0  0  0  0  0  0  0  0  0  0
   -3.5153    3.4922    4.4621 C   0  0  0  0  0  0  0  0  0  0  0  0
    2.1816    3.6604   -1.9285 C   0  0  0  0  0  0  0  0  0  0  0  0
    4.0006    2.6916   -0.6501 C   0  0  0  0  0  0  0  0  0  0  0  0
   -4.2266    3.0959    1.1840 C   0  0  0  0  0  0  0  0  0  0  0  0
    2.0020   -0.4293   -3.8743 C   0  0  0  0  0  0  0  0  0  0  0  0
   -3.9260    2.4659   -0.1750 C   0  0  0  0  0  0  0  0  0  0  0  0
   -1.8160    3.8480    1.1721 N   0  0  0  0  0  0  0  0  0  0  0  0
    3.0794    3.8438   -0.7846 N   0  0  0  0  0  0  0  0  0  0  0  0
    3.7195    1.1912   -3.5312 O   0  5  0  0  0  0  0  0  0  0  0  0
    3.3396   -0.3197   -1.8689 O   0  0  0  0  0  0  0  0  0  0  0  0
   -1.4024    4.0744    3.3533 O   0  0  0  0  0  0  0  0  0  0  0  0
   -3.0936    1.3220    0.0219 O   0  0  0  0  0  0  0  0  0  0  0  0
    0.8322    5.2801    3.8343 H   0  0  0  0  0  0  0  0  0  0  0  0
    1.1890    0.2860   -1.1357 H   0  0  0  0  0  0  0  0  0  0  0  0
    3.2422    5.7041    3.4122 H   0  0  0  0  0  0  0  0  0  0  0  0
   -0.6454    0.7184    0.5439 H   0  0  0  0  0  0  0  0  0  0  0  0
    0.4723    3.5913   -0.0955 H   0  0  0  0  0  0  0  0  0  0  0  0
   -3.4423    1.4064   -2.6489 H   0  0  0  0  0  0  0  0  0  0  0  0
   -2.3820    0.5292   -5.1595 H   0  0  0  0  0  0  0  0  0  0  0  0
   -1.4439    2.0263   -5.1149 H   0  0  0  0  0  0  0  0  0  0  0  0
   -0.3682   -0.8380   -5.1897 H   0  0  0  0  0  0  0  0  0  0  0  0
    0.2102    0.5431   -6.1402 H   0  0  0  0  0  0  0  0  0  0  0  0
    1.2700    1.5330   -4.2030 H   0  0  0  0  0  0  0  0  0  0  0  0
    5.3669    4.3779    1.5343 H   0  0  0  0  0  0  0  0  0  0  0  0
    4.9000    5.3688    0.1530 H   0  0  0  0  0  0  0  0  0  0  0  0
    4.9920    6.0860    1.7849 H   0  0  0  0  0  0  0  0  0  0  0  0
   -3.0379    2.7693    5.1341 H   0  0  0  0  0  0  0  0  0  0  0  0
   -3.6351    4.4321    5.0150 H   0  0  0  0  0  0  0  0  0  0  0  0
   -4.5113    3.1186    4.2102 H   0  0  0  0  0  0  0  0  0  0  0  0
    2.7873    3.4541   -2.8125 H   0  0  0  0  0  0  0  0  0  0  0  0
    1.5909    4.5706   -2.0810 H   0  0  0  0  0  0  0  0  0  0  0  0
    1.4971    2.8093   -1.8144 H   0  0  0  0  0  0  0  0  0  0  0  0
    4.4102    2.4424   -1.6307 H   0  0  0  0  0  0  0  0  0  0  0  0
    3.4779    1.7906   -0.3041 H   0  0  0  0  0  0  0  0  0  0  0  0
    4.8105    2.9244    0.0447 H   0  0  0  0  0  0  0  0  0  0  0  0
   -4.7682    2.3787    1.8108 H   0  0  0  0  0  0  0  0  0  0  0  0
   -4.9017    3.9469    1.0157 H   0  0  0  0  0  0  0  0  0  0  0  0
    2.4098   -0.6259   -4.8743 H   0  0  0  0  0  0  0  0  0  0  0  0
    1.6589   -1.3766   -3.4426 H   0  0  0  0  0  0  0  0  0  0  0  0
   -4.8663    2.1733   -0.6642 H   0  0  0  0  0  0  0  0  0  0  0  0
   -3.4117    3.1919   -0.8110 H   0  0  0  0  0  0  0  0  0  0  0  0
  1  3  1  0  0  0  0
  1  7  2  0  0  0  0
  1 33  1  0  0  0  0
  2  4  2  0  0  0  0
  2  8  1  0  0  0  0
  2 34  1  0  0  0  0
  3 10  2  0  0  0  0
  3 35  1  0  0  0  0
  4 12  1  0  0  0  0
  4 36  1  0  0  0  0
  5  7  1  0  0  0  0
  5 11  2  0  0  0  0
  5 37  1  0  0  0  0
  6  9  1  0  0  0  0
  6 12  2  0  0  0  0
  6 38  1  0  0  0  0
  7 15  1  0  0  0  0
  8  9  2  0  0  0  0
  8 19  1  0  0  0  0
  9 17  1  0  0  0  0
 10 11  1  0  0  0  0
 10 20  1  0  0  0  0
 11 28  1  0  0  0  0
 12 32  1  0  0  0  0
 13 14  2  0  0  0  0
 13 24  1  0  0  0  0
 13 27  1  0  0  0  0
 14 21  1  0  0  0  0
 14 31  1  0  0  0  0
 15 27  2  0  0  0  0
 15 31  1  0  0  0  0
 16 25  1  0  0  0  0
 16 29  1  0  0  0  0
 16 30  2  0  0  0  0
 17 18  1  0  0  0  0
 17 39  1  0  0  0  0
 17 40  1  0  0  0  0
 18 19  1  0  0  0  0
 18 41  1  0  0  0  0
 18 42  1  0  0  0  0
 19 25  1  0  0  0  0
 19 43  1  0  0  0  0
 20 44  1  0  0  0  0
 20 45  1  0  0  0  0
 20 46  1  0  0  0  0
 21 47  1  0  0  0  0
 21 48  1  0  0  0  0
 21 49  1  0  0  0  0
 22 28  1  0  0  0  0
 22 50  1  0  0  0  0
 22 51  1  0  0  0  0
 22 52  1  0  0  0  0
 23 28  1  0  0  0  0
 23 53  1  0  0  0  0
 23 54  1  0  0  0  0
 23 55  1  0  0  0  0
 24 26  1  0  0  0  0
 24 56  1  0  0  0  0
 24 57  1  0  0  0  0
 25 58  1  0  0  0  0
 25 59  1  0  0  0  0
 26 32  1  0  0  0  0
 26 60  1  0  0  0  0
 26 61  1  0  0  0  0
M  CHG  1  29  -1
M  END
$$$$
