
  -OEChem-05262117483D

 39 40  0     0  0  0  0  0  0999 V2000
   -2.6254    2.3393    3.2163 C   0  0  0  0  0  0  0  0  0  0  0  0
   -3.1484    2.9585    4.3488 C   0  0  0  0  0  0  0  0  0  0  0  0
   -1.2285    2.2684    5.6050 C   0  0  0  0  0  0  0  0  0  0  0  0
   -1.3817    1.6906    3.2299 C   0  0  0  0  0  0  0  0  0  0  0  0
   -2.4617    2.9348    5.5700 C   0  0  0  0  0  0  0  0  0  0  0  0
   -0.6923    1.6786    4.4613 C   0  0  0  0  0  0  0  0  0  0  0  0
   -0.9851    1.0875    1.8931 C   0  0  0  0  0  0  0  0  0  0  0  0
   -2.8596    2.9842    8.1591 C   0  0  0  0  0  0  0  0  0  0  0  0
   -2.1523    4.2631    7.8073 C   0  0  0  0  0  0  0  0  0  0  0  0
   -3.0416    3.5867    6.7724 C   0  0  0  0  0  0  0  0  0  0  0  0
    3.3237    3.2848    2.6860 C   0  0  0  0  0  0  0  0  0  0  0  0
    1.7308    3.9040    4.5258 C   0  0  0  0  0  0  0  0  0  0  0  0
    3.7895    2.5302    5.0488 C   0  0  0  0  0  0  0  0  0  0  0  0
    2.6950    2.8283    4.0126 C   0  0  0  0  0  0  0  0  0  0  0  0
    1.9325    1.5810    3.6529 N   0  0  0  0  0  0  0  0  0  0  0  0
   -1.8331    0.6159    1.1637 O   0  0  0  0  0  0  0  0  0  0  0  0
    1.2508    1.0217    6.1347 O   0  0  0  0  0  0  0  0  0  0  0  0
    0.7607   -0.5609    4.1996 O   0  0  0  0  0  0  0  0  0  0  0  0
    0.2926    1.1842    1.4938 O   0  0  0  0  0  0  0  0  0  0  0  0
    0.8591    0.7941    4.7407 S   0  0  0  0  0  0  0  0  0  0  0  0
   -3.1827    2.3387    2.2855 H   0  0  0  0  0  0  0  0  0  0  0  0
   -4.1117    3.4585    4.2840 H   0  0  0  0  0  0  0  0  0  0  0  0
   -0.6644    2.1949    6.5281 H   0  0  0  0  0  0  0  0  0  0  0  0
   -2.2730    2.0733    8.2306 H   0  0  0  0  0  0  0  0  0  0  0  0
   -3.7077    3.0288    8.8354 H   0  0  0  0  0  0  0  0  0  0  0  0
   -2.5106    5.1918    8.2410 H   0  0  0  0  0  0  0  0  0  0  0  0
   -1.0799    4.2282    7.6391 H   0  0  0  0  0  0  0  0  0  0  0  0
   -3.9994    4.0666    6.5930 H   0  0  0  0  0  0  0  0  0  0  0  0
    3.9742    2.5092    2.2667 H   0  0  0  0  0  0  0  0  0  0  0  0
    2.5541    3.5236    1.9460 H   0  0  0  0  0  0  0  0  0  0  0  0
    3.9343    4.1773    2.8522 H   0  0  0  0  0  0  0  0  0  0  0  0
    1.3211    3.6470    5.5046 H   0  0  0  0  0  0  0  0  0  0  0  0
    0.9026    4.0631    3.8294 H   0  0  0  0  0  0  0  0  0  0  0  0
    2.2750    4.8469    4.6299 H   0  0  0  0  0  0  0  0  0  0  0  0
    3.3585    2.1729    5.9854 H   0  0  0  0  0  0  0  0  0  0  0  0
    4.4824    1.7684    4.6735 H   0  0  0  0  0  0  0  0  0  0  0  0
    4.3684    3.4373    5.2503 H   0  0  0  0  0  0  0  0  0  0  0  0
    2.5715    0.8399    3.3492 H   0  0  0  0  0  0  0  0  0  0  0  0
    0.8824    1.5260    2.2156 H   0  0  0  0  0  0  0  0  0  0  0  0
  1  2  1  0  0  0  0
  1  4  2  0  0  0  0
  1 21  1  0  0  0  0
  2  5  2  0  0  0  0
  2 22  1  0  0  0  0
  3  5  1  0  0  0  0
  3  6  2  0  0  0  0
  3 23  1  0  0  0  0
  4  6  1  0  0  0  0
  4  7  1  0  0  0  0
  5 10  1  0  0  0  0
  6 20  1  0  0  0  0
  7 16  2  0  0  0  0
  7 19  1  0  0  0  0
  8  9  1  0  0  0  0
  8 10  1  0  0  0  0
  8 24  1  0  0  0  0
  8 25  1  0  0  0  0
  9 10  1  0  0  0  0
  9 26  1  0  0  0  0
  9 27  1  0  0  0  0
 10 28  1  0  0  0  0
 11 14  1  0  0  0  0
 11 29  1  0  0  0  0
 11 30  1  0  0  0  0
 11 31  1  0  0  0  0
 12 14  1  0  0  0  0
 12 32  1  0  0  0  0
 12 33  1  0  0  0  0
 12 34  1  0  0  0  0
 13 14  1  0  0  0  0
 13 35  1  0  0  0  0
 13 36  1  0  0  0  0
 13 37  1  0  0  0  0
 14 15  1  0  0  0  0
 15 20  1  0  0  0  0
 15 38  1  0  0  0  0
 17 20  2  0  0  0  0
 18 20  2  0  0  0  0
 19 39  1  0  0  0  0
M  END
$$$$
