
  -OEChem-05262117483D

 64 67  0     1  0  0  0  0  0999 V2000
    2.4443    5.3048    0.5257 C   0  0  0  0  0  0  0  0  0  0  0  0
    1.1194    5.0434    0.8831 C   0  0  0  0  0  0  0  0  0  0  0  0
    1.8537   -1.0650    3.5739 C   0  0  0  0  0  0  0  0  0  0  0  0
    3.5101    4.5912    1.0735 C   0  0  0  0  0  0  0  0  0  0  0  0
    0.6475   -0.3567    3.6482 C   0  0  0  0  0  0  0  0  0  0  0  0
    1.9451    3.3153    2.3983 C   0  0  0  0  0  0  0  0  0  0  0  0
    0.3175   -1.1330    5.9289 C   0  0  0  0  0  0  0  0  0  0  0  0
    0.8858    4.0266    1.8252 C   0  0  0  0  0  0  0  0  0  0  0  0
    2.3166   -1.7705    4.6877 C   0  0  0  0  0  0  0  0  0  0  0  0
    1.5331   -1.8152    5.8495 C   0  0  0  0  0  0  0  0  0  0  0  0
    3.2917    3.5700    2.0401 C   0  0  0  0  0  0  0  0  0  0  0  0
   -0.1147   -0.3874    4.8254 C   0  0  0  0  0  0  0  0  0  0  0  0
   -2.1971    2.6692    3.0561 C   0  0  0  0  0  0  0  0  0  0  0  0
   -2.6538    3.6841    2.2638 C   0  0  0  0  0  0  0  0  0  0  0  0
   -0.4648    3.6413    2.2262 C   0  0  0  0  0  0  0  0  0  0  0  0
    5.0577   -1.6384    2.8509 C   0  0  0  0  0  0  0  0  0  0  0  0
    2.1686   -2.7235    6.8815 C   0  0  0  0  0  0  0  0  0  0  0  0
    3.6269   -2.8541    6.3798 C   0  0  0  0  0  0  0  0  0  0  0  0
    3.6057   -2.5605    4.8505 C   0  0  2  0  0  0  0  0  0  0  0  0
   -3.9947    4.2073    1.8870 C   0  0  0  0  0  0  0  0  0  0  0  0
    5.9807    2.1516    0.8767 C   0  0  0  0  0  0  0  0  0  0  0  0
    3.7979    2.0473    4.9289 C   0  0  0  0  0  0  0  0  0  0  0  0
   -2.9662    1.6533    3.8529 C   0  0  0  0  0  0  0  0  0  0  0  0
    4.8812   -1.8450    4.3863 C   0  0  0  0  0  0  0  0  0  0  0  0
    5.6946    2.9804    2.1368 C   0  0  0  0  0  0  0  0  0  0  0  0
    4.0349    1.6900    3.4584 C   0  0  0  0  0  0  0  0  0  0  0  0
   -2.2631    0.2951    3.9509 C   0  0  0  0  0  0  0  0  0  0  0  0
   -0.8070    2.6621    3.0173 N   0  0  0  0  0  0  0  0  0  0  0  0
    4.3184    2.8583    2.6145 N   0  0  0  0  0  0  0  0  0  0  0  0
    4.3717   -2.3732    2.0914 O   0  5  0  0  0  0  0  0  0  0  0  0
    5.9026   -0.7457    2.5337 O   0  0  0  0  0  0  0  0  0  0  0  0
   -1.5471    4.3226    1.7264 O   0  0  0  0  0  0  0  0  0  0  0  0
   -1.2821    0.3491    4.9860 O   0  0  0  0  0  0  0  0  0  0  0  0
    2.6583    6.0751   -0.2127 H   0  0  0  0  0  0  0  0  0  0  0  0
    0.2943    5.5907    0.4396 H   0  0  0  0  0  0  0  0  0  0  0  0
    2.4417   -1.0718    2.6611 H   0  0  0  0  0  0  0  0  0  0  0  0
    4.5144    4.8170    0.7350 H   0  0  0  0  0  0  0  0  0  0  0  0
    0.3221    0.2523    2.8116 H   0  0  0  0  0  0  0  0  0  0  0  0
    1.6968    2.5526    3.1228 H   0  0  0  0  0  0  0  0  0  0  0  0
   -0.2990   -1.1548    6.8250 H   0  0  0  0  0  0  0  0  0  0  0  0
    2.0992   -2.3323    7.9038 H   0  0  0  0  0  0  0  0  0  0  0  0
    1.6611   -3.6990    6.8779 H   0  0  0  0  0  0  0  0  0  0  0  0
    4.2425   -2.0915    6.8724 H   0  0  0  0  0  0  0  0  0  0  0  0
    4.0714   -3.8281    6.6112 H   0  0  0  0  0  0  0  0  0  0  0  0
    3.5221   -3.4904    4.2746 H   0  0  0  0  0  0  0  0  0  0  0  0
   -4.1426    5.2351    2.2405 H   0  0  0  0  0  0  0  0  0  0  0  0
   -4.1350    4.2068    0.7995 H   0  0  0  0  0  0  0  0  0  0  0  0
   -4.7728    3.5823    2.3330 H   0  0  0  0  0  0  0  0  0  0  0  0
    5.8529    1.0850    1.0919 H   0  0  0  0  0  0  0  0  0  0  0  0
    5.3102    2.4417    0.0600 H   0  0  0  0  0  0  0  0  0  0  0  0
    7.0151    2.3144    0.5466 H   0  0  0  0  0  0  0  0  0  0  0  0
    4.7009    2.4836    5.3723 H   0  0  0  0  0  0  0  0  0  0  0  0
    2.9804    2.7659    5.0485 H   0  0  0  0  0  0  0  0  0  0  0  0
    3.5378    1.1432    5.4895 H   0  0  0  0  0  0  0  0  0  0  0  0
   -3.1347    2.0115    4.8762 H   0  0  0  0  0  0  0  0  0  0  0  0
   -3.9547    1.5107    3.4002 H   0  0  0  0  0  0  0  0  0  0  0  0
    5.7503   -2.4285    4.7236 H   0  0  0  0  0  0  0  0  0  0  0  0
    4.9632   -0.8730    4.8875 H   0  0  0  0  0  0  0  0  0  0  0  0
    5.9319    4.0390    1.9818 H   0  0  0  0  0  0  0  0  0  0  0  0
    6.3457    2.6368    2.9461 H   0  0  0  0  0  0  0  0  0  0  0  0
    3.1739    1.1505    3.0612 H   0  0  0  0  0  0  0  0  0  0  0  0
    4.8712    0.9946    3.3591 H   0  0  0  0  0  0  0  0  0  0  0  0
   -2.9978   -0.4816    4.2123 H   0  0  0  0  0  0  0  0  0  0  0  0
   -1.8147    0.0259    2.9915 H   0  0  0  0  0  0  0  0  0  0  0  0
  1  2  1  0  0  0  0
  1  4  2  0  0  0  0
  1 34  1  0  0  0  0
  2  8  2  0  0  0  0
  2 35  1  0  0  0  0
  3  5  2  0  0  0  0
  3  9  1  0  0  0  0
  3 36  1  0  0  0  0
  4 11  1  0  0  0  0
  4 37  1  0  0  0  0
  5 12  1  0  0  0  0
  5 38  1  0  0  0  0
  6  8  1  0  0  0  0
  6 11  2  0  0  0  0
  6 39  1  0  0  0  0
  7 10  1  0  0  0  0
  7 12  2  0  0  0  0
  7 40  1  0  0  0  0
  8 15  1  0  0  0  0
  9 10  2  0  0  0  0
  9 19  1  0  0  0  0
 10 17  1  0  0  0  0
 11 29  1  0  0  0  0
 12 33  1  0  0  0  0
 13 14  2  0  0  0  0
 13 23  1  0  0  0  0
 13 28  1  0  0  0  0
 14 20  1  0  0  0  0
 14 32  1  0  0  0  0
 15 28  2  0  0  0  0
 15 32  1  0  0  0  0
 16 24  1  0  0  0  0
 16 30  1  0  0  0  0
 16 31  2  0  0  0  0
 17 18  1  0  0  0  0
 17 41  1  0  0  0  0
 17 42  1  0  0  0  0
 18 19  1  0  0  0  0
 18 43  1  0  0  0  0
 18 44  1  0  0  0  0
 19 24  1  0  0  0  0
 19 45  1  0  0  0  0
 20 46  1  0  0  0  0
 20 47  1  0  0  0  0
 20 48  1  0  0  0  0
 21 25  1  0  0  0  0
 21 49  1  0  0  0  0
 21 50  1  0  0  0  0
 21 51  1  0  0  0  0
 22 26  1  0  0  0  0
 22 52  1  0  0  0  0
 22 53  1  0  0  0  0
 22 54  1  0  0  0  0
 23 27  1  0  0  0  0
 23 55  1  0  0  0  0
 23 56  1  0  0  0  0
 24 57  1  0  0  0  0
 24 58  1  0  0  0  0
 25 29  1  0  0  0  0
 25 59  1  0  0  0  0
 25 60  1  0  0  0  0
 26 29  1  0  0  0  0
 26 61  1  0  0  0  0
 26 62  1  0  0  0  0
 27 33  1  0  0  0  0
 27 63  1  0  0  0  0
 27 64  1  0  0  0  0
M  CHG  1  30  -1
M  END
$$$$
