65
0 1 C27H32N2O4
C                     2.031248009057     5.513115773576     3.501283657386
C                     0.736578201068     4.993637624454     3.479745853864
C                     0.471688467441     0.392917767288    -2.589213232587
C                     3.107757950151     4.815725864929     2.954566894527
C                    -0.084819036918     0.217393306081    -1.322703621613
C                     1.608642913408     3.028432952745     2.328109497314
C                    -2.321118008006     0.525281916055    -2.239790445282
C                     0.537191128558     3.736654309253     2.887770352795
C                    -0.361932224350     0.630936765882    -3.685774687754
C                    -1.746950870566     0.696415635192    -3.501756874106
C                     2.920334224973     3.548212822837     2.345814417381
C                    -1.477539016043     0.282445997232    -1.144667711823
C                    -2.500484592102     1.875174784463     2.471952230045
C                    -2.968653062698     3.046768392751     2.998441871373
C                    -0.791037817524     3.133260333460     2.812050533890
C                     1.535304312574     0.313534248174    -7.093643364195
C                    -2.439226514309     0.999938750141    -4.814024110396
C                    -1.354821206898     0.670461609718    -5.866358929294
C                    -0.001294896635     0.883315824189    -5.139707251307
C                    -4.307624856500     3.589052227532     3.354789609242
C                     6.184231668580     3.230549362554     2.911176178330
C                     3.329577606636     1.465156544486    -0.200894888887
C                    -3.270151545639     0.676044540417     2.007261173405
C                     1.128126912826    -0.005307504545    -5.661123554297
C                     5.306765676201     3.433544677501     1.667858573547
C                     3.805023057644     1.498555929269     1.258770955195
C                    -3.233032341403     0.495227735592     0.487095202633
N                    -1.112125070235     1.950019921065     2.367386855551
N                     3.978530813918     2.845937089798     1.788571795916
O                     1.197382414053     1.294830026974    -7.712571829142
O                    -1.876374228113     3.863587877440     3.223701280271
O                     2.372171813476    -0.600617266550    -7.675996058151
O                    -1.915101332011     0.082207034081     0.134355373818
H                     2.214664539808     6.481367503470     3.960717899366
H                    -0.096185938032     5.540677217162     3.907921095291
H                     1.553156047567     0.352517828391    -2.702576188792
H                     4.094809959896     5.258338843991     3.015807737018
H                     0.532888901960     0.039995240041    -0.448122317087
H                     1.381455055752     2.077706661884     1.864298568210
H                    -3.399411498554     0.564898339298    -2.119064760789
H                    -3.360279129581     0.425901747961    -4.958945470328
H                    -2.712935562955     2.062769619093    -4.855414415026
H                    -1.442029203750    -0.385863692192    -6.150956312351
H                    -1.433311533090     1.267147587019    -6.776676475750
H                     0.311665210141     1.927967206950    -5.265910205686
H                    -4.362385124989     3.846876588129     4.418418043502
H                    -4.538080917901     4.493562974869     2.780418346985
H                    -5.080349935721     2.846086074350     3.144377034297
H                     5.722360226872     3.677019043337     3.796343387200
H                     6.327151405129     2.163571876856     3.112193788703
H                     7.170720554396     3.686335827268     2.768031176334
H                     2.362750506462     1.961538928876    -0.315810990789
H                     4.048483627831     1.972636256535    -0.853213647353
H                     3.227468053617     0.429593785609    -0.546168175428
H                    -2.869593454282    -0.230781182588     2.472951126115
H                    -4.316851548011     0.766892017037     2.315932351806
H                     2.026168601057     0.112777506290    -5.039868725788
H                     0.836852985571    -1.061305494474    -5.583381664602
H                     5.794960948295     2.978781361048     0.799248451748
H                     5.218140077103     4.498664899360     1.431707030745
H                     4.768264828755     0.983619972735     1.341073098297
H                     3.114525279992     0.939405666295     1.897357252830
H                    -3.960787549670    -0.266742642338     0.173287015292
H                    -3.481426621229     1.440913931028    -0.010228138215
H                     2.541938699628    -1.331387006882    -7.057424798405
