
  -OEChem-05262117483D

 61 64  0     1  0  0  0  0  0999 V2000
    2.0335    4.5016    4.2566 C   0  0  0  0  0  0  0  0  0  0  0  0
    1.3752   -1.1492    3.7813 C   0  0  0  0  0  0  0  0  0  0  0  0
    3.3727    4.8566    4.4145 C   0  0  0  0  0  0  0  0  0  0  0  0
    0.1581   -1.2061    3.0911 C   0  0  0  0  0  0  0  0  0  0  0  0
    2.7377    2.7502    2.7304 C   0  0  0  0  0  0  0  0  0  0  0  0
   -0.8813    0.2410    4.7431 C   0  0  0  0  0  0  0  0  0  0  0  0
    1.7154    3.4582    3.3751 C   0  0  0  0  0  0  0  0  0  0  0  0
    1.4684   -0.3718    4.9368 C   0  0  0  0  0  0  0  0  0  0  0  0
    0.3395    0.3114    5.4125 C   0  0  0  0  0  0  0  0  0  0  0  0
    4.4091    4.2006    3.7426 C   0  0  0  0  0  0  0  0  0  0  0  0
    4.0947    3.0815    2.9161 C   0  0  0  0  0  0  0  0  0  0  0  0
   -0.9541   -0.4980    3.5590 C   0  0  0  0  0  0  0  0  0  0  0  0
   -1.5535    2.3666    2.3682 C   0  0  0  0  0  0  0  0  0  0  0  0
   -1.8359    3.1152    3.4719 C   0  0  0  0  0  0  0  0  0  0  0  0
    0.3249    3.1014    3.1151 C   0  0  0  0  0  0  0  0  0  0  0  0
    4.5088   -1.2748    4.4036 C   0  0  0  0  0  0  0  0  0  0  0  0
    0.6845    1.0859    6.6682 C   0  0  0  0  0  0  0  0  0  0  0  0
    2.2318    1.1319    6.6240 C   0  0  0  0  0  0  0  0  0  0  0  0
    2.6708   -0.1292    5.8317 C   0  0  2  0  0  0  0  0  0  0  0  0
    5.8137    4.7517    3.8426 C   0  0  0  0  0  0  0  0  0  0  0  0
   -3.0643    3.4356    4.2453 C   0  0  0  0  0  0  0  0  0  0  0  0
    4.7246    1.4559    1.1906 C   0  0  0  0  0  0  0  0  0  0  0  0
    6.2288    1.8341    3.0541 C   0  0  0  0  0  0  0  0  0  0  0  0
   -2.4721    1.5394    1.5250 C   0  0  0  0  0  0  0  0  0  0  0  0
    4.0001    0.0291    5.0934 C   0  0  0  0  0  0  0  0  0  0  0  0
   -2.1019    0.0475    1.5366 C   0  0  0  0  0  0  0  0  0  0  0  0
   -0.1756    2.3795    2.1495 N   0  0  0  0  0  0  0  0  0  0  0  0
    5.1114    2.3811    2.2569 N   0  0  0  0  0  0  0  0  0  0  0  0
    4.3361   -2.3439    5.0456 O   0  5  0  0  0  0  0  0  0  0  0  0
    5.0491   -1.1218    3.2632 O   0  0  0  0  0  0  0  0  0  0  0  0
   -0.6377    3.5974    3.9626 O   0  0  0  0  0  0  0  0  0  0  0  0
   -2.1606   -0.5159    2.8522 O   0  0  0  0  0  0  0  0  0  0  0  0
    1.2485    5.0417    4.7757 H   0  0  0  0  0  0  0  0  0  0  0  0
    2.2376   -1.7009    3.4213 H   0  0  0  0  0  0  0  0  0  0  0  0
    3.6239    5.7032    5.0518 H   0  0  0  0  0  0  0  0  0  0  0  0
    0.0728   -1.7946    2.1806 H   0  0  0  0  0  0  0  0  0  0  0  0
    2.4580    1.9053    2.1144 H   0  0  0  0  0  0  0  0  0  0  0  0
   -1.7600    0.7777    5.0895 H   0  0  0  0  0  0  0  0  0  0  0  0
    0.2258    2.0816    6.6890 H   0  0  0  0  0  0  0  0  0  0  0  0
    0.3309    0.5440    7.5577 H   0  0  0  0  0  0  0  0  0  0  0  0
    2.5457    2.0246    6.0701 H   0  0  0  0  0  0  0  0  0  0  0  0
    2.6866    1.1802    7.6198 H   0  0  0  0  0  0  0  0  0  0  0  0
    2.7753   -0.9896    6.5059 H   0  0  0  0  0  0  0  0  0  0  0  0
    6.4002    4.2882    4.6444 H   0  0  0  0  0  0  0  0  0  0  0  0
    6.3585    4.5860    2.9085 H   0  0  0  0  0  0  0  0  0  0  0  0
    5.7822    5.8279    4.0427 H   0  0  0  0  0  0  0  0  0  0  0  0
   -2.9954    3.0504    5.2700 H   0  0  0  0  0  0  0  0  0  0  0  0
   -3.2356    4.5170    4.3070 H   0  0  0  0  0  0  0  0  0  0  0  0
   -3.9335    2.9762    3.7690 H   0  0  0  0  0  0  0  0  0  0  0  0
    5.6289    1.1883    0.6337 H   0  0  0  0  0  0  0  0  0  0  0  0
    4.0330    1.9474    0.4994 H   0  0  0  0  0  0  0  0  0  0  0  0
    4.2926    0.5248    1.5816 H   0  0  0  0  0  0  0  0  0  0  0  0
    6.1234    0.7439    3.1268 H   0  0  0  0  0  0  0  0  0  0  0  0
    6.2095    2.2305    4.0678 H   0  0  0  0  0  0  0  0  0  0  0  0
    7.1916    2.0945    2.5922 H   0  0  0  0  0  0  0  0  0  0  0  0
   -3.5022    1.6564    1.8770 H   0  0  0  0  0  0  0  0  0  0  0  0
   -2.4406    1.8825    0.4814 H   0  0  0  0  0  0  0  0  0  0  0  0
    4.7682    0.3405    5.8167 H   0  0  0  0  0  0  0  0  0  0  0  0
    3.9107    0.8294    4.3556 H   0  0  0  0  0  0  0  0  0  0  0  0
   -2.8203   -0.5109    0.9260 H   0  0  0  0  0  0  0  0  0  0  0  0
   -1.1038   -0.0842    1.1090 H   0  0  0  0  0  0  0  0  0  0  0  0
  1  3  1  0  0  0  0
  1  7  2  0  0  0  0
  1 33  1  0  0  0  0
  2  4  2  0  0  0  0
  2  8  1  0  0  0  0
  2 34  1  0  0  0  0
  3 10  2  0  0  0  0
  3 35  1  0  0  0  0
  4 12  1  0  0  0  0
  4 36  1  0  0  0  0
  5  7  1  0  0  0  0
  5 11  2  0  0  0  0
  5 37  1  0  0  0  0
  6  9  1  0  0  0  0
  6 12  2  0  0  0  0
  6 38  1  0  0  0  0
  7 15  1  0  0  0  0
  8  9  2  0  0  0  0
  8 19  1  0  0  0  0
  9 17  1  0  0  0  0
 10 11  1  0  0  0  0
 10 20  1  0  0  0  0
 11 28  1  0  0  0  0
 12 32  1  0  0  0  0
 13 14  2  0  0  0  0
 13 24  1  0  0  0  0
 13 27  1  0  0  0  0
 14 21  1  0  0  0  0
 14 31  1  0  0  0  0
 15 27  2  0  0  0  0
 15 31  1  0  0  0  0
 16 25  1  0  0  0  0
 16 29  1  0  0  0  0
 16 30  2  0  0  0  0
 17 18  1  0  0  0  0
 17 39  1  0  0  0  0
 17 40  1  0  0  0  0
 18 19  1  0  0  0  0
 18 41  1  0  0  0  0
 18 42  1  0  0  0  0
 19 25  1  0  0  0  0
 19 43  1  0  0  0  0
 20 44  1  0  0  0  0
 20 45  1  0  0  0  0
 20 46  1  0  0  0  0
 21 47  1  0  0  0  0
 21 48  1  0  0  0  0
 21 49  1  0  0  0  0
 22 28  1  0  0  0  0
 22 50  1  0  0  0  0
 22 51  1  0  0  0  0
 22 52  1  0  0  0  0
 23 28  1  0  0  0  0
 23 53  1  0  0  0  0
 23 54  1  0  0  0  0
 23 55  1  0  0  0  0
 24 26  1  0  0  0  0
 24 56  1  0  0  0  0
 24 57  1  0  0  0  0
 25 58  1  0  0  0  0
 25 59  1  0  0  0  0
 26 32  1  0  0  0  0
 26 60  1  0  0  0  0
 26 61  1  0  0  0  0
M  CHG  1  29  -1
M  END
$$$$
