
  -OEChem-05262117483D

 39 40  0     0  0  0  0  0  0999 V2000
   -2.3289    1.4293    3.5978 C   0  0  0  0  0  0  0  0  0  0  0  0
   -2.7595    2.3086    4.5931 C   0  0  0  0  0  0  0  0  0  0  0  0
   -0.7046    1.9596    5.7931 C   0  0  0  0  0  0  0  0  0  0  0  0
   -1.0746    0.8102    3.6772 C   0  0  0  0  0  0  0  0  0  0  0  0
   -1.9590    2.5903    5.7089 C   0  0  0  0  0  0  0  0  0  0  0  0
   -0.2722    1.0982    4.7947 C   0  0  0  0  0  0  0  0  0  0  0  0
   -0.6110   -0.0344    2.5242 C   0  0  0  0  0  0  0  0  0  0  0  0
   -2.1109    3.2964    8.2273 C   0  0  0  0  0  0  0  0  0  0  0  0
   -1.4795    4.4455    7.4936 C   0  0  0  0  0  0  0  0  0  0  0  0
   -2.4433    3.5234    6.7577 C   0  0  0  0  0  0  0  0  0  0  0  0
    4.2958    1.5470    2.7803 C   0  0  0  0  0  0  0  0  0  0  0  0
    4.2068    2.0256    5.2455 C   0  0  0  0  0  0  0  0  0  0  0  0
    4.3134   -0.3663    4.4166 C   0  0  0  0  0  0  0  0  0  0  0  0
    3.7802    1.0500    4.1397 C   0  0  0  0  0  0  0  0  0  0  0  0
    2.2834    1.0861    4.0017 N   0  0  0  0  0  0  0  0  0  0  0  0
    0.4354    0.1374    1.9330 O   0  0  0  0  0  0  0  0  0  0  0  0
    1.7523    0.5639    6.4342 O   0  0  0  0  0  0  0  0  0  0  0  0
    1.0870   -1.1514    4.6911 O   0  0  0  0  0  0  0  0  0  0  0  0
   -1.4844   -0.9803    2.1010 O   0  0  0  0  0  0  0  0  0  0  0  0
    1.3020    0.2512    5.0730 S   0  0  0  0  0  0  0  0  0  0  0  0
   -2.9613    1.2528    2.7311 H   0  0  0  0  0  0  0  0  0  0  0  0
   -3.7324    2.7840    4.4975 H   0  0  0  0  0  0  0  0  0  0  0  0
   -0.0522    2.1130    6.6470 H   0  0  0  0  0  0  0  0  0  0  0  0
   -1.4928    2.4372    8.4694 H   0  0  0  0  0  0  0  0  0  0  0  0
   -2.8927    3.5085    8.9501 H   0  0  0  0  0  0  0  0  0  0  0  0
   -1.8238    5.4524    7.7094 H   0  0  0  0  0  0  0  0  0  0  0  0
   -0.4282    4.3742    7.2316 H   0  0  0  0  0  0  0  0  0  0  0  0
   -3.4278    3.9373    6.5592 H   0  0  0  0  0  0  0  0  0  0  0  0
    4.0165    0.8591    1.9744 H   0  0  0  0  0  0  0  0  0  0  0  0
    3.8902    2.5369    2.5493 H   0  0  0  0  0  0  0  0  0  0  0  0
    5.3872    1.6174    2.8013 H   0  0  0  0  0  0  0  0  0  0  0  0
    3.8332    1.7057    6.2191 H   0  0  0  0  0  0  0  0  0  0  0  0
    3.8182    3.0269    5.0362 H   0  0  0  0  0  0  0  0  0  0  0  0
    5.2998    2.0779    5.2893 H   0  0  0  0  0  0  0  0  0  0  0  0
    3.9889   -0.7304    5.3948 H   0  0  0  0  0  0  0  0  0  0  0  0
    3.9642   -1.0720    3.6572 H   0  0  0  0  0  0  0  0  0  0  0  0
    5.4084   -0.3575    4.4064 H   0  0  0  0  0  0  0  0  0  0  0  0
    1.9690    0.8355    3.0591 H   0  0  0  0  0  0  0  0  0  0  0  0
   -2.1854   -1.0947    2.7660 H   0  0  0  0  0  0  0  0  0  0  0  0
  1  2  1  0  0  0  0
  1  4  2  0  0  0  0
  1 21  1  0  0  0  0
  2  5  2  0  0  0  0
  2 22  1  0  0  0  0
  3  5  1  0  0  0  0
  3  6  2  0  0  0  0
  3 23  1  0  0  0  0
  4  6  1  0  0  0  0
  4  7  1  0  0  0  0
  5 10  1  0  0  0  0
  6 20  1  0  0  0  0
  7 16  2  0  0  0  0
  7 19  1  0  0  0  0
  8  9  1  0  0  0  0
  8 10  1  0  0  0  0
  8 24  1  0  0  0  0
  8 25  1  0  0  0  0
  9 10  1  0  0  0  0
  9 26  1  0  0  0  0
  9 27  1  0  0  0  0
 10 28  1  0  0  0  0
 11 14  1  0  0  0  0
 11 29  1  0  0  0  0
 11 30  1  0  0  0  0
 11 31  1  0  0  0  0
 12 14  1  0  0  0  0
 12 32  1  0  0  0  0
 12 33  1  0  0  0  0
 12 34  1  0  0  0  0
 13 14  1  0  0  0  0
 13 35  1  0  0  0  0
 13 36  1  0  0  0  0
 13 37  1  0  0  0  0
 14 15  1  0  0  0  0
 15 20  1  0  0  0  0
 15 38  1  0  0  0  0
 17 20  2  0  0  0  0
 18 20  2  0  0  0  0
 19 39  1  0  0  0  0
M  END
$$$$
