64
-1 1 C27H31N2O4
C                     2.444281479614     5.304775313709     0.525690970039
C                     1.119371173157     5.043382573594     0.883109598538
C                     1.853712769702    -1.065023853397     3.573912583954
C                     3.510093500132     4.591246225110     1.073500626716
C                     0.647543807282    -0.356711404324     3.648183711452
C                     1.945128852526     3.315334585048     2.398302965146
C                     0.317509612592    -1.132990649363     5.928878412096
C                     0.885777429570     4.026585920304     1.825153266146
C                     2.316572322849    -1.770485402582     4.687681400316
C                     1.533101247303    -1.815191235274     5.849520663912
C                     3.291724724657     3.569970388363     2.040120495803
C                    -0.114656646316    -0.387384468118     4.825385142935
C                    -2.197058279540     2.669239633218     3.056115487952
C                    -2.653826209226     3.684102879359     2.263812381259
C                    -0.464775846705     3.641344450553     2.226223024239
C                     5.057735738127    -1.638410692581     2.850918663515
C                     2.168630302980    -2.723527780383     6.881525192890
C                     3.626875777219    -2.854085937291     6.379811850820
C                     3.605678620943    -2.560457758834     4.850514017093
C                    -3.994696770238     4.207274193277     1.887006356086
C                     5.980738583091     2.151636052031     0.876740178209
C                     3.797946746522     2.047304658532     4.928873954020
C                    -2.966217376416     1.653316699129     3.852900175276
C                     4.881172666100    -1.845028130283     4.386332939114
C                     5.694626589021     2.980384889707     2.136821122173
C                     4.034903612370     1.690002650107     3.458409640400
C                    -2.263053731643     0.295129829919     3.950947816944
N                    -0.807014376028     2.662053549575     3.017276854665
N                     4.318393284647     2.858309692200     2.614491033087
O                     4.371687753430    -2.373212736800     2.091351051752
O                     5.902586189466    -0.745701761232     2.533710951813
O                    -1.547097444764     4.322577435935     1.726439009362
O                    -1.282071368629     0.349096205589     4.986014974904
H                     2.658346975429     6.075082132454    -0.212693715023
H                     0.294251845550     5.590724284155     0.439569384584
H                     2.441746149264    -1.071825140539     2.661076868365
H                     4.514418007495     4.817009696468     0.735029156494
H                     0.322056371980     0.252265761466     2.811595044606
H                     1.696763137687     2.552555084579     3.122800103412
H                    -0.299011064295    -1.154773123259     6.825039690275
H                     2.099224346088    -2.332250928124     7.903811292433
H                     1.661074765127    -3.698955857059     6.877891015478
H                     4.242492079670    -2.091485145257     6.872428541386
H                     4.071438774302    -3.828144709725     6.611197517827
H                     3.522051518649    -3.490369266288     4.274575559484
H                    -4.142591042447     5.235056729505     2.240540093594
H                    -4.134972028345     4.206778137268     0.799489894142
H                    -4.772782531021     3.582298979097     2.332985949978
H                     5.852924247063     1.084961980670     1.091896927392
H                     5.310204232674     2.441721378479     0.060001461838
H                     7.015126378056     2.314361579216     0.546587537784
H                     4.700875089954     2.483600769854     5.372261214593
H                     2.980445850922     2.765868090401     5.048477491779
H                     3.537803060420     1.143154402587     5.489527037939
H                    -3.134739992318     2.011467084459     4.876217440116
H                    -3.954726226897     1.510732418598     3.400222859513
H                     5.750334433974    -2.428482211351     4.723620608165
H                     4.963197472717    -0.872959609213     4.887464482591
H                     5.931913095229     4.038987770331     1.981769865775
H                     6.345733018373     2.636829233015     2.946063011460
H                     3.173914933598     1.150463636350     3.061161578956
H                     4.871170729975     0.994562674813     3.359116093324
H                    -2.997769456475    -0.481571481571     4.212324358945
H                    -1.814677928088     0.025911029826     2.991525932696
