23   
torsion grid (-165,)
C        3.9707432813   -2.2318025794   -0.2988531247
C        1.7269660870   -1.2395583130   -0.2017070466
C        0.6816073673   -0.6535471824    0.5105079538
C        1.9992009113   -0.8790419595    2.5743900857
C        2.9020878653   -1.6374882700    0.4503735875
C        3.0490302029   -1.4578605630    1.8498581922
C        0.8528652543   -0.4887306315    1.8831068201
C        5.9780335502   -1.8329060881    3.9867991051
C        4.5008983686   -1.5660409637    3.7670995281
N        4.8240459356   -2.7089208718   -0.9320794848
O       -1.7277444263    0.1272599236    2.0974524304
O       -0.3454034286   -0.1334049463    4.2303620906
O        4.2051123685   -1.8867102969    2.3894124459
S       -0.4765559830    0.2481161552    2.8307815558
Cl       0.0916332784    2.3095610365    2.7206937379
H        1.6412020661   -1.3930755010   -1.2725480683
H       -0.2344939946   -0.3415040248    0.0217857895
H        2.0512583011   -0.7459261822    3.6476134860
H        6.2194757114   -2.8784596436    3.7776556685
H        6.5840951104   -1.1983045554    3.3350118686
H        6.2379937545   -1.6168199014    5.0276501864
H        4.2664701348   -0.5107677842    3.9482921328
H        3.8718724842   -2.1841546497    4.4187851051
23   
torsion grid (-150,)
C        4.0085645349   -2.3258806716   -0.2513693827
C        1.7945208265   -1.2633534359   -0.2417123297
C        0.7365174088   -0.6556128846    0.4317598277
C        1.9404328813   -0.9705121804    2.5518084535
C        2.9228675638   -1.7137593729    0.4580163097
C        3.0066973812   -1.5676747837    1.8662678654
C        0.8441289994   -0.5251798209    1.8148883416
C        5.9648462654   -1.6978225182    3.9256815895
C        4.4526304953   -1.6533125179    3.8017179948
N        4.8776468106   -2.8145915748   -0.8535381562
O       -1.7275391870    0.1525146038    1.9198137929
O       -0.4520824533   -0.1697711496    4.1100670175
O        4.1142892786   -2.0572587208    2.4537404890
S       -0.5089921652    0.2324491462    2.7113504067
Cl       0.1133174052    2.2804638358    2.6542386050
H        1.7567284794   -1.3911992118   -1.3186744812
H       -0.1430384223   -0.3015557113   -0.0940449711
H        1.9395208227   -0.8729681301    3.6304357659
H        6.3440264383   -2.7006234666    3.7112960319
H        6.4267066789   -0.9946330303    3.2278278640
H        6.2574874349   -1.4257502886    4.9447706591
H        4.0877324635   -0.6361758328    3.9783247361
H        3.9572930138   -2.3327355384    4.5043727773
23   
torsion grid (-135,)
C        4.0206519718   -2.3980350414   -0.1977040313
C        1.8515342430   -1.2486791910   -0.2572375416
C        0.7938277644   -0.6073873662    0.3837778910
C        1.8950610630   -1.0099055643    2.5450145453
C        2.9312414871   -1.7567900630    0.4796034381
C        2.9637689946   -1.6395569568    1.8924912420
C        0.8507436810   -0.5047212683    1.7727035020
C        5.9318069660   -1.5862994005    3.8311002482
C        4.4211864132   -1.7462575681    3.8336628175
N        4.8950900377   -2.9072744423   -0.7745841655
O       -1.6953012950    0.2707823625    1.7875180436
O       -0.5203105104   -0.1287576222    4.0206600341
O        4.0192822643   -2.1961567239    2.5156400897
S       -0.5066832172    0.2932021760    2.6267921605
Cl       0.1953367514    2.3166513831    2.6222836114
H        1.8529449417   -1.3565506581   -1.3370422410
H       -0.0478932755   -0.2071686978   -0.1701175366
H        1.8504197987   -0.9370397384    3.6249591284
H        6.4212293769   -2.5260128543    3.5619711194
H        6.2352655664   -0.8186248681    3.1141738791
H        6.2718075211   -1.2891836001    4.8286124197
H        3.9404027065   -0.7911471830    4.0625415099
H        4.0832697807   -2.4928464790    4.5593372833
23   
torsion grid (-120,)
C        3.9987300729   -2.4526075517   -0.1477107545
C        1.8735199492   -1.2264733711   -0.2185068504
C        0.8314903763   -0.5561581837    0.4177547693
C        1.8836690902   -1.0377858932    2.5880413813
C        2.9222317849   -1.7862362681    0.5260793139
C        2.9379017912   -1.6972601807    1.9414916508
C        0.8722799341   -0.4792088325    1.8091624479
C        5.8825926535   -1.4679490992    3.7490092408
C        4.4217657463   -1.8704530605    3.8690710220
N        4.8642168846   -2.9800626873   -0.7217300967
O       -1.6403622587    0.3995040390    1.8016889366
O       -0.5154858165   -0.0856962817    4.0437820281
O        3.9580752896   -2.3136737034    2.5684310821
S       -0.4643293218    0.3587889161    2.6578404766
Cl       0.3204879583    2.3515550091    2.6994406371
H        1.8879161887   -1.3160152377   -1.2999074045
H        0.0140272113   -0.1144852497   -0.1409523065
H        1.8221859134   -0.9816099369    3.6681510579
H        6.4807389843   -2.2973260059    3.3628377765
H        5.9943298326   -0.6147035786    3.0739185186
H        6.2695256899   -1.1863485999    4.7340965662
H        3.8188306549   -1.0314714990    4.2235083078
H        4.2846959042   -2.7112439151    4.5545507604
23   
torsion grid (-105,)
C        3.8726616535   -2.6998934511   -0.4324878837
C        1.7757265982   -1.4255369390   -0.3512661175
C        0.8361824299   -0.6647787665    0.3411899792
C        2.2152275857   -0.8620932891    2.3673805810
C        2.9219442109   -1.9105282112    0.2953631560
C        3.1508399867   -1.6360992995    1.6677522168
C        1.0898488070   -0.4026050288    1.6864708043
C        5.3701057540   -1.1374768757    4.1506629830
C        4.4503280123   -2.2303037589    3.6286585611
N        4.6252569896   -3.3409027382   -1.0485263075
O       -1.3816850973    0.5516468883    1.9380192984
O        0.0653947897    0.3214479515    4.0311431933
O        4.2916016342   -2.1213372748    2.1928226599
S       -0.0893831267    0.5832155801    2.6064757882
Cl       0.7181115451    2.5368638680    2.2697250063
H        1.6247546498   -1.6595106603   -1.4001314796
H       -0.0605036572   -0.2912497078   -0.1403325336
H        2.3536073072   -0.6016437342    3.4094509460
H        6.3332339648   -1.1748767576    3.6350997884
H        4.9372834062   -0.1430941164    4.0028823197
H        5.5429917881   -1.2806593495    5.2223876765
H        3.4736953784   -2.2295190718    4.1190141844
H        4.8979506985   -3.2159283671    3.7779648856
23   
torsion grid (-90,)
C        3.8838681145   -2.7696000646   -0.4482973458
C        1.8330806489   -1.4246059027   -0.3565392487
C        0.9093591405   -0.6533718514    0.3463094850
C        2.2329673020   -0.9887612083    2.3919109189
C        2.9460177619   -1.9771708034    0.2926994636
C        3.1554165907   -1.7671039598    1.6802210827
C        1.1429818941   -0.4564889560    1.7056535780
C        5.2620653261   -1.0664795178    4.0477206448
C        4.4751146843   -2.3029898008    3.6362816724
N        4.6290458105   -3.4083690015   -1.0755874235
O       -1.2939247035    0.5860667614    1.9453699927
O        0.0952043061    0.2117274226    4.0567323447
O        4.2546068664   -2.3384323579    2.2071235481
S       -0.0168860788    0.5370132358    2.6412154642
Cl       0.8762317571    2.4681416084    2.4029108951
H        1.6969152422   -1.6103952921   -1.4170039868
H        0.0402261056   -0.2233361410   -0.1385295467
H        2.3472565654   -0.7859670591    3.4490216250
H        6.2105209922   -1.0249701905    3.5057961150
H        4.7093787719   -0.1440234663    3.8462618164
H        5.4761757076   -1.1074219876    5.1207355076
H        3.5209016808   -2.3916607265    4.1641054501
H        5.0503369766   -3.2094560590    3.8345074895
23   
torsion grid (-75,)
C        3.8832435365   -2.7894381373   -0.4132998818
C        1.8882554586   -1.3628790871   -0.3428313812
C        0.9735443064   -0.5770167320    0.3554719961
C        2.1932433702   -1.0608244353    2.4358516545
C        2.9492272926   -1.9901609099    0.3252355204
C        3.1111707606   -1.8471826491    1.7274382821
C        1.1593127314   -0.4482463282    1.7302343758
C        5.1670566468   -0.9875825710    3.9202264248
C        4.4729147371   -2.3202194307    3.6701897979
N        4.6274087076   -3.4304285060   -1.0395021199
O       -1.2389634734    0.6912217707    1.9195014735
O        0.0456987158    0.1676004166    4.0648511934
O        4.1443739753   -2.5150993255    2.2756186947
S        0.0053900913    0.5556570619    2.6614505307
Cl       0.9908098344    2.4535676615    2.5404545821
H        1.7881205735   -1.4976832523   -1.4149479764
H        0.1473552194   -0.0842582062   -0.1445402764
H        2.2609516366   -0.9247542192    3.5074586384
H        6.0680633234   -0.9091009384    3.3057567477
H        4.5223204024   -0.1333604295    3.6975237778
H        5.4597996320   -0.9238064453    4.9732959780
H        3.5722078012   -2.4428040684    4.2815142466
H        5.1412572856   -3.1530909211    3.8931307719
23   
torsion grid (-60,)
C        3.9126083111   -2.8407666656   -0.3646269259
C        1.9801479167   -1.3259429929   -0.3339240040
C        1.0778032575   -0.5140688522    0.3498142098
C        2.1681732937   -1.1331584461    2.4638774818
C        2.9795545492   -2.0259925689    0.3583345676
C        3.0823504457   -1.9353362920    1.7689262730
C        1.2036034415   -0.4403684427    1.7362229919
C        5.1201653276   -0.9525577538    3.7679621541
C        4.5127085457   -2.3468675548    3.6792911756
N        4.6596309703   -3.4895746564   -0.9792112523
O       -1.1207803110    0.8535518043    1.8440344873
O       -0.0061201767    0.1440868717    4.0311923310
O        4.0396793848   -2.6837078738    2.3524459553
S        0.0641610611    0.5964769287    2.6485238669
Cl       1.1846703295    2.4236438931    2.6791678319
H        1.9227024919   -1.4198179804   -1.4135138514
H        0.3043442533    0.0405256227   -0.1694681210
H        2.1875582750   -1.0548883351    3.5438562222
H        5.9322017141   -0.8429704313    3.0433667671
H        4.3903672840   -0.1593843910    3.5916704849
H        5.5337362437   -0.8093049285    4.7714761019
H        3.6958945268   -2.4812521790    4.3985654979
H        5.2621828041   -3.1133061726    3.8792457929
23   
torsion grid (-45,)
C        3.9488216346   -2.8745365926   -0.2854288048
C        2.0525806541   -1.3091153709   -0.3091598671
C        1.1452476581   -0.4860719162    0.3531322436
C        2.1073465762   -1.1959443893    2.4978155436
C        2.9988025434   -2.0558954095    0.4109672553
C        3.0335759074   -2.0029397857    1.8249071626
C        1.2027162649   -0.4511741802    1.7466260414
C        5.0491919411   -0.9208115203    3.6658813166
C        4.5546584957   -2.3615041769    3.6847944118
N        4.7156203754   -3.5199258818   -0.8788305735
O       -1.0729345298    0.9308255909    1.7700910820
O       -0.1123878729    0.1075722337    3.9901025125
O        3.9265627352   -2.7980896093    2.4495649695
S        0.0534572354    0.5996433553    2.6295656669
Cl       1.2432834027    2.3767673348    2.7830438931
H        2.0439527421   -1.3727572953   -1.3924329176
H        0.4160849905    0.1069313514   -0.1874928753
H        2.0768155784   -1.1607755379    3.5806177458
H        5.7046132963   -0.7471802075    2.8069437664
H        4.2409598493   -0.1878166846    3.6386763954
H        5.6289657965   -0.7420966700    4.5771844524
H        3.8540104568   -2.5282529867    4.5123453204
H        5.3839637787   -3.0600223831    3.8005506699
23   
torsion grid (-30,)
C        3.9707667349   -2.9100220634   -0.2014552612
C        2.1215974682   -1.2908762474   -0.2949002893
C        1.2132429328   -0.4451004130    0.3354814776
C        2.0557137960   -1.2039920932    2.5131373081
C        3.0123345778   -2.0722214304    0.4601339573
C        2.9857307728   -2.0332905356    1.8735831318
C        1.2105323180   -0.4226387501    1.7311585551
C        5.0004121585   -0.9131700206    3.6081942781
C        4.6031151288   -2.3817526622    3.6689612296
N        4.7482827411   -3.5683055811   -0.7659944638
O       -1.0267316976    1.0189604342    1.6694625114
O       -0.1746860847    0.1687936806    3.9233761232
O        3.8147000228   -2.8638125873    2.5415251678
S        0.0563118976    0.6571599340    2.5712560735
Cl       1.2866190420    2.4018609378    2.7718815509
H        2.1579273727   -1.3449718556   -1.3781219002
H        0.5267908062    0.1746104082   -0.2307190461
H        1.9803361484   -1.1850132435    3.5946103570
H        5.5060852863   -0.6793958548    2.6660460521
H        4.1578317646   -0.2301756561    3.7283717455
H        5.7027990133   -0.7184033273    4.4251018952
H        4.0439400461   -2.5959217400    4.5873902235
H        5.4841549711   -3.0248799932    3.6501629677
23   
torsion grid (-15,)
C        3.9847430800   -2.9087571373   -0.1107867924
C        2.1572520848   -1.2662124818   -0.2579264619
C        1.2358281458   -0.4191888003    0.3505532508
C        1.9809775665   -1.2202008426    2.5476802620
C        3.0061537896   -2.0711240007    0.5213287110
C        2.9212830139   -2.0551414081    1.9319409047
C        1.1782001770   -0.4147750516    1.7457903711
C        4.9691785621   -0.9246297237    3.5540471425
C        4.6584245978   -2.4125381353    3.6211939540
N        4.7850129345   -3.5634936080   -0.6468914541
O       -1.0463421182    1.0411876488    1.6186933239
O       -0.2710566138    0.1791499959    3.8957404205
O        3.7017722329   -2.9087828401    2.6327380567
S        0.0052828937    0.6700239082    2.5533507741
Cl       1.2392408372    2.4065956250    2.7962095004
H        2.2354290330   -1.3037614438   -1.3396440286
H        0.5787745230    0.2165726978   -0.2326708627
H        1.8706124880   -1.2171729263    3.6266138354
H        5.3063883839   -0.6290402291    2.5557699566
H        4.1228099037   -0.2948485287    3.8355855837
H        5.7828170470   -0.7191897550    4.2572021477
H        4.2673754233   -2.6826094831    4.6077918838
H        5.5569352661   -3.0039836861    3.4343676527
23   
torsion grid (0,)
C        4.1302002591   -2.7412784561    0.3244539114
C        2.3769666952   -1.0652186175   -0.0986943810
C        1.3508062522   -0.2439393106    0.3584583946
C        1.7162876264   -1.0838492630    2.6354373285
C        3.0757127196   -1.8916645171    0.7978677164
C        2.7516212611   -1.9028874004    2.1742400487
C        1.0479748424   -0.2734759330    1.7214987636
C        5.2861302573   -1.1035023213    3.1289902314
C        4.6904561340   -2.4275254353    3.5802120985
N        4.9953166197   -3.4200668564   -0.0594938262
O       -1.1634564326    1.1207664052    1.2305543254
O       -0.7492863023    0.2742842502    3.6059345278
O        3.3705307087   -2.7535333149    3.0293004936
S       -0.2703569629    0.7779797070    2.3274204822
Cl       0.8540859176    2.5499174505    2.7627994847
H        2.6399445537   -1.0789870643   -1.1515070705
H        0.7941435872    0.3954752078   -0.3179855911
H        1.4465958778   -1.0963189896    3.6863070045
H        5.4967629964   -1.0830917375    2.0575326702
H        4.6413285466   -0.2559451977    3.3803550439
H        6.2369697545   -0.9671469623    3.6544701362
H        4.5566046613   -2.4387391488    4.6653242217
H        5.3403588508   -3.2595582843    3.2983388331
23   
torsion grid (15,)
C        4.1319402332   -2.7201311503    0.4025639406
C        2.3986172749   -1.0454743528   -0.0759848347
C        1.3610430793   -0.2189565400    0.3426288815
C        1.6882559743   -1.0061226641    2.6438553108
C        3.0825101724   -1.8516440581    0.8507570763
C        2.7382606803   -1.8296834687    2.2231490066
C        1.0314626156   -0.2223921092    1.6999748228
C        5.3244493543   -1.0912984482    3.1340011791
C        4.7317623828   -2.4381266909    3.5174960842
N        4.9928365556   -3.4192978051    0.0464510273
O       -1.1869006022    1.1339676779    1.1400252559
O       -0.7956157710    0.3631084910    3.5446545207
O        3.3334389616   -2.6441197505    3.1269324628
S       -0.3047761517    0.8334120428    2.2580099835
Cl       0.7957720375    2.6290224866    2.6534805030
H        2.6804231989   -1.0834191611   -1.1233750799
H        0.8148236491    0.4026377173   -0.3583742272
H        1.4033537414   -0.9940941437    3.6905718006
H        5.4361248608   -0.9718042966    2.0545534745
H        4.7291342994   -0.2593705662    3.5231362561
H        6.3237198918   -1.0253952638    3.5764732613
H        4.7228234490   -2.5625606662    4.6025246498
H        5.3083700736   -3.2547673053    3.0750050412
23   
torsion grid (30,)
C        4.1326597375   -2.7066846042    0.4441746950
C        2.4007590149   -1.0508916395   -0.0655140466
C        1.3545378845   -0.2212615463    0.3213450191
C        1.6746334683   -0.9417082861    2.6428533640
C        3.0872274303   -1.8296829813    0.8845010932
C        2.7355800262   -1.7696544807    2.2546584836
C        1.0152248034   -0.1909215465    1.6762613969
C        5.3696449015   -1.0910252914    3.1793124971
C        4.7561993096   -2.4532726189    3.4630501468
N        4.9861674195   -3.4113325075    0.0807982071
O       -1.2116972797    1.1301387946    1.0687986993
O       -0.8264180352    0.4302421920    3.4956863909
O        3.3167462033   -2.5342690754    3.2088204425
S       -0.3326398068    0.8686198564    2.1989655931
Cl       0.7504241964    2.6837109829    2.5488831139
H        2.6893040597   -1.1168255820   -1.1096602401
H        0.8089095836    0.3762593824   -0.4005810802
H        1.3870592151   -0.9011038413    3.6880722769
H        5.3728805169   -0.8444978385    2.1152865482
H        4.8495613325   -0.2968297127    3.7238651780
H        6.4117453678   -1.1078245982    3.5144154790
H        4.8353828668   -2.7054991095    4.5219695904
H        5.2509497196   -3.2342781372    2.8803783093
23   
torsion grid (45,)
C        4.0706094031   -1.5938438340   -0.4985970924
C        1.6704343411   -1.3737244268   -0.0160152210
C        0.6263090438   -1.0699420077    0.8536631794
C        2.2709645407   -0.4837124729    2.5810221254
C        3.0060700828   -1.2519037925    0.3999967372
C        3.3168703618   -0.8059010443    1.7067426787
C        0.9604714785   -0.6292601660    2.1346967162
C        4.5564694130   -2.1972584630    3.9830795915
C        5.0977419526   -0.9172585847    3.3596456719
N        4.9130647086   -1.8912696621   -1.2458988364
O       -1.5866500393   -0.8966478676    2.8548418795
O        0.1469194597   -0.3413590428    4.6473088970
O        4.6225982339   -0.6556241405    2.0117198104
S       -0.3581825927   -0.2447778418    3.2842104118
Cl      -0.6105060489    1.8414533457    2.8870573439
H        1.4609812880   -1.7229846124   -1.0218968150
H       -0.4107690872   -1.1772323372    0.5560126952
H        2.4691227142   -0.1169413384    3.5813397029
H        3.4900532853   -2.1482556101    4.2096847709
H        4.7347011012   -3.0540537300    3.3260070963
H        5.0875450247   -2.3746942435    4.9238530763
H        6.1796355780   -0.9685414584    3.2334378184
H        4.8710500458   -0.0459940896    3.9866644986
23   
torsion grid (60,)
C        4.0397521460   -1.6325412232   -0.5696624219
C        1.6513358981   -1.3454530755   -0.0812944067
C        0.6140071781   -1.0344528392    0.7949703351
C        2.2738245628   -0.5912079732    2.5539329593
C        2.9873228446   -1.2928813211    0.3436386591
C        3.3115790744   -0.9153945842    1.6706685880
C        0.9612310820   -0.6618928572    2.0928397983
C        4.6398477922   -2.1917800008    4.0676180174
C        5.0513584297   -0.9082945084    3.3575593932
N        4.8723850867   -1.9193438663   -1.3320183005
O       -1.5964179079   -0.8620263609    2.7999666878
O        0.1513649042   -0.4331191204    4.6132446654
O        4.6230509213   -0.8517630360    1.9752358056
S       -0.3460044472   -0.2712813142    3.2534450318
Cl      -0.5216043530    1.8358931974    2.9292040222
H        1.4347001935   -1.6436481975   -1.1019845533
H       -0.4247808900   -1.0862450025    0.4887735943
H        2.4708416929   -0.2851363023    3.5738507527
H        3.5575426438   -2.2899680380    4.1744971204
H        5.0161380739   -3.0651207930    3.5270304031
H        5.0758202170   -2.1956168315    5.0718887738
H        6.1366928662   -0.8322560591    3.2847057735
H        4.6873600331   -0.0182123292    3.8849474044
23   
torsion grid (75,)
C        4.0184879544   -1.6617316612   -0.6110006902
C        1.6408201367   -1.2845884444   -0.1376646104
C        0.6069199245   -0.9599261824    0.7386022844
C        2.2593145599   -0.6980797978    2.5416395806
C        2.9701217230   -1.3200765744    0.3060167674
C        3.2940263862   -1.0250805292    1.6555365061
C        0.9525103102   -0.6728505672    2.0573836453
C        4.7475016620   -2.1578091592    4.1846504542
C        5.0189800126   -0.9133067525    3.3492092641
N        4.8483863677   -1.9442004883   -1.3779801766
O       -1.6253636733   -0.7624732882    2.7138119292
O        0.1102121420   -0.5357872423    4.5746284926
O        4.6019048951   -1.0706313048    1.9736553867
S       -0.3514219617   -0.2720039168    3.2182156201
Cl      -0.3983002567    1.8572586333    3.0082413644
H        1.4258300521   -1.5198007573   -1.1750132445
H       -0.4277669693   -0.9382346128    0.4156289224
H        2.4462521653   -0.4714296654    3.5832581833
H        3.6801411578   -2.3726162395    4.2802755810
H        5.2365791815   -3.0276613083    3.7376783387
H        5.1531721710   -2.0125364823    5.1911897734
H        6.0907898087   -0.7261212490    3.2701641584
H        4.5540796940   -0.0167720681    3.7739734604
23   
torsion grid (90,)
C        3.9898412290   -1.6847130969   -0.6357594771
C        1.6222426921   -1.2219079691   -0.1880019874
C        0.5873723310   -0.8857314373    0.6828018608
C        2.2092277753   -0.8052933002    2.5297188682
C        2.9386355147   -1.3436895893    0.2781518160
C        3.2470487519   -1.1326810451    1.6470984158
C        0.9169000220   -0.6845841323    2.0213715610
C        4.8745777530   -2.1232674536    4.2770763021
C        4.9767881701   -0.9372886440    3.3280665706
N        4.8226029500   -1.9625931993   -1.4013110458
O       -1.6772918960   -0.6635402519    2.6172813025
O        0.0221812656   -0.6261416092    4.5244216002
O        4.5388880846   -1.2846837410    1.9939266249
S       -0.3908833387   -0.2714002746    3.1732596155
Cl      -0.3131663884    1.8652734425    3.0695820665
H        1.4186154685   -1.3929007879   -1.2401053510
H       -0.4368013402   -0.7903563055    0.3402934959
H        2.3804090557   -0.6620594480    3.5889343598
H        3.8389320241   -2.4437761637    4.4231673248
H        5.4457436505   -2.9695232292    3.8863340360
H        5.2861919192   -1.8478326913    5.2536337355
H        6.0187748304   -0.6412223786    3.1921134526
H        4.4249722899   -0.0624039427    3.6851087981
23   
torsion grid (105,)
C        3.9870900977   -1.7241317917   -0.6047412301
C        1.6282751821   -1.1759626498   -0.2065967539
C        0.5860129997   -0.8172114535    0.6454331028
C        2.1555999706   -0.8671723354    2.5379397439
C        2.9252147588   -1.3684218528    0.2911272078
C        3.2028748588   -1.2129811990    1.6732603077
C        0.8859041131   -0.6703632572    1.9986295743
C        5.0517749957   -2.1068321165    4.3423325362
C        4.9512307000   -0.9701373479    3.3370837703
N        4.8297316563   -2.0086219638   -1.3569269453
O       -1.7203222662   -0.5624183555    2.5294152792
O       -0.0706339229   -0.6235883233    4.4794536309
O        4.4689997781   -1.4566424158    2.0605710499
S       -0.4349899858   -0.2297899950    3.1252015373
Cl      -0.2742297125    1.9042312778    3.0621227415
H        1.4471013784   -1.3058925491   -1.2686356780
H       -0.4222598283   -0.6630680679    0.2779522739
H        2.3031099108   -0.7770134276    3.6071756080
H        4.0684947664   -2.5284530435    4.5729868842
H        5.6864112540   -2.9051005135    3.9487680567
H        5.4941510465   -1.7379726561    5.2736178986
H        5.9401997987   -0.5611947881    3.1158743352
H        4.3219655326   -0.1495975230    3.6910432104
23   
torsion grid (120,)
C        3.9563959810   -1.7695396318   -0.5335393632
C        1.6037796049   -1.1529901689   -0.1946069525
C        0.5518410826   -0.7666552470    0.6322270864
C        2.0668781570   -0.8811650744    2.5651792642
C        2.8809620261   -1.3894016788    0.3359165685
C        3.1254597227   -1.2551359402    1.7258851675
C        0.8194931375   -0.6384374715    1.9946577475
C        5.2442385127   -2.1264240205    4.3417668245
C        4.8942076671   -1.0031240203    3.3804944785
N        4.8113655578   -2.0699832920   -1.2653273593
O       -1.7952725502   -0.4725873738    2.4662696783
O       -0.1912936854   -0.5533018635    4.4533484260
O        4.3677710376   -1.5582725052    2.1485763592
S       -0.5168579038   -0.1623896160    3.0884764484
Cl      -0.3106107598    1.9674701718    3.0126232449
H        1.4470419456   -1.2691856507   -1.2621101095
H       -0.4406687166   -0.5771751382    0.2391732469
H        2.1885064964   -0.8065096455    3.6390955856
H        4.3506208327   -2.6783770697    4.6486188732
H        5.9400086619   -2.8264717742    3.8717920220
H        5.7198412094   -1.7122269023    5.2368743610
H        5.7886454933   -0.4478585089    3.0839528450
H        4.1874778031   -0.2929717884    3.8150124068
23   
torsion grid (135,)
C        3.9540049578   -1.9421851768   -0.2520288741
C        1.5729119589   -1.3651880216   -0.0791857575
C        0.4818821204   -0.8949322495    0.6487815053
C        1.9602601497   -0.5429183414    2.5817427262
C        2.8454076285   -1.4386138146    0.5057509625
C        3.0499945714   -1.0312345769    1.8486604975
C        0.7122892228   -0.4927751817    1.9633595017
C        5.6100243429   -2.2780963815    3.9613125325
C        4.5688929522   -1.1946785781    3.7380740342
N        4.8351587439   -2.3614702134   -0.8880558240
O       -1.9165575605   -0.3526970032    2.3513182207
O       -0.3601874789    0.0063317724    4.3449010084
O        4.3103894693   -1.1121966569    2.3142949885
S       -0.6672405064    0.1239947268    2.9258535429
Cl      -0.5450931719    2.2087535568    2.4590623097
H        1.4457896632   -1.6919161782   -1.1061927818
H       -0.5111600782   -0.8446699120    0.2165619373
H        2.0710565181   -0.1915626636    3.6004179457
H        5.2271191529   -3.2504179747    3.6398280959
H        6.5229276219   -2.0613013255    3.4003654495
H        5.8596884938   -2.3338013174    5.0259586769
H        4.9151528594   -0.2115626507    4.0724223878
H        3.6457238189   -1.4413958555    4.2696447023
23   
torsion grid (150,)
C        4.0097552381   -2.0114710763   -0.3012720594
C        1.6528965375   -1.3446564460   -0.1222335130
C        0.5782045870   -0.8486538293    0.6134876628
C        2.0554210728   -0.6215492636    2.5653376025
C        2.9171607849   -1.4886440451    0.4665188246
C        3.1285421331   -1.1316098390    1.8227498141
C        0.8154111295   -0.4967495614    1.9407654173
C        5.8191157883   -2.1744878473    3.9873403974
C        4.6163227101   -1.2870111415    3.7228489683
N        4.8783493294   -2.4430479050   -0.9462813947
O       -1.8080395127   -0.2529690164    2.3160548517
O       -0.2528549395   -0.0186137614    4.3290947371
O        4.3789349660   -1.2897479419    2.2951527662
S       -0.5433338216    0.1515909657    2.9119133022
Cl      -0.3248869585    2.2411434173    2.5048469811
H        1.5190743028   -1.6341424519   -1.1594982506
H       -0.4083527621   -0.7416316588    0.1768005819
H        2.1719820304   -0.3133704986    3.5969908282
H        5.6133792556   -3.2012342661    3.6737516117
H        6.6966424666   -1.8138854568    3.4440183878
H        6.0475896798   -2.1727705211    5.0578555293
H        4.7831421370   -0.2533890491    4.0462555764
H        3.7345259182   -1.6800311267    4.2391709838
23   
torsion grid (165,)
C        4.0010321602   -2.0953307944   -0.3225130171
C        1.6792235927   -1.3168583899   -0.1682896810
C        0.6154029494   -0.7868573479    0.5598545412
C        2.0572220724   -0.7050569512    2.5518491791
C        2.9199710946   -1.5452207882    0.4423830362
C        3.1190962817   -1.2444452422    1.8143994766
C        0.8416388411   -0.4922681868    1.9025132719
C        5.8876729091   -2.0721598796    4.0366924901
C        4.5687289266   -1.3868996051    3.7326882350
N        4.8611652885   -2.5451400945   -0.9663864073
O       -1.7736000491   -0.1221713312    2.2288548264
O       -0.2552018770   -0.0353120926    4.2816863595
O        4.3456161503   -1.4954827619    2.3091175024
S       -0.5036948231    0.1951138461    2.8650473737
Cl      -0.1671523323    2.2822279717    2.5312375436
H        1.5549817712   -1.5643650787   -1.2175415363
H       -0.3534283595   -0.6114839428    0.1058552637
H        2.1603162277   -0.4491496511    3.5988317390
H        5.8431070565   -3.1290767853    3.7614620090
H        6.7063241114   -1.6027101011    3.4846592503
H        6.1012544743   -1.9967812146    5.1073521092
H        4.5852937210   -0.3261063648    4.0100511212
H        3.7451948689   -1.8776778405    4.2639105920
23   
torsion grid (180,)
C        3.9782963798   -2.1597671471   -0.3267802496
C        1.6943149426   -1.2707863129   -0.1839349909
C        0.6449754361   -0.7132064503    0.5453292608
C        2.0437559782   -0.7962899918    2.5665739102
C        2.9086757242   -1.5887941653    0.4390390009
C        3.0935644621   -1.3541873852    1.8260114293
C        0.8556638888   -0.4894397109    1.9038407519
C        5.9548386286   -1.9574893823    4.0242156482
C        4.5431261554   -1.4813500134    3.7400591361
N        4.8307175137   -2.6214687726   -0.9724971776
O       -1.7420348314    0.0172441359    2.1887003980
O       -0.2772087459   -0.1042766560    4.2782917853
O        4.2912817731   -1.6984712518    2.3347338018
S       -0.4734392253    0.2209535452    2.8721030555
Cl      -0.0062786223    2.3008202806    2.6707137752
H        1.5797585454   -1.4669720591   -1.2450699581
H       -0.3024348543   -0.4656419889    0.0799324915
H        2.1308858072   -0.6064610580    3.6287522802
H        6.0603894631   -3.0185836973    3.7834838825
H        6.6799679914   -1.3921436911    3.4329153670
H        6.1821166634   -1.8154850679    5.0851599880
H        4.4294214476   -0.4134575974    3.9624295224
H        3.8071256153   -2.0442169558    4.3266382349
