
  -OEChem-05262117483D

 32 33  0     1  0  0  0  0  0999 V2000
    0.6454   -2.0753    1.4510 C   0  0  0  0  0  0  0  0  0  0  0  0
   -0.7452   -2.2522    1.3381 C   0  0  0  0  0  0  0  0  0  0  0  0
    1.2363   -0.9545    0.8824 C   0  0  0  0  0  0  0  0  0  0  0  0
   -1.5345   -1.3150    0.6768 C   0  0  0  0  0  0  0  0  0  0  0  0
    0.4602   -0.0011    0.1982 C   0  0  0  0  0  0  0  0  0  0  0  0
   -0.9352   -0.1827    0.1078 C   0  0  0  0  0  0  0  0  0  0  0  0
    1.0949    1.1556   -0.4653 C   0  0  0  0  0  0  0  0  0  0  0  0
   -2.6289    5.0698   -1.6948 C   0  0  0  0  0  0  0  0  0  0  0  0
    0.1553    1.9835   -1.3275 C   0  0  0  0  0  0  0  0  0  0  0  0
   -1.2606    2.0505   -0.7455 C   0  0  1  0  0  0  0  0  0  0  0  0
   -2.2218    6.4073   -2.2893 C   0  0  0  0  0  0  0  0  0  0  0  0
   -1.3056    2.8219    0.5750 C   0  0  0  0  0  0  0  0  0  0  0  0
   -2.2639    2.6170   -1.7669 C   0  0  0  0  0  0  0  0  0  0  0  0
   -1.9600    3.9747   -2.1864 N   0  0  0  0  0  0  0  0  0  0  0  0
    2.2904    1.4136   -0.3781 O   0  0  0  0  0  0  0  0  0  0  0  0
   -3.4888    4.9808   -0.8219 O   0  0  0  0  0  0  0  0  0  0  0  0
   -1.7583    0.6973   -0.5297 O   0  0  0  0  0  0  0  0  0  0  0  0
    1.2490   -2.8106    1.9750 H   0  0  0  0  0  0  0  0  0  0  0  0
   -1.2169   -3.1265    1.7796 H   0  0  0  0  0  0  0  0  0  0  0  0
    2.3080   -0.7872    0.9382 H   0  0  0  0  0  0  0  0  0  0  0  0
   -2.6110   -1.4333    0.5977 H   0  0  0  0  0  0  0  0  0  0  0  0
    0.5789    2.9823   -1.4509 H   0  0  0  0  0  0  0  0  0  0  0  0
    0.1215    1.5017   -2.3147 H   0  0  0  0  0  0  0  0  0  0  0  0
   -3.1212    6.9256   -2.6303 H   0  0  0  0  0  0  0  0  0  0  0  0
   -1.7706    7.0172   -1.5014 H   0  0  0  0  0  0  0  0  0  0  0  0
   -1.5159    6.3259   -3.1208 H   0  0  0  0  0  0  0  0  0  0  0  0
   -2.3229    2.8281    0.9715 H   0  0  0  0  0  0  0  0  0  0  0  0
   -0.9977    3.8580    0.4146 H   0  0  0  0  0  0  0  0  0  0  0  0
   -0.6359    2.3789    1.3173 H   0  0  0  0  0  0  0  0  0  0  0  0
   -3.2600    2.6208   -1.3209 H   0  0  0  0  0  0  0  0  0  0  0  0
   -2.2797    1.9591   -2.6419 H   0  0  0  0  0  0  0  0  0  0  0  0
   -1.2985    4.1117   -2.9376 H   0  0  0  0  0  0  0  0  0  0  0  0
  1  2  1  0  0  0  0
  1  3  2  0  0  0  0
  1 18  1  0  0  0  0
  2  4  2  0  0  0  0
  2 19  1  0  0  0  0
  3  5  1  0  0  0  0
  3 20  1  0  0  0  0
  4  6  1  0  0  0  0
  4 21  1  0  0  0  0
  5  6  2  0  0  0  0
  5  7  1  0  0  0  0
  6 17  1  0  0  0  0
  7  9  1  0  0  0  0
  7 15  2  0  0  0  0
  8 11  1  0  0  0  0
  8 14  1  0  0  0  0
  8 16  2  0  0  0  0
  9 10  1  0  0  0  0
  9 22  1  0  0  0  0
  9 23  1  0  0  0  0
 10 12  1  0  0  0  0
 10 13  1  0  0  0  0
 10 17  1  0  0  0  0
 11 24  1  0  0  0  0
 11 25  1  0  0  0  0
 11 26  1  0  0  0  0
 12 27  1  0  0  0  0
 12 28  1  0  0  0  0
 12 29  1  0  0  0  0
 13 14  1  0  0  0  0
 13 30  1  0  0  0  0
 13 31  1  0  0  0  0
 14 32  1  0  0  0  0
M  END
$$$$
