
  -OEChem-05262117483D

 70 71  0     1  0  0  0  0  0999 V2000
   -2.7883    3.1928   -1.3795 C   0  0  0  0  0  0  0  0  0  0  0  0
   -1.6159    3.8733   -1.0057 C   0  0  0  0  0  0  0  0  0  0  0  0
   -2.8540    1.8143   -1.2303 C   0  0  0  0  0  0  0  0  0  0  0  0
   -0.5263    3.1844   -0.4769 C   0  0  0  0  0  0  0  0  0  0  0  0
   -1.7583    1.0974   -0.7106 C   0  0  0  0  0  0  0  0  0  0  0  0
   -0.6010    1.7958   -0.3244 C   0  0  0  0  0  0  0  0  0  0  0  0
   -1.8090   -0.3689   -0.6065 C   0  0  0  0  0  0  0  0  0  0  0  0
   -0.4830   -1.0829   -0.2222 C   0  0  0  0  0  0  0  0  0  0  0  0
    0.3010   -0.1657    0.7729 C   0  0  1  0  0  0  0  0  0  0  0  0
   -0.4718    0.0247    2.0869 C   0  0  0  0  0  0  0  0  0  0  0  0
    5.0047    1.2656    4.0137 C   0  0  0  0  0  0  0  0  0  0  0  0
    4.3152   -3.6304    4.2914 C   0  0  0  0  0  0  0  0  0  0  0  0
    1.6839   -2.0267   -4.5855 C   0  0  0  0  0  0  0  0  0  0  0  0
    0.6557   -5.6627    2.2959 C   0  0  0  0  0  0  0  0  0  0  0  0
    0.3085   -1.2163   -1.5559 C   0  0  0  0  0  0  0  0  0  0  0  0
   -0.8703   -2.4634    0.3791 C   0  0  0  0  0  0  0  0  0  0  0  0
    1.7513   -0.6575    0.9762 C   0  0  0  0  0  0  0  0  0  0  0  0
    2.3662   -0.3755    2.3516 C   0  0  0  0  0  0  0  0  0  0  0  0
    4.2202    0.1315    4.6589 C   0  0  0  0  0  0  0  0  0  0  0  0
    3.6043   -2.3176    4.5876 C   0  0  0  0  0  0  0  0  0  0  0  0
    3.7543   -1.0067    2.4255 C   0  0  0  0  0  0  0  0  0  0  0  0
   -0.4295   -2.0092   -2.6443 C   0  0  0  0  0  0  0  0  0  0  0  0
    0.1159   -3.6418    0.3312 C   0  0  0  0  0  0  0  0  0  0  0  0
    4.2668   -1.1517    3.8546 N   0  3  0  0  0  0  0  0  0  0  0  0
   -2.8121   -1.0125   -0.8954 O   0  0  0  0  0  0  0  0  0  0  0  0
    1.5744   -3.7568   -2.5700 O   0  0  0  0  0  0  0  0  0  0  0  0
   -0.1520   -3.9562   -4.4446 O   0  0  0  0  0  0  0  0  0  0  0  0
    2.5103   -3.8942    1.5911 O   0  0  0  0  0  0  0  0  0  0  0  0
    0.5574   -3.0852    2.9747 O   0  0  0  0  0  0  0  0  0  0  0  0
    0.4957    1.1564    0.1769 O   0  0  0  0  0  0  0  0  0  0  0  0
    0.6777   -3.1244   -3.5650 S   0  0  0  0  0  0  0  0  0  0  0  0
    1.0571   -3.9557    1.8821 S   0  0  0  0  0  0  0  0  0  0  0  0
   -3.6328    3.7427   -1.7832 H   0  0  0  0  0  0  0  0  0  0  0  0
   -1.5575    4.9523   -1.1211 H   0  0  0  0  0  0  0  0  0  0  0  0
   -3.7398    1.2553   -1.5160 H   0  0  0  0  0  0  0  0  0  0  0  0
    0.3790    3.7019   -0.1740 H   0  0  0  0  0  0  0  0  0  0  0  0
   -0.0328    0.8499    2.6522 H   0  0  0  0  0  0  0  0  0  0  0  0
   -0.4407   -0.8756    2.7012 H   0  0  0  0  0  0  0  0  0  0  0  0
   -1.5189    0.2761    1.9041 H   0  0  0  0  0  0  0  0  0  0  0  0
    6.0479    0.9850    3.8335 H   0  0  0  0  0  0  0  0  0  0  0  0
    4.5631    1.6013    3.0734 H   0  0  0  0  0  0  0  0  0  0  0  0
    5.0095    2.1170    4.6992 H   0  0  0  0  0  0  0  0  0  0  0  0
    4.2466   -3.9029    3.2367 H   0  0  0  0  0  0  0  0  0  0  0  0
    5.3651   -3.6008    4.6048 H   0  0  0  0  0  0  0  0  0  0  0  0
    3.8279   -4.4234    4.8652 H   0  0  0  0  0  0  0  0  0  0  0  0
    2.3885   -2.6698   -5.1162 H   0  0  0  0  0  0  0  0  0  0  0  0
    1.0354   -1.5087   -5.2934 H   0  0  0  0  0  0  0  0  0  0  0  0
    2.2208   -1.3271   -3.9429 H   0  0  0  0  0  0  0  0  0  0  0  0
    1.2150   -5.8977    3.2030 H   0  0  0  0  0  0  0  0  0  0  0  0
   -0.4174   -5.7395    2.4780 H   0  0  0  0  0  0  0  0  0  0  0  0
    0.9728   -6.3067    1.4740 H   0  0  0  0  0  0  0  0  0  0  0  0
    1.2610   -1.7051   -1.3455 H   0  0  0  0  0  0  0  0  0  0  0  0
    0.5484   -0.2170   -1.9265 H   0  0  0  0  0  0  0  0  0  0  0  0
   -1.7577   -2.7852   -0.1674 H   0  0  0  0  0  0  0  0  0  0  0  0
   -1.2193   -2.3298    1.4041 H   0  0  0  0  0  0  0  0  0  0  0  0
    1.8146   -1.7273    0.7983 H   0  0  0  0  0  0  0  0  0  0  0  0
    2.3604   -0.1904    0.1969 H   0  0  0  0  0  0  0  0  0  0  0  0
    2.4145    0.7024    2.5317 H   0  0  0  0  0  0  0  0  0  0  0  0
    1.7253   -0.8157    3.1162 H   0  0  0  0  0  0  0  0  0  0  0  0
    3.1674    0.3811    4.7934 H   0  0  0  0  0  0  0  0  0  0  0  0
    4.6362   -0.1151    5.6382 H   0  0  0  0  0  0  0  0  0  0  0  0
    3.6457   -2.0789    5.6516 H   0  0  0  0  0  0  0  0  0  0  0  0
    2.5600   -2.3481    4.2764 H   0  0  0  0  0  0  0  0  0  0  0  0
    3.7351   -2.0168    2.0144 H   0  0  0  0  0  0  0  0  0  0  0  0
    4.4975   -0.4216    1.8802 H   0  0  0  0  0  0  0  0  0  0  0  0
   -1.1800   -2.6974   -2.2510 H   0  0  0  0  0  0  0  0  0  0  0  0
   -0.9364   -1.3776   -3.3772 H   0  0  0  0  0  0  0  0  0  0  0  0
   -0.4426   -4.5693    0.1762 H   0  0  0  0  0  0  0  0  0  0  0  0
    0.8729   -3.6032   -0.4549 H   0  0  0  0  0  0  0  0  0  0  0  0
    5.2577   -1.3999    3.7714 H   0  0  0  0  0  0  0  0  0  0  0  0
  1  2  1  0  0  0  0
  1  3  2  0  0  0  0
  1 33  1  0  0  0  0
  2  4  2  0  0  0  0
  2 34  1  0  0  0  0
  3  5  1  0  0  0  0
  3 35  1  0  0  0  0
  4  6  1  0  0  0  0
  4 36  1  0  0  0  0
  5  6  2  0  0  0  0
  5  7  1  0  0  0  0
  6 30  1  0  0  0  0
  7  8  1  0  0  0  0
  7 25  2  0  0  0  0
  8  9  1  0  0  0  0
  8 15  1  0  0  0  0
  8 16  1  0  0  0  0
  9 10  1  0  0  0  0
  9 17  1  0  0  0  0
  9 30  1  0  0  0  0
 10 37  1  0  0  0  0
 10 38  1  0  0  0  0
 10 39  1  0  0  0  0
 11 19  1  0  0  0  0
 11 40  1  0  0  0  0
 11 41  1  0  0  0  0
 11 42  1  0  0  0  0
 12 20  1  0  0  0  0
 12 43  1  0  0  0  0
 12 44  1  0  0  0  0
 12 45  1  0  0  0  0
 13 31  1  0  0  0  0
 13 46  1  0  0  0  0
 13 47  1  0  0  0  0
 13 48  1  0  0  0  0
 14 32  1  0  0  0  0
 14 49  1  0  0  0  0
 14 50  1  0  0  0  0
 14 51  1  0  0  0  0
 15 22  1  0  0  0  0
 15 52  1  0  0  0  0
 15 53  1  0  0  0  0
 16 23  1  0  0  0  0
 16 54  1  0  0  0  0
 16 55  1  0  0  0  0
 17 18  1  0  0  0  0
 17 56  1  0  0  0  0
 17 57  1  0  0  0  0
 18 21  1  0  0  0  0
 18 58  1  0  0  0  0
 18 59  1  0  0  0  0
 19 24  1  0  0  0  0
 19 60  1  0  0  0  0
 19 61  1  0  0  0  0
 20 24  1  0  0  0  0
 20 62  1  0  0  0  0
 20 63  1  0  0  0  0
 21 24  1  0  0  0  0
 21 64  1  0  0  0  0
 21 65  1  0  0  0  0
 22 31  1  0  0  0  0
 22 66  1  0  0  0  0
 22 67  1  0  0  0  0
 23 32  1  0  0  0  0
 23 68  1  0  0  0  0
 23 69  1  0  0  0  0
 24 70  1  0  0  0  0
 26 31  2  0  0  0  0
 27 31  2  0  0  0  0
 28 32  2  0  0  0  0
 29 32  2  0  0  0  0
M  CHG  1  24   1
M  END
$$$$
