69
0 1 C23H37NO6S2
C                    -1.497560525769     3.175275146575    -1.370841856448
C                    -0.407842760714     3.650073038139    -0.618499677945
C                    -1.775635159400     1.815297192427    -1.383349584251
C                     0.385370345570     2.778154458085     0.122288260128
C                    -0.974832752314     0.915620780541    -0.655221946355
C                     0.097746910259     1.407479488254     0.107810664866
C                    -1.219391777971    -0.534106861520    -0.722509114737
C                    -0.080927843426    -1.428718237859    -0.170521826237
C                     0.423189608921    -0.753357452607     1.153823197249
C                    -0.703611667367    -0.639053370608     2.195171884495
C                     4.475307620543    -1.000748052600     7.040996095017
C                     5.556498176399     0.833425393650     3.156840893309
C                     2.796753015583    -3.186798160258    -3.620147527115
C                     1.248899879303    -6.603855067610    -0.213772543311
C                     1.041430947843    -1.426904318924    -1.250632998169
C                    -0.677233956159    -2.841264137521     0.031536839755
C                     1.658888009097    -1.432260153224     1.767934075204
C                     2.267443378316    -0.713514901358     2.978557386794
C                     3.568398112910    -1.053384293725     5.808111017855
C                     4.690730694032     0.579101397423     4.391644767037
C                     3.593131088430    -1.383430712409     3.390629617531
C                     0.544298592343    -1.686418448191    -2.672771213753
C                     0.306258468994    -3.978917171491     0.366851894918
N                     4.288014311088    -0.823376874055     4.550519551036
O                    -2.221319864000    -1.010080690681    -1.243585887045
O                     1.312568311664    -1.673601014133    -5.220677952796
O                     2.814272871796    -0.530547779646    -3.495488738295
O                    -1.290143003875    -5.904486988715    -0.619561355599
O                     0.517200459280    -4.900822402377    -2.117791184704
O                     0.899874366497     0.591997276711     0.842519028843
S                     1.908416500897    -1.633039009424    -3.875157125335
S                     0.065881112783    -5.364040012700    -0.788809912674
H                    -2.108814074333     3.867004012674    -1.942622436418
H                    -0.180796981847     4.712976663665    -0.608432880570
H                    -2.599611099100     1.409220692948    -1.962482933394
H                     1.222729277471     3.134343596253     0.714725521230
H                    -0.402653162143     0.053420984470     2.983078819760
H                    -0.903223232725    -1.610283505639     2.655581945127
H                    -1.638516099390    -0.272238285257     1.765586301132
H                     5.321095488143    -1.684465662573     6.918993098448
H                     4.871151631970     0.002234096223     7.224995440380
H                     3.912315684480    -1.296780563589     7.932967639090
H                     6.398836221344     0.134690469995     3.127129175170
H                     4.994710520665     0.735396431937     2.222858960042
H                     5.956453714833     1.852053137675     3.189589363665
H                     3.563100742108    -3.210669455358    -4.397423831978
H                     3.261383333263    -3.178166512645    -2.633379876036
H                     2.102468075387    -4.020140346083    -3.721069140798
H                     1.157995659011    -7.445709756799    -0.902707078565
H                     2.257022995312    -6.188450957234    -0.255103230836
H                     0.980392944269    -6.913128597846     0.797464828209
H                     1.782881130028    -2.186787426140    -0.992403912258
H                     1.568478378994    -0.472103569920    -1.234760454738
H                    -1.220238890141    -3.077111022419    -0.885329703316
H                    -1.453067681612    -2.808356898127     0.796780385113
H                     1.384280777388    -2.446895996043     2.068894601885
H                     2.430386106287    -1.519053867821     0.995965359554
H                     2.438496673100     0.335890175539     2.727054878786
H                     1.570608671815    -0.733010027929     3.822634085799
H                     2.730271514212    -0.343722696770     5.942440885332
H                     3.122036162024    -2.052686941109     5.750811645982
H                     3.816658526776     1.257552842174     4.374932271203
H                     5.270837348236     0.853160745507     5.276976438892
H                     4.279076354538    -1.364879140555     2.536752064450
H                     3.409849630162    -2.444481244011     3.604594273337
H                     0.059711377474    -2.655354938687    -2.801137751492
H                    -0.128196714189    -0.904368239914    -3.033980365071
H                     1.355906321811    -3.707784665517     0.259082003156
H                     0.150032709069    -4.382363152223     1.370376990143
