
  -OEChem-05262117483D

 34 35  0     1  0  0  0  0  0999 V2000
   -1.0171    0.3873   -0.5098 C   0  0  0  0  0  0  0  0  0  0  0  0
   -2.2922    0.2456   -1.0567 C   0  0  0  0  0  0  0  0  0  0  0  0
   -0.8112    2.6016   -1.5002 C   0  0  0  0  0  0  0  0  0  0  0  0
   -0.2688    1.5606   -0.7250 C   0  0  0  0  0  0  0  0  0  0  0  0
   -2.8220    1.2905   -1.8179 C   0  0  0  0  0  0  0  0  0  0  0  0
   -2.0871    2.4617   -2.0440 C   0  0  0  0  0  0  0  0  0  0  0  0
    1.0948    1.6533   -0.1076 C   0  0  0  0  0  0  0  0  0  0  0  0
   -5.2292    0.1415   -4.4100 C   0  0  0  0  0  0  0  0  0  0  0  0
   -2.8700    3.4238   -2.9149 C   0  0  0  0  0  0  0  0  0  0  0  0
   -4.3111    2.8624   -2.8474 C   0  0  0  0  0  0  0  0  0  0  0  0
   -4.1547    1.3512   -2.5349 C   0  0  1  0  0  0  0  0  0  0  0  0
    1.9096    2.9176   -0.3206 C   0  0  0  0  0  0  0  0  0  0  0  0
   -5.9934   -1.8975   -5.6990 C   0  0  0  0  0  0  0  0  0  0  0  0
   -5.0136   -0.7192   -5.6505 C   0  0  0  0  0  0  0  0  0  0  0  0
   -4.0975    0.5120   -3.7372 N   0  0  0  0  0  0  0  0  0  0  0  0
    1.5468    0.7270    0.5567 O   0  0  0  0  0  0  0  0  0  0  0  0
   -6.3499    0.4942   -4.0406 O   0  0  0  0  0  0  0  0  0  0  0  0
   -0.5745   -0.3968    0.0962 H   0  0  0  0  0  0  0  0  0  0  0  0
   -2.8676   -0.6614   -0.8859 H   0  0  0  0  0  0  0  0  0  0  0  0
   -0.2465    3.5132   -1.6747 H   0  0  0  0  0  0  0  0  0  0  0  0
   -2.8055    4.4592   -2.5668 H   0  0  0  0  0  0  0  0  0  0  0  0
   -2.4814    3.4074   -3.9411 H   0  0  0  0  0  0  0  0  0  0  0  0
   -4.8478    3.3321   -2.0168 H   0  0  0  0  0  0  0  0  0  0  0  0
   -4.8950    3.0251   -3.7545 H   0  0  0  0  0  0  0  0  0  0  0  0
   -4.9880    0.9855   -1.9299 H   0  0  0  0  0  0  0  0  0  0  0  0
    1.3810    3.7943    0.0690 H   0  0  0  0  0  0  0  0  0  0  0  0
    2.0910    3.0915   -1.3868 H   0  0  0  0  0  0  0  0  0  0  0  0
    2.8646    2.8128    0.1953 H   0  0  0  0  0  0  0  0  0  0  0  0
   -5.8143   -2.5925   -4.8720 H   0  0  0  0  0  0  0  0  0  0  0  0
   -7.0210   -1.5358   -5.6184 H   0  0  0  0  0  0  0  0  0  0  0  0
   -5.8865   -2.4497   -6.6378 H   0  0  0  0  0  0  0  0  0  0  0  0
   -5.1775   -0.0689   -6.5183 H   0  0  0  0  0  0  0  0  0  0  0  0
   -3.9775   -1.0724   -5.7085 H   0  0  0  0  0  0  0  0  0  0  0  0
   -3.1946    0.1917   -4.0610 H   0  0  0  0  0  0  0  0  0  0  0  0
  1  2  1  0  0  0  0
  1  4  2  0  0  0  0
  1 18  1  0  0  0  0
  2  5  2  0  0  0  0
  2 19  1  0  0  0  0
  3  4  1  0  0  0  0
  3  6  2  0  0  0  0
  3 20  1  0  0  0  0
  4  7  1  0  0  0  0
  5  6  1  0  0  0  0
  5 11  1  0  0  0  0
  6  9  1  0  0  0  0
  7 12  1  0  0  0  0
  7 16  2  0  0  0  0
  8 14  1  0  0  0  0
  8 15  1  0  0  0  0
  8 17  2  0  0  0  0
  9 10  1  0  0  0  0
  9 21  1  0  0  0  0
  9 22  1  0  0  0  0
 10 11  1  0  0  0  0
 10 23  1  0  0  0  0
 10 24  1  0  0  0  0
 11 15  1  0  0  0  0
 11 25  1  0  0  0  0
 12 26  1  0  0  0  0
 12 27  1  0  0  0  0
 12 28  1  0  0  0  0
 13 14  1  0  0  0  0
 13 29  1  0  0  0  0
 13 30  1  0  0  0  0
 13 31  1  0  0  0  0
 14 32  1  0  0  0  0
 14 33  1  0  0  0  0
 15 34  1  0  0  0  0
M  END
$$$$
