
  -OEChem-05262117483D

 69 70  0     1  0  0  0  0  0999 V2000
   -1.5284    2.8883   -1.0192 C   0  0  0  0  0  0  0  0  0  0  0  0
   -0.5171    3.4347   -0.2084 C   0  0  0  0  0  0  0  0  0  0  0  0
   -1.6462    1.5086   -1.1236 C   0  0  0  0  0  0  0  0  0  0  0  0
    0.3544    2.6116    0.4996 C   0  0  0  0  0  0  0  0  0  0  0  0
   -0.7668    0.6587   -0.4274 C   0  0  0  0  0  0  0  0  0  0  0  0
    0.2259    1.2197    0.3972 C   0  0  0  0  0  0  0  0  0  0  0  0
   -0.8463   -0.8050   -0.5982 C   0  0  0  0  0  0  0  0  0  0  0  0
    0.3213   -1.6154    0.0111 C   0  0  0  0  0  0  0  0  0  0  0  0
    0.7284   -0.9351    1.3609 C   0  0  1  0  0  0  0  0  0  0  0  0
   -0.4390   -0.9341    2.3659 C   0  0  0  0  0  0  0  0  0  0  0  0
    2.3049   -5.0673    4.9537 C   0  0  0  0  0  0  0  0  0  0  0  0
    5.7672   -3.7187    5.0063 C   0  0  0  0  0  0  0  0  0  0  0  0
    1.9396   -3.9418   -4.4191 C   0  0  0  0  0  0  0  0  0  0  0  0
    2.0425   -6.5584   -0.7043 C   0  0  0  0  0  0  0  0  0  0  0  0
    1.4723   -1.4992   -1.0331 C   0  0  0  0  0  0  0  0  0  0  0  0
   -0.1498   -3.0816    0.1977 C   0  0  0  0  0  0  0  0  0  0  0  0
    1.9848   -1.5535    1.9792 C   0  0  0  0  0  0  0  0  0  0  0  0
    2.4300   -0.9775    3.3265 C   0  0  0  0  0  0  0  0  0  0  0  0
    2.6672   -3.5820    4.9970 C   0  0  0  0  0  0  0  0  0  0  0  0
    4.8118   -3.8707    3.8096 C   0  0  0  0  0  0  0  0  0  0  0  0
    3.6867   -1.6993    3.8383 C   0  0  0  0  0  0  0  0  0  0  0  0
    1.1259   -2.1317   -2.3901 C   0  0  0  0  0  0  0  0  0  0  0  0
    0.9532   -4.1472    0.3142 C   0  0  0  0  0  0  0  0  0  0  0  0
    3.5308   -3.1579    3.8908 N   0  0  0  0  0  0  0  0  0  0  0  0
   -1.7295   -1.3394   -1.2605 O   0  0  0  0  0  0  0  0  0  0  0  0
    3.4700   -1.8670   -3.6934 O   0  0  0  0  0  0  0  0  0  0  0  0
    3.1797   -3.8077   -2.0726 O   0  0  0  0  0  0  0  0  0  0  0  0
   -0.4901   -6.4145    0.1509 O   0  0  0  0  0  0  0  0  0  0  0  0
    0.1527   -5.2228   -2.0069 O   0  0  0  0  0  0  0  0  0  0  0  0
    1.1029    0.4562    1.0992 O   0  0  0  0  0  0  0  0  0  0  0  0
    2.6084   -2.9068   -3.1043 S   0  0  0  0  0  0  0  0  0  0  0  0
    0.4926   -5.6395   -0.6261 S   0  0  0  0  0  0  0  0  0  0  0  0
   -2.2060    3.5411   -1.5615 H   0  0  0  0  0  0  0  0  0  0  0  0
   -0.4157    4.5137   -0.1241 H   0  0  0  0  0  0  0  0  0  0  0  0
   -2.4058    1.0497   -1.7494 H   0  0  0  0  0  0  0  0  0  0  0  0
    1.1311    3.0210    1.1386 H   0  0  0  0  0  0  0  0  0  0  0  0
   -0.2565   -0.1790    3.1325 H   0  0  0  0  0  0  0  0  0  0  0  0
   -0.5239   -1.9042    2.8616 H   0  0  0  0  0  0  0  0  0  0  0  0
   -1.4006   -0.7106    1.8980 H   0  0  0  0  0  0  0  0  0  0  0  0
    1.9074   -5.3389    3.9697 H   0  0  0  0  0  0  0  0  0  0  0  0
    3.1627   -5.7128    5.1644 H   0  0  0  0  0  0  0  0  0  0  0  0
    1.5387   -5.2867    5.7042 H   0  0  0  0  0  0  0  0  0  0  0  0
    6.0308   -2.6709    5.1826 H   0  0  0  0  0  0  0  0  0  0  0  0
    5.3321   -4.1165    5.9288 H   0  0  0  0  0  0  0  0  0  0  0  0
    6.6954   -4.2682    4.8150 H   0  0  0  0  0  0  0  0  0  0  0  0
    2.7999   -4.4191   -4.8922 H   0  0  0  0  0  0  0  0  0  0  0  0
    1.2724   -4.6768   -3.9669 H   0  0  0  0  0  0  0  0  0  0  0  0
    1.4209   -3.3030   -5.1362 H   0  0  0  0  0  0  0  0  0  0  0  0
    1.8156   -7.4846   -1.2358 H   0  0  0  0  0  0  0  0  0  0  0  0
    2.7692   -5.9536   -1.2485 H   0  0  0  0  0  0  0  0  0  0  0  0
    2.3711   -6.7788    0.3131 H   0  0  0  0  0  0  0  0  0  0  0  0
    2.3617   -1.9823   -0.6298 H   0  0  0  0  0  0  0  0  0  0  0  0
    1.7411   -0.4517   -1.1742 H   0  0  0  0  0  0  0  0  0  0  0  0
   -0.7901   -3.3095   -0.6558 H   0  0  0  0  0  0  0  0  0  0  0  0
   -0.8096   -3.1483    1.0630 H   0  0  0  0  0  0  0  0  0  0  0  0
    1.8246   -2.6226    2.1139 H   0  0  0  0  0  0  0  0  0  0  0  0
    2.8167   -1.4486    1.2769 H   0  0  0  0  0  0  0  0  0  0  0  0
    2.6570    0.0892    3.2286 H   0  0  0  0  0  0  0  0  0  0  0  0
    1.6281   -1.0558    4.0664 H   0  0  0  0  0  0  0  0  0  0  0  0
    3.1055   -3.3360    5.9820 H   0  0  0  0  0  0  0  0  0  0  0  0
    1.7405   -3.0037    4.9283 H   0  0  0  0  0  0  0  0  0  0  0  0
    4.6025   -4.9328    3.6482 H   0  0  0  0  0  0  0  0  0  0  0  0
    5.3139   -3.5231    2.8999 H   0  0  0  0  0  0  0  0  0  0  0  0
    3.9701   -1.2734    4.8176 H   0  0  0  0  0  0  0  0  0  0  0  0
    4.5131   -1.4820    3.1520 H   0  0  0  0  0  0  0  0  0  0  0  0
    0.3975   -2.9388   -2.3163 H   0  0  0  0  0  0  0  0  0  0  0  0
    0.7736   -1.3991   -3.1190 H   0  0  0  0  0  0  0  0  0  0  0  0
    1.9074   -3.8445   -0.1149 H   0  0  0  0  0  0  0  0  0  0  0  0
    1.1171   -4.4895    1.3377 H   0  0  0  0  0  0  0  0  0  0  0  0
  1  2  1  0  0  0  0
  1  3  2  0  0  0  0
  1 33  1  0  0  0  0
  2  4  2  0  0  0  0
  2 34  1  0  0  0  0
  3  5  1  0  0  0  0
  3 35  1  0  0  0  0
  4  6  1  0  0  0  0
  4 36  1  0  0  0  0
  5  6  2  0  0  0  0
  5  7  1  0  0  0  0
  6 30  1  0  0  0  0
  7  8  1  0  0  0  0
  7 25  2  0  0  0  0
  8  9  1  0  0  0  0
  8 15  1  0  0  0  0
  8 16  1  0  0  0  0
  9 10  1  0  0  0  0
  9 17  1  0  0  0  0
  9 30  1  0  0  0  0
 10 37  1  0  0  0  0
 10 38  1  0  0  0  0
 10 39  1  0  0  0  0
 11 19  1  0  0  0  0
 11 40  1  0  0  0  0
 11 41  1  0  0  0  0
 11 42  1  0  0  0  0
 12 20  1  0  0  0  0
 12 43  1  0  0  0  0
 12 44  1  0  0  0  0
 12 45  1  0  0  0  0
 13 31  1  0  0  0  0
 13 46  1  0  0  0  0
 13 47  1  0  0  0  0
 13 48  1  0  0  0  0
 14 32  1  0  0  0  0
 14 49  1  0  0  0  0
 14 50  1  0  0  0  0
 14 51  1  0  0  0  0
 15 22  1  0  0  0  0
 15 52  1  0  0  0  0
 15 53  1  0  0  0  0
 16 23  1  0  0  0  0
 16 54  1  0  0  0  0
 16 55  1  0  0  0  0
 17 18  1  0  0  0  0
 17 56  1  0  0  0  0
 17 57  1  0  0  0  0
 18 21  1  0  0  0  0
 18 58  1  0  0  0  0
 18 59  1  0  0  0  0
 19 24  1  0  0  0  0
 19 60  1  0  0  0  0
 19 61  1  0  0  0  0
 20 24  1  0  0  0  0
 20 62  1  0  0  0  0
 20 63  1  0  0  0  0
 21 24  1  0  0  0  0
 21 64  1  0  0  0  0
 21 65  1  0  0  0  0
 22 31  1  0  0  0  0
 22 66  1  0  0  0  0
 22 67  1  0  0  0  0
 23 32  1  0  0  0  0
 23 68  1  0  0  0  0
 23 69  1  0  0  0  0
 26 31  2  0  0  0  0
 27 31  2  0  0  0  0
 28 32  2  0  0  0  0
 29 32  2  0  0  0  0
M  END
$$$$
