39
0 1 C15H17N3O3S
C                     2.986047017069     3.751916859530     0.023341514628
C                     1.764016327600     3.966909161603     0.668755627059
C                     3.019014312785     3.255386051516    -1.285411656894
C                     0.565787436389     3.675823028756     0.011101767456
C                     1.829164847452     2.963259662108    -1.953549099135
C                    -2.634390038289    -2.553117652872     0.003002943084
C                    -3.276558235919    -0.561855887843     0.237866457972
C                     0.618943456537     3.171543981564    -1.289865365760
C                     0.329452443723     0.218126100098     0.168657333836
C                     1.621969352441    -0.901074037693     2.038418127424
C                     1.852339512506     0.569153040491     2.150391686528
C                     0.496104359976     0.055343485276     1.641857996353
C                    -0.699827235378     0.165096548011     2.570417778832
C                    -1.041499566252     0.924305298249    -1.866763316904
C                    -1.082195939639     0.555035005269    -0.382114498113
N                    -3.728002156023    -1.803522295684     0.337316620336
N                    -1.545113607027    -1.853189646278    -0.294274647796
N                    -1.972995123352    -0.568632568246    -0.134825770024
O                     1.266894814940     0.132485055177    -0.608851025818
O                    -2.019704685553     3.325708474543    -1.335350337811
O                    -0.776683012542     2.957712884795    -3.553773665680
S                    -0.914748442493     2.725621845733    -2.109394465314
H                     3.915953841304     3.975680305621     0.539399205138
H                     1.741985627257     4.362548863001     1.680371339117
H                     3.970501031297     3.094101738464    -1.783893647120
H                    -0.395760951772     3.853523175606     0.482517068329
H                     1.835248019953     2.580819767636    -2.969223351686
H                    -2.638560965437    -3.635092586941    -0.021376007590
H                    -3.833019326144     0.348846412779     0.420946865942
H                     2.107519267658    -1.427759151790     1.224186837889
H                     1.453095849715    -1.477552531229     2.942971378275
H                     1.842743714599     1.030560182115     3.133542252619
H                     2.491195134882     1.040053441355     1.411850116299
H                    -0.364351072213     0.123246457178     3.610646764143
H                    -1.408517252390    -0.654015104808     2.423165673751
H                    -1.234266536605     1.113779029482     2.447243707804
H                    -1.983775156356     0.673614098282    -2.360205206413
H                    -0.206926948160     0.449511645395    -2.382659947038
H                    -1.494167198073     1.392931237251     0.187738881958
