70
1 1 C23H38NO6S2
C                    -0.961207317574     3.501273031507    -0.353207251045
C                     0.016103063608     3.674795758204     0.640523229104
C                    -1.269078200112     2.219981040366    -0.794995237543
C                     0.672241724812     2.576783494921     1.197635503638
C                    -0.607632775211     1.101968471487    -0.256149329513
C                     0.355420878693     1.293088891073     0.748794844363
C                    -0.886271458831    -0.257096572596    -0.763508161613
C                     0.085869591267    -1.364837224429    -0.270370945883
C                     0.394147739170    -1.073017318586     1.240571577234
C                    -0.862976464171    -1.061905687267     2.120122210317
C                     5.498100327889     0.136627316796     0.345014005584
C                     6.833215197716    -2.041146136489     2.779732972537
C                     3.598424130562    -4.221997982944    -2.972729817470
C                     0.329058376038    -6.824673631940    -0.427880801936
C                     1.386423744004    -1.112719341535    -1.134599617963
C                    -0.631373231246    -2.710363661168    -0.524296762717
C                     1.434056291804    -2.054563001323     1.824735877621
C                     2.304510633225    -1.536484541799     2.987001261166
C                     4.602373075566    -0.280173048818     1.504410518382
C                     5.858300512895    -2.492190231460     1.700917903763
C                     3.715986568318    -2.127477445456     2.960569113498
C                     1.775784884800    -2.141517485249    -2.213498884124
C                     0.071710005050    -4.004421158207    -0.073158437161
N                     4.516718234994    -1.781257646096     1.718035553545
O                    -1.762218194022    -0.494308152603    -1.581135694611
O                     4.449165604864    -1.821218727749    -2.107729335136
O                     3.378160800128    -3.373932023327    -0.445899635216
O                    -1.755789881561    -5.470337876339    -1.403381672229
O                     0.552004608471    -5.097496552664    -2.433441586085
O                     1.030801301711     0.238349046421     1.312698441632
S                     3.411998867528    -2.837120584710    -1.848227234067
S                    -0.303754624687    -5.346748861585    -1.246499039341
H                    -1.471298445073     4.363137255142    -0.772035349644
H                     0.258634313944     4.673913944996     0.991943708005
H                    -2.014521119603     2.050099502679    -1.566079655740
H                     1.411150348230     2.699927291720     1.984109088343
H                    -0.587136186060    -0.794498059678     3.143934790318
H                    -1.327110254875    -2.050900719310     2.141593443346
H                    -1.613040820538    -0.346892076671     1.777317879429
H                     6.556645745160    -0.044609363687     0.544465965803
H                     5.220369521859    -0.360489390935    -0.586724814280
H                     5.373925408127     1.213870395872     0.201918365238
H                     7.061611833708    -0.974643899551     2.716383358862
H                     6.480693638626    -2.266246231296     3.788730511553
H                     7.771359977596    -2.583924138117     2.635844857568
H                     4.549583187837    -4.693791730191    -2.719543663373
H                     2.753323955205    -4.897793974118    -2.831922625139
H                     3.627936401810    -3.825861442355    -3.989180584659
H                     0.207041329815    -7.639461150225    -1.144219112426
H                     1.384776156051    -6.679984427342    -0.192243291293
H                    -0.264522183012    -7.017820054103     0.466753387233
H                     2.227768147609    -0.947940924279    -0.461439183304
H                     1.279889745618    -0.153321656560    -1.643050634783
H                    -0.854864383911    -2.749825707543    -1.592127139202
H                    -1.617269094621    -2.673414375734    -0.060353137136
H                     0.905106526791    -2.947060404666     2.162006258452
H                     2.077911008956    -2.390983274841     1.017614898844
H                     2.347591955382    -0.448534440299     2.995608577210
H                     1.874201812785    -1.826294124586     3.950762933010
H                     3.579405554528     0.054716473783     1.330334013026
H                     4.938885526462     0.149398580142     2.450860607580
H                     5.626502368127    -3.555493221735     1.792203539113
H                     6.266285294188    -2.334721079718     0.702556636178
H                     4.293385470360    -1.772010904061     3.814982738969
H                     3.683864802532    -3.219696318971     2.998013348959
H                     1.107259878462    -2.994210422227    -2.324847082767
H                     1.889559657294    -1.673411108307    -3.194223765382
H                     1.159611115325    -3.950543059879    -0.059253035925
H                    -0.282712247454    -4.340411697495     0.904136899513
H                     4.024213026191    -2.193681303419     0.903938214637
