
  -OEChem-05262117483D

 70 71  0     1  0  0  0  0  0999 V2000
   -1.0471    3.2575   -0.4544 C   0  0  0  0  0  0  0  0  0  0  0  0
    0.0036    3.6929    0.3711 C   0  0  0  0  0  0  0  0  0  0  0  0
   -1.3026    1.8975   -0.5742 C   0  0  0  0  0  0  0  0  0  0  0  0
    0.7828    2.7789    1.0792 C   0  0  0  0  0  0  0  0  0  0  0  0
   -0.5153    0.9587    0.1183 C   0  0  0  0  0  0  0  0  0  0  0  0
    0.5175    1.4120    0.9543 C   0  0  0  0  0  0  0  0  0  0  0  0
   -0.7432   -0.4871   -0.0543 C   0  0  0  0  0  0  0  0  0  0  0  0
    0.3635   -1.4179    0.5012 C   0  0  0  0  0  0  0  0  0  0  0  0
    0.8318   -0.8119    1.8715 C   0  0  1  0  0  0  0  0  0  0  0  0
   -0.3121   -0.7728    2.8972 C   0  0  0  0  0  0  0  0  0  0  0  0
    6.7974   -2.3518    5.1468 C   0  0  0  0  0  0  0  0  0  0  0  0
    6.0352    1.2363    5.8755 C   0  0  0  0  0  0  0  0  0  0  0  0
    2.3516    0.2601   -3.4758 C   0  0  0  0  0  0  0  0  0  0  0  0
   -1.2623   -5.9826    0.3338 C   0  0  0  0  0  0  0  0  0  0  0  0
    1.5221   -1.3623   -0.5350 C   0  0  0  0  0  0  0  0  0  0  0  0
   -0.2465   -2.8352    0.6005 C   0  0  0  0  0  0  0  0  0  0  0  0
    2.0665   -1.5241    2.4577 C   0  0  0  0  0  0  0  0  0  0  0  0
    2.7030   -0.8121    3.6630 C   0  0  0  0  0  0  0  0  0  0  0  0
    5.6217   -1.8073    5.9448 C   0  0  0  0  0  0  0  0  0  0  0  0
    5.4713    0.4265    4.7167 C   0  0  0  0  0  0  0  0  0  0  0  0
    4.0214   -1.5021    4.0060 C   0  0  0  0  0  0  0  0  0  0  0  0
    1.1629   -1.8356   -1.9447 C   0  0  0  0  0  0  0  0  0  0  0  0
    0.7025   -3.9785    0.9746 C   0  0  0  0  0  0  0  0  0  0  0  0
    4.7459   -0.8326    5.1647 N   0  3  0  0  0  0  0  0  0  0  0  0
   -1.7067   -0.9310   -0.6650 O   0  0  0  0  0  0  0  0  0  0  0  0
    3.7999   -1.6313   -2.2919 O   0  0  0  0  0  0  0  0  0  0  0  0
    2.3501   -2.2620   -4.3070 O   0  0  0  0  0  0  0  0  0  0  0  0
    0.5117   -5.0831   -1.4324 O   0  0  0  0  0  0  0  0  0  0  0  0
    1.3447   -6.5097    0.5270 O   0  0  0  0  0  0  0  0  0  0  0  0
    1.3141    0.5479    1.6565 O   0  0  0  0  0  0  0  0  0  0  0  0
    2.5539   -1.4941   -3.0740 S   0  0  0  0  0  0  0  0  0  0  0  0
    0.4387   -5.4882   -0.0179 S   0  0  0  0  0  0  0  0  0  0  0  0
   -1.6511    3.9798   -0.9948 H   0  0  0  0  0  0  0  0  0  0  0  0
    0.2095    4.7554    0.4684 H   0  0  0  0  0  0  0  0  0  0  0  0
   -2.1014    1.5243   -1.2081 H   0  0  0  0  0  0  0  0  0  0  0  0
    1.5876    3.1083    1.7298 H   0  0  0  0  0  0  0  0  0  0  0  0
   -0.0286   -0.1561    3.7533 H   0  0  0  0  0  0  0  0  0  0  0  0
   -0.5443   -1.7778    3.2588 H   0  0  0  0  0  0  0  0  0  0  0  0
   -1.2273   -0.3489    2.4788 H   0  0  0  0  0  0  0  0  0  0  0  0
    6.4819   -2.8696    4.2379 H   0  0  0  0  0  0  0  0  0  0  0  0
    7.5191   -1.5758    4.8822 H   0  0  0  0  0  0  0  0  0  0  0  0
    7.3194   -3.0803    5.7726 H   0  0  0  0  0  0  0  0  0  0  0  0
    5.2652    1.4830    6.6143 H   0  0  0  0  0  0  0  0  0  0  0  0
    6.8624    0.7329    6.3805 H   0  0  0  0  0  0  0  0  0  0  0  0
    6.4203    2.1795    5.4797 H   0  0  0  0  0  0  0  0  0  0  0  0
    3.2100    0.5233   -4.0965 H   0  0  0  0  0  0  0  0  0  0  0  0
    1.4248    0.3894   -4.0364 H   0  0  0  0  0  0  0  0  0  0  0  0
    2.3528    0.8549   -2.5610 H   0  0  0  0  0  0  0  0  0  0  0  0
   -1.4379   -6.8812   -0.2609 H   0  0  0  0  0  0  0  0  0  0  0  0
   -1.3552   -6.2096    1.3970 H   0  0  0  0  0  0  0  0  0  0  0  0
   -1.9442   -5.1897    0.0244 H   0  0  0  0  0  0  0  0  0  0  0  0
    2.3627   -1.9730   -0.2053 H   0  0  0  0  0  0  0  0  0  0  0  0
    1.9024   -0.3388   -0.5674 H   0  0  0  0  0  0  0  0  0  0  0  0
   -0.6773   -3.0329   -0.3822 H   0  0  0  0  0  0  0  0  0  0  0  0
   -1.0976   -2.8205    1.2848 H   0  0  0  0  0  0  0  0  0  0  0  0
    1.7890   -2.5387    2.7475 H   0  0  0  0  0  0  0  0  0  0  0  0
    2.8272   -1.6045    1.6784 H   0  0  0  0  0  0  0  0  0  0  0  0
    2.8606    0.2376    3.4067 H   0  0  0  0  0  0  0  0  0  0  0  0
    2.0342   -0.8490    4.5312 H   0  0  0  0  0  0  0  0  0  0  0  0
    5.9558   -1.2795    6.8388 H   0  0  0  0  0  0  0  0  0  0  0  0
    4.9525   -2.6101    6.2622 H   0  0  0  0  0  0  0  0  0  0  0  0
    6.2484    0.1067    4.0221 H   0  0  0  0  0  0  0  0  0  0  0  0
    4.7394    1.0086    4.1562 H   0  0  0  0  0  0  0  0  0  0  0  0
    3.8501   -2.5403    4.2993 H   0  0  0  0  0  0  0  0  0  0  0  0
    4.7095   -1.4980    3.1592 H   0  0  0  0  0  0  0  0  0  0  0  0
    1.0254   -2.9192   -2.0088 H   0  0  0  0  0  0  0  0  0  0  0  0
    0.2808   -1.3515   -2.3706 H   0  0  0  0  0  0  0  0  0  0  0  0
    1.7512   -3.7732    0.7503 H   0  0  0  0  0  0  0  0  0  0  0  0
    0.6328   -4.2895    2.0198 H   0  0  0  0  0  0  0  0  0  0  0  0
    4.0199   -0.5275    5.8216 H   0  0  0  0  0  0  0  0  0  0  0  0
  1  2  1  0  0  0  0
  1  3  2  0  0  0  0
  1 33  1  0  0  0  0
  2  4  2  0  0  0  0
  2 34  1  0  0  0  0
  3  5  1  0  0  0  0
  3 35  1  0  0  0  0
  4  6  1  0  0  0  0
  4 36  1  0  0  0  0
  5  6  2  0  0  0  0
  5  7  1  0  0  0  0
  6 30  1  0  0  0  0
  7  8  1  0  0  0  0
  7 25  2  0  0  0  0
  8  9  1  0  0  0  0
  8 15  1  0  0  0  0
  8 16  1  0  0  0  0
  9 10  1  0  0  0  0
  9 17  1  0  0  0  0
  9 30  1  0  0  0  0
 10 37  1  0  0  0  0
 10 38  1  0  0  0  0
 10 39  1  0  0  0  0
 11 19  1  0  0  0  0
 11 40  1  0  0  0  0
 11 41  1  0  0  0  0
 11 42  1  0  0  0  0
 12 20  1  0  0  0  0
 12 43  1  0  0  0  0
 12 44  1  0  0  0  0
 12 45  1  0  0  0  0
 13 31  1  0  0  0  0
 13 46  1  0  0  0  0
 13 47  1  0  0  0  0
 13 48  1  0  0  0  0
 14 32  1  0  0  0  0
 14 49  1  0  0  0  0
 14 50  1  0  0  0  0
 14 51  1  0  0  0  0
 15 22  1  0  0  0  0
 15 52  1  0  0  0  0
 15 53  1  0  0  0  0
 16 23  1  0  0  0  0
 16 54  1  0  0  0  0
 16 55  1  0  0  0  0
 17 18  1  0  0  0  0
 17 56  1  0  0  0  0
 17 57  1  0  0  0  0
 18 21  1  0  0  0  0
 18 58  1  0  0  0  0
 18 59  1  0  0  0  0
 19 24  1  0  0  0  0
 19 60  1  0  0  0  0
 19 61  1  0  0  0  0
 20 24  1  0  0  0  0
 20 62  1  0  0  0  0
 20 63  1  0  0  0  0
 21 24  1  0  0  0  0
 21 64  1  0  0  0  0
 21 65  1  0  0  0  0
 22 31  1  0  0  0  0
 22 66  1  0  0  0  0
 22 67  1  0  0  0  0
 23 32  1  0  0  0  0
 23 68  1  0  0  0  0
 23 69  1  0  0  0  0
 24 70  1  0  0  0  0
 26 31  2  0  0  0  0
 27 31  2  0  0  0  0
 28 32  2  0  0  0  0
 29 32  2  0  0  0  0
M  CHG  1  24   1
M  END
$$$$
