
  -OEChem-05262117483D

 51 53  0     1  0  0  0  0  0999 V2000
   -1.0061    4.2127   -1.7859 C   0  0  0  0  0  0  0  0  0  0  0  0
    0.9745    3.4233   -2.8999 C   0  0  0  0  0  0  0  0  0  0  0  0
   -0.9374    5.4174   -2.4870 C   0  0  0  0  0  0  0  0  0  0  0  0
    1.0618    4.6234   -3.6079 C   0  0  0  0  0  0  0  0  0  0  0  0
   -0.0606    3.1945   -1.9800 C   0  0  0  0  0  0  0  0  0  0  0  0
    0.1009    5.6153   -3.4001 C   0  0  0  0  0  0  0  0  0  0  0  0
   -4.3414   -3.9512   -2.5479 C   0  0  0  0  0  0  0  0  0  0  0  0
   -1.9214   -3.4538   -3.0133 C   0  0  0  0  0  0  0  0  0  0  0  0
   -3.0488   -2.4017   -1.0475 C   0  0  0  0  0  0  0  0  0  0  0  0
    1.0662    1.1929   -0.7570 C   0  0  0  0  0  0  0  0  0  0  0  0
   -0.2206    1.8944   -1.2248 C   0  0  2  0  0  0  0  0  0  0  0  0
   -3.2731   -3.7958   -3.6381 C   0  0  1  0  0  0  0  0  0  0  0  0
   -4.4230   -2.7199   -1.6366 C   0  0  2  0  0  0  0  0  0  0  0  0
   -0.9668    0.7477   -1.9761 C   0  0  2  0  0  0  0  0  0  0  0  0
   -0.6167   -0.4142   -1.0247 C   0  0  1  0  0  0  0  0  0  0  0  0
   -3.1340   -5.0538   -4.5046 C   0  0  0  0  0  0  0  0  0  0  0  0
   -5.4374   -2.8993   -0.5002 C   0  0  0  0  0  0  0  0  0  0  0  0
   -0.4973    0.5509   -3.4225 C   0  0  0  0  0  0  0  0  0  0  0  0
   -0.6484   -1.8291   -1.6010 C   0  0  0  0  0  0  0  0  0  0  0  0
   -2.0070   -2.2221   -2.1332 N   0  3  0  0  0  0  0  0  0  0  0  0
    0.7363   -0.2125   -0.6301 O   0  0  0  0  0  0  0  0  0  0  0  0
    0.2045    7.1202   -4.2831 Cl  0  0  0  0  0  0  0  0  0  0  0  0
   -1.8110    4.0703   -1.0678 H   0  0  0  0  0  0  0  0  0  0  0  0
    1.7348    2.6691   -3.0791 H   0  0  0  0  0  0  0  0  0  0  0  0
   -1.6739    6.1973   -2.3223 H   0  0  0  0  0  0  0  0  0  0  0  0
    1.8706    4.7904   -4.3122 H   0  0  0  0  0  0  0  0  0  0  0  0
   -5.3159   -4.1283   -3.0132 H   0  0  0  0  0  0  0  0  0  0  0  0
   -4.1176   -4.8394   -1.9414 H   0  0  0  0  0  0  0  0  0  0  0  0
   -1.5565   -4.2620   -2.3729 H   0  0  0  0  0  0  0  0  0  0  0  0
   -1.1655   -3.2458   -3.7738 H   0  0  0  0  0  0  0  0  0  0  0  0
   -3.0692   -1.4835   -0.4602 H   0  0  0  0  0  0  0  0  0  0  0  0
   -2.6867   -3.2141   -0.4110 H   0  0  0  0  0  0  0  0  0  0  0  0
    1.8877    1.2784   -1.4721 H   0  0  0  0  0  0  0  0  0  0  0  0
    1.4087    1.5645    0.2117 H   0  0  0  0  0  0  0  0  0  0  0  0
   -0.8169    2.1077   -0.3309 H   0  0  0  0  0  0  0  0  0  0  0  0
   -3.5616   -2.9602   -4.2928 H   0  0  0  0  0  0  0  0  0  0  0  0
   -4.7376   -1.8571   -2.2423 H   0  0  0  0  0  0  0  0  0  0  0  0
   -2.0440    0.9556   -1.9663 H   0  0  0  0  0  0  0  0  0  0  0  0
   -1.2647   -0.3572   -0.1369 H   0  0  0  0  0  0  0  0  0  0  0  0
   -2.8380   -5.9179   -3.9003 H   0  0  0  0  0  0  0  0  0  0  0  0
   -2.3904   -4.9196   -5.2965 H   0  0  0  0  0  0  0  0  0  0  0  0
   -4.0890   -5.2911   -4.9807 H   0  0  0  0  0  0  0  0  0  0  0  0
   -5.1643   -3.7427    0.1429 H   0  0  0  0  0  0  0  0  0  0  0  0
   -6.4309   -3.1006   -0.9096 H   0  0  0  0  0  0  0  0  0  0  0  0
   -5.5090   -2.0030    0.1239 H   0  0  0  0  0  0  0  0  0  0  0  0
    0.5659    0.3003   -3.4791 H   0  0  0  0  0  0  0  0  0  0  0  0
   -0.6544    1.4641   -3.9996 H   0  0  0  0  0  0  0  0  0  0  0  0
   -1.0495   -0.2438   -3.9419 H   0  0  0  0  0  0  0  0  0  0  0  0
   -0.3712   -2.5617   -0.8403 H   0  0  0  0  0  0  0  0  0  0  0  0
    0.0592   -1.9028   -2.4267 H   0  0  0  0  0  0  0  0  0  0  0  0
   -2.3279   -1.4540   -2.7327 H   0  0  0  0  0  0  0  0  0  0  0  0
  1  3  1  0  0  0  0
  1  5  2  0  0  0  0
  1 23  1  0  0  0  0
  2  4  2  0  0  0  0
  2  5  1  0  0  0  0
  2 24  1  0  0  0  0
  3  6  2  0  0  0  0
  3 25  1  0  0  0  0
  4  6  1  0  0  0  0
  4 26  1  0  0  0  0
  5 11  1  0  0  0  0
  6 22  1  0  0  0  0
  7 12  1  0  0  0  0
  7 13  1  0  0  0  0
  7 27  1  0  0  0  0
  7 28  1  0  0  0  0
  8 12  1  0  0  0  0
  8 20  1  0  0  0  0
  8 29  1  0  0  0  0
  8 30  1  0  0  0  0
  9 13  1  0  0  0  0
  9 20  1  0  0  0  0
  9 31  1  0  0  0  0
  9 32  1  0  0  0  0
 10 11  1  0  0  0  0
 10 21  1  0  0  0  0
 10 33  1  0  0  0  0
 10 34  1  0  0  0  0
 11 14  1  0  0  0  0
 11 35  1  0  0  0  0
 12 16  1  0  0  0  0
 12 36  1  0  0  0  0
 13 17  1  0  0  0  0
 13 37  1  0  0  0  0
 14 15  1  0  0  0  0
 14 18  1  0  0  0  0
 14 38  1  0  0  0  0
 15 19  1  0  0  0  0
 15 21  1  0  0  0  0
 15 39  1  0  0  0  0
 16 40  1  0  0  0  0
 16 41  1  0  0  0  0
 16 42  1  0  0  0  0
 17 43  1  0  0  0  0
 17 44  1  0  0  0  0
 17 45  1  0  0  0  0
 18 46  1  0  0  0  0
 18 47  1  0  0  0  0
 18 48  1  0  0  0  0
 19 20  1  0  0  0  0
 19 49  1  0  0  0  0
 19 50  1  0  0  0  0
 20 51  1  0  0  0  0
M  CHG  1  20   1
M  END
$$$$
