
  -OEChem-05262117483D

 28 29  0     1  0  0  0  0  0999 V2000
   -3.0938    2.0305    4.6593 C   0  0  0  0  0  0  0  0  0  0  0  0
   -4.0381    2.4450    3.7169 C   0  0  0  0  0  0  0  0  0  0  0  0
   -1.8275    1.6235    4.2370 C   0  0  0  0  0  0  0  0  0  0  0  0
   -3.7074    2.4422    2.3604 C   0  0  0  0  0  0  0  0  0  0  0  0
   -1.4560    1.6253    2.8837 C   0  0  0  0  0  0  0  0  0  0  0  0
   -2.4322    2.0349    1.9634 C   0  0  0  0  0  0  0  0  0  0  0  0
   -0.3739   -1.1966    2.1328 C   0  0  0  0  0  0  0  0  0  0  0  0
   -0.8015   -2.9578    3.3853 C   0  0  0  0  0  0  0  0  0  0  0  0
   -1.0177   -3.3360    1.8959 C   0  0  0  0  0  0  0  0  0  0  0  0
    0.8271    2.3149    1.9592 C   0  0  0  0  0  0  0  0  0  0  0  0
   -0.0397    1.1817    2.5210 C   0  0  2  0  0  0  0  0  0  0  0  0
   -0.4961   -1.5209    3.3681 N   0  0  0  0  0  0  0  0  0  0  0  0
    0.0007    0.0199    1.6292 N   0  0  0  0  0  0  0  0  0  0  0  0
   -0.5871   -2.1526    1.1701 O   0  0  0  0  0  0  0  0  0  0  0  0
   -2.1106    2.0423    0.2202 Cl  0  0  0  0  0  0  0  0  0  0  0  0
   -3.3446    2.0131    5.7163 H   0  0  0  0  0  0  0  0  0  0  0  0
   -5.0301    2.7618    4.0274 H   0  0  0  0  0  0  0  0  0  0  0  0
   -1.1028    1.2730    4.9665 H   0  0  0  0  0  0  0  0  0  0  0  0
   -4.4295    2.7514    1.6113 H   0  0  0  0  0  0  0  0  0  0  0  0
   -1.6929   -3.1542    3.9901 H   0  0  0  0  0  0  0  0  0  0  0  0
    0.0306   -3.5159    3.8328 H   0  0  0  0  0  0  0  0  0  0  0  0
   -0.4117   -4.1780    1.5543 H   0  0  0  0  0  0  0  0  0  0  0  0
   -2.0674   -3.5178    1.6461 H   0  0  0  0  0  0  0  0  0  0  0  0
    0.4597    2.6762    0.9960 H   0  0  0  0  0  0  0  0  0  0  0  0
    0.8324    3.1583    2.6557 H   0  0  0  0  0  0  0  0  0  0  0  0
    1.8534    1.9596    1.8284 H   0  0  0  0  0  0  0  0  0  0  0  0
    0.4173    0.8402    3.4512 H   0  0  0  0  0  0  0  0  0  0  0  0
   -0.2886    0.1767    0.6707 H   0  0  0  0  0  0  0  0  0  0  0  0
  1  2  1  0  0  0  0
  1  3  2  0  0  0  0
  1 16  1  0  0  0  0
  2  4  2  0  0  0  0
  2 17  1  0  0  0  0
  3  5  1  0  0  0  0
  3 18  1  0  0  0  0
  4  6  1  0  0  0  0
  4 19  1  0  0  0  0
  5  6  2  0  0  0  0
  5 11  1  0  0  0  0
  6 15  1  0  0  0  0
  7 12  2  0  0  0  0
  7 13  1  0  0  0  0
  7 14  1  0  0  0  0
  8  9  1  0  0  0  0
  8 12  1  0  0  0  0
  8 20  1  0  0  0  0
  8 21  1  0  0  0  0
  9 14  1  0  0  0  0
  9 22  1  0  0  0  0
  9 23  1  0  0  0  0
 10 11  1  0  0  0  0
 10 24  1  0  0  0  0
 10 25  1  0  0  0  0
 10 26  1  0  0  0  0
 11 13  1  0  0  0  0
 11 27  1  0  0  0  0
 13 28  1  0  0  0  0
M  END
$$$$
