
  -OEChem-05262117483D

 66 69  0     1  0  0  0  0  0999 V2000
    1.2327    8.6494    2.4534 C   0  0  0  0  0  0  0  0  0  0  0  0
    4.0306    3.9987    2.1213 C   0  0  0  0  0  0  0  0  0  0  0  0
    5.5076    4.6176    3.9488 C   0  0  0  0  0  0  0  0  0  0  0  0
    4.7252    2.8000    1.9876 C   0  0  0  0  0  0  0  0  0  0  0  0
    6.1988    3.4213    3.8103 C   0  0  0  0  0  0  0  0  0  0  0  0
    2.3724    8.0802    3.0248 C   0  0  0  0  0  0  0  0  0  0  0  0
    0.4425    7.9069    1.5792 C   0  0  0  0  0  0  0  0  0  0  0  0
    4.4155    4.9312    3.1071 C   0  0  0  0  0  0  0  0  0  0  0  0
    5.8075    2.5090    2.8228 C   0  0  0  0  0  0  0  0  0  0  0  0
    0.8623    6.5822    1.2834 C   0  0  0  0  0  0  0  0  0  0  0  0
    2.6790    6.7484    2.7034 C   0  0  0  0  0  0  0  0  0  0  0  0
   -1.4036    7.7437    0.0056 C   0  0  0  0  0  0  0  0  0  0  0  0
    1.1934    1.4974   -1.3279 C   0  0  0  0  0  0  0  0  0  0  0  0
   -0.3436    1.5791   -1.2454 C   0  0  0  0  0  0  0  0  0  0  0  0
    1.9650    2.6334   -0.6338 C   0  0  0  0  0  0  0  0  0  0  0  0
   -0.9166    2.1157    0.0789 C   0  0  0  0  0  0  0  0  0  0  0  0
    1.3793    4.0472   -0.8022 C   0  0  0  0  0  0  0  0  0  0  0  0
   -1.0121    3.6500    0.1384 C   0  0  0  0  0  0  0  0  0  0  0  0
   -0.6049    6.6039   -0.6219 C   0  0  1  0  0  0  0  0  0  0  0  0
    0.3277    4.3888    0.2748 C   0  0  0  0  0  0  0  0  0  0  0  0
    0.3188    7.1824   -1.7141 C   0  0  0  0  0  0  0  0  0  0  0  0
   -1.4201    9.5518    1.6528 C   0  0  0  0  0  0  0  0  0  0  0  0
    7.4229    1.6503    0.0937 C   0  0  0  0  0  0  0  0  0  0  0  0
    8.9509    2.3117    1.9056 C   0  0  0  0  0  0  0  0  0  0  0  0
    1.9462    6.0308    1.8443 N   0  0  0  0  0  0  0  0  0  0  0  0
   -0.7852    8.3774    1.0611 N   0  0  0  0  0  0  0  0  0  0  0  0
    0.0957    5.8401    0.4131 N   0  0  0  0  0  0  0  0  0  0  0  0
    3.7908    6.1586    3.3098 N   0  0  0  0  0  0  0  0  0  0  0  0
    7.9298    1.3664    1.4408 N   0  0  0  0  0  0  0  0  0  0  0  0
   -2.4912    8.0922   -0.4482 O   0  0  0  0  0  0  0  0  0  0  0  0
    7.4405    0.7062    3.8345 O   0  0  0  0  0  0  0  0  0  0  0  0
    5.8459    0.0243    1.9470 O   0  0  0  0  0  0  0  0  0  0  0  0
    6.7305    0.9999    2.5876 S   0  0  0  0  0  0  0  0  0  0  0  0
    0.9603    9.6666    2.7129 H   0  0  0  0  0  0  0  0  0  0  0  0
    3.1892    4.2221    1.4861 H   0  0  0  0  0  0  0  0  0  0  0  0
    5.8054    5.3185    4.7264 H   0  0  0  0  0  0  0  0  0  0  0  0
    4.4114    2.0748    1.2437 H   0  0  0  0  0  0  0  0  0  0  0  0
    7.0207    3.1778    4.4759 H   0  0  0  0  0  0  0  0  0  0  0  0
    2.9942    8.6535    3.7061 H   0  0  0  0  0  0  0  0  0  0  0  0
    1.5295    0.5488   -0.8922 H   0  0  0  0  0  0  0  0  0  0  0  0
    1.4785    1.4596   -2.3865 H   0  0  0  0  0  0  0  0  0  0  0  0
   -0.7234    2.2101   -2.0592 H   0  0  0  0  0  0  0  0  0  0  0  0
   -0.7466    0.5783   -1.4382 H   0  0  0  0  0  0  0  0  0  0  0  0
    2.0384    2.4168    0.4384 H   0  0  0  0  0  0  0  0  0  0  0  0
    2.9956    2.6239   -1.0069 H   0  0  0  0  0  0  0  0  0  0  0  0
   -1.9336    1.7266    0.2018 H   0  0  0  0  0  0  0  0  0  0  0  0
   -0.3423    1.7324    0.9322 H   0  0  0  0  0  0  0  0  0  0  0  0
    2.1845    4.7826   -0.7109 H   0  0  0  0  0  0  0  0  0  0  0  0
    0.9560    4.1655   -1.8074 H   0  0  0  0  0  0  0  0  0  0  0  0
   -1.5416    3.9781   -0.7641 H   0  0  0  0  0  0  0  0  0  0  0  0
   -1.6360    3.9465    0.9893 H   0  0  0  0  0  0  0  0  0  0  0  0
   -1.3474    5.9587   -1.0860 H   0  0  0  0  0  0  0  0  0  0  0  0
    0.7601    4.0947    1.2338 H   0  0  0  0  0  0  0  0  0  0  0  0
    1.0891    7.8225   -1.2729 H   0  0  0  0  0  0  0  0  0  0  0  0
   -0.2702    7.7793   -2.4168 H   0  0  0  0  0  0  0  0  0  0  0  0
    0.8139    6.3820   -2.2672 H   0  0  0  0  0  0  0  0  0  0  0  0
   -0.8508   10.4612    1.4297 H   0  0  0  0  0  0  0  0  0  0  0  0
   -1.4946    9.4315    2.7379 H   0  0  0  0  0  0  0  0  0  0  0  0
   -2.4156    9.6444    1.2222 H   0  0  0  0  0  0  0  0  0  0  0  0
    6.6993    0.8864   -0.1900 H   0  0  0  0  0  0  0  0  0  0  0  0
    8.2675    1.6040   -0.5995 H   0  0  0  0  0  0  0  0  0  0  0  0
    6.9602    2.6465    0.0188 H   0  0  0  0  0  0  0  0  0  0  0  0
    9.3030    2.0096    2.8916 H   0  0  0  0  0  0  0  0  0  0  0  0
    8.5793    3.3474    1.9449 H   0  0  0  0  0  0  0  0  0  0  0  0
    9.7917    2.2682    1.2076 H   0  0  0  0  0  0  0  0  0  0  0  0
    4.2342    6.7440    4.0050 H   0  0  0  0  0  0  0  0  0  0  0  0
  1  6  1  0  0  0  0
  1  7  2  0  0  0  0
  1 34  1  0  0  0  0
  2  4  2  0  0  0  0
  2  8  1  0  0  0  0
  2 35  1  0  0  0  0
  3  5  1  0  0  0  0
  3  8  2  0  0  0  0
  3 36  1  0  0  0  0
  4  9  1  0  0  0  0
  4 37  1  0  0  0  0
  5  9  2  0  0  0  0
  5 38  1  0  0  0  0
  6 11  2  0  0  0  0
  6 39  1  0  0  0  0
  7 10  1  0  0  0  0
  7 26  1  0  0  0  0
  8 28  1  0  0  0  0
  9 33  1  0  0  0  0
 10 25  2  0  0  0  0
 10 27  1  0  0  0  0
 11 25  1  0  0  0  0
 11 28  1  0  0  0  0
 12 19  1  0  0  0  0
 12 26  1  0  0  0  0
 12 30  2  0  0  0  0
 13 14  1  0  0  0  0
 13 15  1  0  0  0  0
 13 40  1  0  0  0  0
 13 41  1  0  0  0  0
 14 16  1  0  0  0  0
 14 42  1  0  0  0  0
 14 43  1  0  0  0  0
 15 17  1  0  0  0  0
 15 44  1  0  0  0  0
 15 45  1  0  0  0  0
 16 18  1  0  0  0  0
 16 46  1  0  0  0  0
 16 47  1  0  0  0  0
 17 20  1  0  0  0  0
 17 48  1  0  0  0  0
 17 49  1  0  0  0  0
 18 20  1  0  0  0  0
 18 50  1  0  0  0  0
 18 51  1  0  0  0  0
 19 21  1  0  0  0  0
 19 27  1  0  0  0  0
 19 52  1  0  0  0  0
 20 27  1  0  0  0  0
 20 53  1  0  0  0  0
 21 54  1  0  0  0  0
 21 55  1  0  0  0  0
 21 56  1  0  0  0  0
 22 26  1  0  0  0  0
 22 57  1  0  0  0  0
 22 58  1  0  0  0  0
 22 59  1  0  0  0  0
 23 29  1  0  0  0  0
 23 60  1  0  0  0  0
 23 61  1  0  0  0  0
 23 62  1  0  0  0  0
 24 29  1  0  0  0  0
 24 63  1  0  0  0  0
 24 64  1  0  0  0  0
 24 65  1  0  0  0  0
 28 66  1  0  0  0  0
 29 33  1  0  0  0  0
 31 33  2  0  0  0  0
 32 33  2  0  0  0  0
M  END
$$$$
