
  -OEChem-05262117483D

 38 40  0     1  0  0  0  0  0999 V2000
   -0.0312   -0.5706   -1.4058 C   0  0  0  0  0  0  0  0  0  0  0  0
   -1.8215    0.6987   -3.1594 C   0  0  0  0  0  0  0  0  0  0  0  0
   -0.8561    0.4613   -0.9013 C   0  0  0  0  0  0  0  0  0  0  0  0
   -0.0962   -0.9547   -2.7387 C   0  0  0  0  0  0  0  0  0  0  0  0
   -0.9826   -0.3163   -3.6242 C   0  0  0  0  0  0  0  0  0  0  0  0
   -1.7304    1.0740   -1.8185 C   0  0  0  0  0  0  0  0  0  0  0  0
   -0.7388    0.1314    1.6058 C   0  0  0  0  0  0  0  0  0  0  0  0
   -0.7639    0.9044    0.5032 C   0  0  0  0  0  0  0  0  0  0  0  0
   -2.2017   -1.8067   -5.2602 C   0  0  0  0  0  0  0  0  0  0  0  0
    0.6591   -2.0481   -3.4662 C   0  0  0  0  0  0  0  0  0  0  0  0
   -0.8822   -1.3722    1.6302 C   0  0  0  0  0  0  0  0  0  0  0  0
   -0.5199    0.7242    2.9791 C   0  0  0  0  0  0  0  0  0  0  0  0
    0.4265   -1.7034   -4.9594 C   0  0  0  0  0  0  0  0  0  0  0  0
    0.3472   -2.0287    2.2883 C   0  0  0  0  0  0  0  0  0  0  0  0
    0.7142    0.0873    3.6519 C   0  0  0  0  0  0  0  0  0  0  0  0
    0.6055   -1.4450    3.6860 C   0  0  0  0  0  0  0  0  0  0  0  0
   -0.9026   -0.9138   -4.9991 C   0  0  2  0  0  0  0  0  0  0  0  0
   -2.0199   -3.0510   -5.2640 O   0  5  0  0  0  0  0  0  0  0  0  0
   -3.2482   -1.1297   -5.4247 O   0  0  0  0  0  0  0  0  0  0  0  0
   -2.7972    2.3808   -1.2520 Cl  0  0  0  0  0  0  0  0  0  0  0  0
    0.6852   -1.0365   -0.7327 H   0  0  0  0  0  0  0  0  0  0  0  0
   -2.5428    1.1602   -3.8252 H   0  0  0  0  0  0  0  0  0  0  0  0
   -0.7208    1.9835    0.6541 H   0  0  0  0  0  0  0  0  0  0  0  0
    1.7190   -2.0967   -3.1868 H   0  0  0  0  0  0  0  0  0  0  0  0
    0.2057   -3.0197   -3.2365 H   0  0  0  0  0  0  0  0  0  0  0  0
   -1.7677   -1.6216    2.2361 H   0  0  0  0  0  0  0  0  0  0  0  0
   -1.0566   -1.7767    0.6324 H   0  0  0  0  0  0  0  0  0  0  0  0
   -0.4029    1.8116    2.9182 H   0  0  0  0  0  0  0  0  0  0  0  0
   -1.4000    0.5266    3.6112 H   0  0  0  0  0  0  0  0  0  0  0  0
    1.2511   -1.0731   -5.3212 H   0  0  0  0  0  0  0  0  0  0  0  0
    0.3581   -2.5991   -5.5793 H   0  0  0  0  0  0  0  0  0  0  0  0
    0.2064   -3.1149    2.3511 H   0  0  0  0  0  0  0  0  0  0  0  0
    1.2266   -1.8573    1.6533 H   0  0  0  0  0  0  0  0  0  0  0  0
    1.6107    0.3748    3.0867 H   0  0  0  0  0  0  0  0  0  0  0  0
    0.8359    0.4812    4.6695 H   0  0  0  0  0  0  0  0  0  0  0  0
    1.5162   -1.8792    4.1182 H   0  0  0  0  0  0  0  0  0  0  0  0
   -0.2236   -1.7297    4.3500 H   0  0  0  0  0  0  0  0  0  0  0  0
   -0.9106   -0.1413   -5.7744 H   0  0  0  0  0  0  0  0  0  0  0  0
  1  3  1  0  0  0  0
  1  4  2  0  0  0  0
  1 21  1  0  0  0  0
  2  5  2  0  0  0  0
  2  6  1  0  0  0  0
  2 22  1  0  0  0  0
  3  6  2  0  0  0  0
  3  8  1  0  0  0  0
  4  5  1  0  0  0  0
  4 10  1  0  0  0  0
  5 17  1  0  0  0  0
  6 20  1  0  0  0  0
  7  8  2  0  0  0  0
  7 11  1  0  0  0  0
  7 12  1  0  0  0  0
  8 23  1  0  0  0  0
  9 17  1  0  0  0  0
  9 18  1  0  0  0  0
  9 19  2  0  0  0  0
 10 13  1  0  0  0  0
 10 24  1  0  0  0  0
 10 25  1  0  0  0  0
 11 14  1  0  0  0  0
 11 26  1  0  0  0  0
 11 27  1  0  0  0  0
 12 15  1  0  0  0  0
 12 28  1  0  0  0  0
 12 29  1  0  0  0  0
 13 17  1  0  0  0  0
 13 30  1  0  0  0  0
 13 31  1  0  0  0  0
 14 16  1  0  0  0  0
 14 32  1  0  0  0  0
 14 33  1  0  0  0  0
 15 16  1  0  0  0  0
 15 34  1  0  0  0  0
 15 35  1  0  0  0  0
 16 36  1  0  0  0  0
 16 37  1  0  0  0  0
 17 38  1  0  0  0  0
M  CHG  1  18  -1
M  END
$$$$
