
  -OEChem-05262117483D

 50 52  0     1  0  0  0  0  0999 V2000
    2.0469    7.5715   -1.2928 C   0  0  0  0  0  0  0  0  0  0  0  0
    0.1295    7.0937    0.0728 C   0  0  0  0  0  0  0  0  0  0  0  0
    2.6945    8.1610   -0.2048 C   0  0  0  0  0  0  0  0  0  0  0  0
    0.7576    7.6810    1.1730 C   0  0  0  0  0  0  0  0  0  0  0  0
    0.7592    7.0255   -1.1807 C   0  0  0  0  0  0  0  0  0  0  0  0
    2.0399    8.2115    1.0260 C   0  0  0  0  0  0  0  0  0  0  0  0
    0.8068   -0.3079   -4.8483 C   0  0  0  0  0  0  0  0  0  0  0  0
   -0.9911    0.8111   -3.5048 C   0  0  0  0  0  0  0  0  0  0  0  0
    0.2109    2.1118   -5.1401 C   0  0  0  0  0  0  0  0  0  0  0  0
   -1.3775    6.6238   -2.6015 C   0  0  0  0  0  0  0  0  0  0  0  0
    0.1272    6.3665   -2.3842 C   0  0  2  0  0  0  0  0  0  0  0  0
    0.0756   -0.2885   -3.5002 C   0  0  1  0  0  0  0  0  0  0  0  0
    1.3408    1.0799   -5.2231 C   0  0  2  0  0  0  0  0  0  0  0  0
    0.2081    4.8140   -2.4599 C   0  0  2  0  0  0  0  0  0  0  0  0
   -0.8097    4.5735   -3.5877 C   0  0  1  0  0  0  0  0  0  0  0  0
   -0.5390   -1.6504   -3.1634 C   0  0  0  0  0  0  0  0  0  0  0  0
    1.9900    1.0875   -6.6104 C   0  0  0  0  0  0  0  0  0  0  0  0
   -0.1300    4.0918   -1.1537 C   0  0  0  0  0  0  0  0  0  0  0  0
   -1.4230    3.1793   -3.6837 C   0  0  0  0  0  0  0  0  0  0  0  0
   -0.4187    2.1233   -3.8167 N   0  0  0  0  0  0  0  0  0  0  0  0
   -1.8830    5.5043   -3.3436 O   0  0  0  0  0  0  0  0  0  0  0  0
    2.8358    8.9561    2.4053 Cl  0  0  0  0  0  0  0  0  0  0  0  0
    2.5588    7.5374   -2.2521 H   0  0  0  0  0  0  0  0  0  0  0  0
   -0.8651    6.6813    0.2085 H   0  0  0  0  0  0  0  0  0  0  0  0
    3.6905    8.5795   -0.3113 H   0  0  0  0  0  0  0  0  0  0  0  0
    0.2570    7.7268    2.1352 H   0  0  0  0  0  0  0  0  0  0  0  0
    1.6276   -1.0358   -4.8236 H   0  0  0  0  0  0  0  0  0  0  0  0
    0.1100   -0.6471   -5.6297 H   0  0  0  0  0  0  0  0  0  0  0  0
   -1.7890    0.5395   -4.2269 H   0  0  0  0  0  0  0  0  0  0  0  0
   -1.4619    0.8695   -2.5169 H   0  0  0  0  0  0  0  0  0  0  0  0
    0.6177    3.1053   -5.3497 H   0  0  0  0  0  0  0  0  0  0  0  0
   -0.5373    1.8976   -5.9317 H   0  0  0  0  0  0  0  0  0  0  0  0
   -1.9324    6.6913   -1.6596 H   0  0  0  0  0  0  0  0  0  0  0  0
   -1.5524    7.5480   -3.1640 H   0  0  0  0  0  0  0  0  0  0  0  0
    0.6518    6.7421   -3.2702 H   0  0  0  0  0  0  0  0  0  0  0  0
    0.8040   -0.0272   -2.7208 H   0  0  0  0  0  0  0  0  0  0  0  0
    2.0955    1.3677   -4.4787 H   0  0  0  0  0  0  0  0  0  0  0  0
    1.2071    4.5056   -2.7832 H   0  0  0  0  0  0  0  0  0  0  0  0
   -0.3372    4.8406   -4.5449 H   0  0  0  0  0  0  0  0  0  0  0  0
   -1.2851   -1.9422   -3.9123 H   0  0  0  0  0  0  0  0  0  0  0  0
   -1.0342   -1.6364   -2.1857 H   0  0  0  0  0  0  0  0  0  0  0  0
    0.2288   -2.4315   -3.1381 H   0  0  0  0  0  0  0  0  0  0  0  0
    1.2634    0.8202   -7.3871 H   0  0  0  0  0  0  0  0  0  0  0  0
    2.8122    0.3653   -6.6627 H   0  0  0  0  0  0  0  0  0  0  0  0
    2.3962    2.0750   -6.8583 H   0  0  0  0  0  0  0  0  0  0  0  0
   -1.1438    4.3201   -0.8082 H   0  0  0  0  0  0  0  0  0  0  0  0
    0.5665    4.3762   -0.3603 H   0  0  0  0  0  0  0  0  0  0  0  0
   -0.0540    3.0116   -1.3002 H   0  0  0  0  0  0  0  0  0  0  0  0
   -2.1516    3.1704   -4.5153 H   0  0  0  0  0  0  0  0  0  0  0  0
   -1.9931    3.0026   -2.7679 H   0  0  0  0  0  0  0  0  0  0  0  0
  1  3  1  0  0  0  0
  1  5  2  0  0  0  0
  1 23  1  0  0  0  0
  2  4  2  0  0  0  0
  2  5  1  0  0  0  0
  2 24  1  0  0  0  0
  3  6  2  0  0  0  0
  3 25  1  0  0  0  0
  4  6  1  0  0  0  0
  4 26  1  0  0  0  0
  5 11  1  0  0  0  0
  6 22  1  0  0  0  0
  7 12  1  0  0  0  0
  7 13  1  0  0  0  0
  7 27  1  0  0  0  0
  7 28  1  0  0  0  0
  8 12  1  0  0  0  0
  8 20  1  0  0  0  0
  8 29  1  0  0  0  0
  8 30  1  0  0  0  0
  9 13  1  0  0  0  0
  9 20  1  0  0  0  0
  9 31  1  0  0  0  0
  9 32  1  0  0  0  0
 10 11  1  0  0  0  0
 10 21  1  0  0  0  0
 10 33  1  0  0  0  0
 10 34  1  0  0  0  0
 11 14  1  0  0  0  0
 11 35  1  0  0  0  0
 12 16  1  0  0  0  0
 12 36  1  0  0  0  0
 13 17  1  0  0  0  0
 13 37  1  0  0  0  0
 14 15  1  0  0  0  0
 14 18  1  0  0  0  0
 14 38  1  0  0  0  0
 15 19  1  0  0  0  0
 15 21  1  0  0  0  0
 15 39  1  0  0  0  0
 16 40  1  0  0  0  0
 16 41  1  0  0  0  0
 16 42  1  0  0  0  0
 17 43  1  0  0  0  0
 17 44  1  0  0  0  0
 17 45  1  0  0  0  0
 18 46  1  0  0  0  0
 18 47  1  0  0  0  0
 18 48  1  0  0  0  0
 19 20  1  0  0  0  0
 19 49  1  0  0  0  0
 19 50  1  0  0  0  0
M  END
$$$$
