
  -OEChem-05262117483D

 29 30  0     1  0  0  0  0  0999 V2000
    1.5008   -7.1327    2.4789 C   0  0  0  0  0  0  0  0  0  0  0  0
    2.5733   -6.4399    1.9123 C   0  0  0  0  0  0  0  0  0  0  0  0
    0.2319   -6.5494    2.4868 C   0  0  0  0  0  0  0  0  0  0  0  0
    2.3714   -5.1742    1.3566 C   0  0  0  0  0  0  0  0  0  0  0  0
   -0.0010   -5.2800    1.9307 C   0  0  0  0  0  0  0  0  0  0  0  0
    1.0960   -4.6055    1.3656 C   0  0  0  0  0  0  0  0  0  0  0  0
   -0.9787   -2.9745    3.6400 C   0  0  0  0  0  0  0  0  0  0  0  0
    0.3312   -2.8332    5.5294 C   0  0  0  0  0  0  0  0  0  0  0  0
   -0.5056   -1.5543    5.3427 C   0  0  0  0  0  0  0  0  0  0  0  0
   -2.0959   -4.7587    0.5675 C   0  0  0  0  0  0  0  0  0  0  0  0
   -1.4270   -4.7496    1.9462 C   0  0  2  0  0  0  0  0  0  0  0  0
   -0.2811   -3.7085    4.5121 N   0  3  0  0  0  0  0  0  0  0  0  0
   -1.5266   -3.3781    2.5120 N   0  0  0  0  0  0  0  0  0  0  0  0
   -1.1131   -1.7114    4.0098 O   0  0  0  0  0  0  0  0  0  0  0  0
    0.9228   -3.0063    0.6524 Cl  0  0  0  0  0  0  0  0  0  0  0  0
    1.6472   -8.1190    2.9083 H   0  0  0  0  0  0  0  0  0  0  0  0
    3.5663   -6.8791    1.8965 H   0  0  0  0  0  0  0  0  0  0  0  0
   -0.6040   -7.0942    2.9209 H   0  0  0  0  0  0  0  0  0  0  0  0
    3.1963   -4.6280    0.9103 H   0  0  0  0  0  0  0  0  0  0  0  0
    1.3916   -2.6793    5.3113 H   0  0  0  0  0  0  0  0  0  0  0  0
    0.2196   -3.2599    6.5269 H   0  0  0  0  0  0  0  0  0  0  0  0
   -1.3264   -1.4711    6.0561 H   0  0  0  0  0  0  0  0  0  0  0  0
    0.0779   -0.6361    5.3215 H   0  0  0  0  0  0  0  0  0  0  0  0
   -1.5675   -4.1149   -0.1385 H   0  0  0  0  0  0  0  0  0  0  0  0
   -2.0844   -5.7774    0.1755 H   0  0  0  0  0  0  0  0  0  0  0  0
   -3.1391   -4.4357    0.6430 H   0  0  0  0  0  0  0  0  0  0  0  0
   -2.0087   -5.3981    2.6092 H   0  0  0  0  0  0  0  0  0  0  0  0
    0.1105   -4.6082    4.2464 H   0  0  0  0  0  0  0  0  0  0  0  0
   -1.9842   -2.6566    1.9630 H   0  0  0  0  0  0  0  0  0  0  0  0
  1  2  1  0  0  0  0
  1  3  2  0  0  0  0
  1 16  1  0  0  0  0
  2  4  2  0  0  0  0
  2 17  1  0  0  0  0
  3  5  1  0  0  0  0
  3 18  1  0  0  0  0
  4  6  1  0  0  0  0
  4 19  1  0  0  0  0
  5  6  2  0  0  0  0
  5 11  1  0  0  0  0
  6 15  1  0  0  0  0
  7 12  2  0  0  0  0
  7 13  1  0  0  0  0
  7 14  1  0  0  0  0
  8  9  1  0  0  0  0
  8 12  1  0  0  0  0
  8 20  1  0  0  0  0
  8 21  1  0  0  0  0
  9 14  1  0  0  0  0
  9 22  1  0  0  0  0
  9 23  1  0  0  0  0
 10 11  1  0  0  0  0
 10 24  1  0  0  0  0
 10 25  1  0  0  0  0
 10 26  1  0  0  0  0
 11 13  1  0  0  0  0
 11 27  1  0  0  0  0
 12 28  1  0  0  0  0
 13 29  1  0  0  0  0
M  CHG  1  12   1
M  END
$$$$
