28
0 1 C11ClH13N2O
C                    -3.767993374318     1.656132207646     2.653963054453
C                    -3.919663151297     2.275652578470     3.897244971525
C                    -2.536922681766     1.102061352671     2.299146681346
C                    -2.835810177891     2.335825319095     4.775226001500
C                    -1.430174337747     1.149185244753     3.157451346848
C                    -1.612925729786     1.778547507346     4.396435297198
C                    -0.769585671917    -1.680212009151     2.084470509739
C                    -1.632642137099    -3.436209243510     3.093129613469
C                    -1.606767377079    -3.700252637565     1.562301176994
C                     0.841932271860     1.670659196308     2.190263130853
C                    -0.078176592899     0.573151508787     2.740085311963
N                    -1.002005515239    -2.121140050931     3.263329795214
N                    -0.179029821011    -0.492800018719     1.748449569220
O                    -1.115015171571    -2.452074757064     0.999852467797
Cl                   -0.278126709961     1.886630169298     5.546844052580
H                    -4.606595237652     1.598286836019     1.965306030312
H                    -4.873587085414     2.706398531036     4.189015134710
H                    -2.436116444590     0.603815507776     1.338938275718
H                    -2.932801264341     2.807262533196     5.748162685409
H                    -2.655011052876    -3.414867166763     3.489123387339
H                    -1.081086001023    -4.202814827506     3.647811165404
H                    -0.912394757511    -4.493933536503     1.271760207801
H                    -2.588524227983    -3.899441125742     1.126601152050
H                     0.415238308572     2.113839532717     1.282593978751
H                     0.965495616227     2.468768154893     2.925083484603
H                     1.825672526575     1.255574137456     1.951701815577
H                     0.384020943683     0.128409491053     3.623189142470
H                    -0.282377833915    -0.225757126524     0.777702652359
