38
-1 1 C17ClH18O2
C                    -0.031152683559    -0.570623713920    -1.405819221215
C                    -1.821472531723     0.698706300459    -3.159405619454
C                    -0.856133932957     0.461279768670    -0.901311797014
C                    -0.096187377394    -0.954702221499    -2.738682457886
C                    -0.982582192724    -0.316277502834    -3.624179174821
C                    -1.730391793789     1.073967122886    -1.818510520495
C                    -0.738829649012     0.131405729462     1.605781504060
C                    -0.763873743689     0.904403959376     0.503166859573
C                    -2.201672942947    -1.806730025057    -5.260191376987
C                     0.659054623430    -2.048107923079    -3.466200668847
C                    -0.882214225406    -1.372217489649     1.630247731932
C                    -0.519905893645     0.724170493049     2.979142090569
C                     0.426513614403    -1.703411651368    -4.959413781576
C                     0.347238846497    -2.028696136627     2.288255621672
C                     0.714150173308     0.087314954150     3.651925523508
C                     0.605478934003    -1.445012032809     3.686049230183
C                    -0.902649551710    -0.913797013618    -4.999057875496
O                    -2.019896247704    -3.050957026169    -5.263994817021
O                    -3.248168831085    -1.129721752396    -5.424652399044
Cl                   -2.797239424691     2.380752448406    -1.251980955403
H                     0.685215684197    -1.036507229070    -0.732723785392
H                    -2.542750965480     1.160158697319    -3.825181248552
H                    -0.720824214498     1.983491760793     0.654131391500
H                     1.718989432510    -2.096737996380    -3.186829127708
H                     0.205721122634    -3.019652495209    -3.236488276055
H                    -1.767655087687    -1.621597129191     2.236107356020
H                    -1.056645962132    -1.776720401316     0.632417980521
H                    -0.402914448683     1.811619506065     2.918222003553
H                    -1.399957133661     0.526558413198     3.611159838491
H                     1.251066362554    -1.073054562078    -5.321158010431
H                     0.358066177360    -2.599117990608    -5.579325807038
H                     0.206386033799    -3.114864397916     2.351142840301
H                     1.226553731133    -1.857349555957     1.653288160602
H                     1.610685717362     0.374828659274     3.086699533556
H                     0.835912542415     0.481233051578     4.669450388141
H                     1.516163745318    -1.879173273926     4.118165587680
H                    -0.223638734897    -1.729673769107     4.349950809940
H                    -0.910619532015    -0.141293649065    -5.774423231491
