50
0 1 C19ClH28NO
C                     1.526969692130     6.962730759100    -1.046087929552
C                    -0.530678661045     6.235519497380    -0.042442943937
C                     2.018084953488     7.348424103856     0.203267100362
C                    -0.060111948747     6.616172286326     1.215859324294
C                     0.251506048203     6.397939260680    -1.197390462839
C                     1.215593190491     7.170283221182     1.330261896756
C                    -3.406908299180     2.184687820305    -8.319130834999
C                    -1.831981345530     1.535841141688    -6.476964182857
C                    -3.068779524120     3.596083489799    -6.270252503986
C                    -1.680140861275     6.239271533140    -2.930460353697
C                    -0.204904480487     5.958568994897    -2.569224505389
C                    -2.105809474924     1.445468760368    -7.982084163834
C                    -3.405777405147     3.614532454191    -7.764461554684
C                    -0.066382312394     4.445622424765    -2.903457266153
C                    -0.944225655751     4.387626168840    -4.166980370286
C                    -2.139026214193    -0.013176581339    -8.448432809877
C                    -4.739761661405     4.324586012706    -8.015032472671
C                    -0.530226087527     3.505105867336    -1.786703228851
C                    -1.387281243924     2.996665000135    -4.610921859319
N                    -1.787720349784     2.925300277923    -6.015274386518
O                    -2.085107480347     5.211900945495    -3.846097469938
Cl                    1.814966964681     7.652771200640     2.910387032231
H                     2.154404696614     7.106105085332    -1.923093241419
H                    -1.522951718362     5.800901412285    -0.110045644815
H                     3.007253026479     7.784830908466     0.300545233698
H                    -0.676966986256     6.483987316962     2.099341458297
H                    -3.564146263982     2.196968954427    -9.405315850038
H                    -4.254918959779     1.633059255744    -7.885489446991
H                    -2.607720300637     0.955494140487    -5.934364349904
H                    -0.866913680205     1.066017071395    -6.253160826221
H                    -3.013368399413     4.615475005875    -5.885091506213
H                    -3.889512258407     3.091351810879    -5.718878219658
H                    -2.344545609183     6.199155868241    -2.061556094038
H                    -1.794983058287     7.223943044494    -3.398861207173
H                     0.416695233977     6.486750569229    -3.300421741531
H                    -1.279526581882     1.960120204774    -8.490545182103
H                    -2.608040336430     4.176127055495    -8.269203139801
H                     0.974898338538     4.216363002374    -3.156269117333
H                    -0.396800213480     4.844077645263    -5.005846853976
H                    -2.944198693687    -0.567600042964    -7.951307979276
H                    -1.195248750373    -0.526423658221    -8.230098282751
H                    -2.311412866212    -0.075813493855    -9.528604789563
H                    -5.563938667278     3.801955756028    -7.514573539888
H                    -4.971259487522     4.361323256831    -9.085459500561
H                    -4.721019887386     5.354078288751    -7.639706847204
H                    -1.584531181350     3.660846096587    -1.537619939131
H                     0.059141575329     3.657064289316    -0.878624694675
H                    -0.412491016290     2.459319007866    -2.085359723248
H                    -2.179859686811     2.635909390729    -3.930540357112
H                    -0.527072302479     2.328638177098    -4.487013501994
