
  -OEChem-05262117483D

 66 69  0     1  0  0  0  0  0999 V2000
    2.1815    8.3190    1.3917 C   0  0  0  0  0  0  0  0  0  0  0  0
    2.8169    3.1763    2.7709 C   0  0  0  0  0  0  0  0  0  0  0  0
    5.1990    3.3765    3.1971 C   0  0  0  0  0  0  0  0  0  0  0  0
    2.9058    1.8042    2.9790 C   0  0  0  0  0  0  0  0  0  0  0  0
    5.2851    2.0050    3.4096 C   0  0  0  0  0  0  0  0  0  0  0  0
    3.1035    7.5535    2.1115 C   0  0  0  0  0  0  0  0  0  0  0  0
    1.2434    7.6988    0.5709 C   0  0  0  0  0  0  0  0  0  0  0  0
    3.9695    3.9829    2.8630 C   0  0  0  0  0  0  0  0  0  0  0  0
    4.1368    1.2153    3.2863 C   0  0  0  0  0  0  0  0  0  0  0  0
    1.2978    6.2818    0.4694 C   0  0  0  0  0  0  0  0  0  0  0  0
    3.0404    6.1594    1.9840 C   0  0  0  0  0  0  0  0  0  0  0  0
   -0.5481    7.8095   -1.0666 C   0  0  0  0  0  0  0  0  0  0  0  0
    0.9388    0.9848   -1.4190 C   0  0  0  0  0  0  0  0  0  0  0  0
   -0.5494    1.3199   -1.6348 C   0  0  0  0  0  0  0  0  0  0  0  0
    1.8152    2.1014   -0.8179 C   0  0  0  0  0  0  0  0  0  0  0  0
   -1.2273    2.1406   -0.5229 C   0  0  0  0  0  0  0  0  0  0  0  0
    1.4762    3.5404   -1.2412 C   0  0  0  0  0  0  0  0  0  0  0  0
   -1.0513    3.6615   -0.6731 C   0  0  0  0  0  0  0  0  0  0  0  0
   -0.0783    6.4247   -1.5058 C   0  0  1  0  0  0  0  0  0  0  0  0
    0.3634    4.1686   -0.3723 C   0  0  0  0  0  0  0  0  0  0  0  0
    0.9566    6.5926   -2.6384 C   0  0  0  0  0  0  0  0  0  0  0  0
   -0.1048    9.7723    0.3228 C   0  0  0  0  0  0  0  0  0  0  0  0
    3.4514   -0.9774    0.9439 C   0  0  0  0  0  0  0  0  0  0  0  0
    5.8707   -0.7800    1.3425 C   0  0  0  0  0  0  0  0  0  0  0  0
    2.1701    5.5494    1.1714 N   0  0  0  0  0  0  0  0  0  0  0  0
    0.2018    8.4013   -0.0756 N   0  0  0  0  0  0  0  0  0  0  0  0
    0.4001    5.6461   -0.3600 N   0  0  0  0  0  0  0  0  0  0  0  0
    3.9423    5.3675    2.7032 N   0  0  0  0  0  0  0  0  0  0  0  0
    4.5603   -1.1485    1.8898 N   0  0  0  0  0  0  0  0  0  0  0  0
   -1.4943    8.3648   -1.6205 O   0  0  0  0  0  0  0  0  0  0  0  0
    5.4520   -0.8584    4.2411 O   0  0  0  0  0  0  0  0  0  0  0  0
    2.9317   -1.0662    3.8234 O   0  0  0  0  0  0  0  0  0  0  0  0
    4.2544   -0.5587    3.4536 S   0  0  0  0  0  0  0  0  0  0  0  0
    2.1866    9.3978    1.5028 H   0  0  0  0  0  0  0  0  0  0  0  0
    1.8634    3.6313    2.5461 H   0  0  0  0  0  0  0  0  0  0  0  0
    6.0933    3.9899    3.2869 H   0  0  0  0  0  0  0  0  0  0  0  0
    2.0139    1.1871    2.9332 H   0  0  0  0  0  0  0  0  0  0  0  0
    6.2302    1.5456    3.6810 H   0  0  0  0  0  0  0  0  0  0  0  0
    3.8229    8.0280    2.7720 H   0  0  0  0  0  0  0  0  0  0  0  0
    1.0160    0.1051   -0.7678 H   0  0  0  0  0  0  0  0  0  0  0  0
    1.3564    0.6772   -2.3857 H   0  0  0  0  0  0  0  0  0  0  0  0
   -0.6697    1.8640   -2.5804 H   0  0  0  0  0  0  0  0  0  0  0  0
   -1.0894    0.3756   -1.7695 H   0  0  0  0  0  0  0  0  0  0  0  0
    1.7772    2.0564    0.2755 H   0  0  0  0  0  0  0  0  0  0  0  0
    2.8595    1.8925   -1.0766 H   0  0  0  0  0  0  0  0  0  0  0  0
   -2.3035    1.9357   -0.5451 H   0  0  0  0  0  0  0  0  0  0  0  0
   -0.8778    1.8118    0.4650 H   0  0  0  0  0  0  0  0  0  0  0  0
    2.3697    4.1576   -1.1188 H   0  0  0  0  0  0  0  0  0  0  0  0
    1.2034    3.5734   -2.3029 H   0  0  0  0  0  0  0  0  0  0  0  0
   -1.3501    3.9279   -1.6944 H   0  0  0  0  0  0  0  0  0  0  0  0
   -1.7427    4.1793    0.0020 H   0  0  0  0  0  0  0  0  0  0  0  0
   -0.9689    5.9423   -1.9027 H   0  0  0  0  0  0  0  0  0  0  0  0
    0.5891    3.8900    0.6587 H   0  0  0  0  0  0  0  0  0  0  0  0
    1.8780    7.0446   -2.2583 H   0  0  0  0  0  0  0  0  0  0  0  0
    0.5453    7.2393   -3.4190 H   0  0  0  0  0  0  0  0  0  0  0  0
    1.2063    5.6280   -3.0838 H   0  0  0  0  0  0  0  0  0  0  0  0
    0.6962   10.4568    0.0218 H   0  0  0  0  0  0  0  0  0  0  0  0
   -0.2359    9.8276    1.4078 H   0  0  0  0  0  0  0  0  0  0  0  0
   -1.0266   10.0660   -0.1763 H   0  0  0  0  0  0  0  0  0  0  0  0
    2.5217   -1.3005    1.4119 H   0  0  0  0  0  0  0  0  0  0  0  0
    3.6453   -1.6173    0.0785 H   0  0  0  0  0  0  0  0  0  0  0  0
    3.3516    0.0612    0.5976 H   0  0  0  0  0  0  0  0  0  0  0  0
    6.6421   -0.9696    2.0885 H   0  0  0  0  0  0  0  0  0  0  0  0
    5.9127    0.2730    1.0237 H   0  0  0  0  0  0  0  0  0  0  0  0
    6.0627   -1.4162    0.4740 H   0  0  0  0  0  0  0  0  0  0  0  0
    4.7549    5.8601    3.0487 H   0  0  0  0  0  0  0  0  0  0  0  0
  1  6  1  0  0  0  0
  1  7  2  0  0  0  0
  1 34  1  0  0  0  0
  2  4  2  0  0  0  0
  2  8  1  0  0  0  0
  2 35  1  0  0  0  0
  3  5  1  0  0  0  0
  3  8  2  0  0  0  0
  3 36  1  0  0  0  0
  4  9  1  0  0  0  0
  4 37  1  0  0  0  0
  5  9  2  0  0  0  0
  5 38  1  0  0  0  0
  6 11  2  0  0  0  0
  6 39  1  0  0  0  0
  7 10  1  0  0  0  0
  7 26  1  0  0  0  0
  8 28  1  0  0  0  0
  9 33  1  0  0  0  0
 10 25  2  0  0  0  0
 10 27  1  0  0  0  0
 11 25  1  0  0  0  0
 11 28  1  0  0  0  0
 12 19  1  0  0  0  0
 12 26  1  0  0  0  0
 12 30  2  0  0  0  0
 13 14  1  0  0  0  0
 13 15  1  0  0  0  0
 13 40  1  0  0  0  0
 13 41  1  0  0  0  0
 14 16  1  0  0  0  0
 14 42  1  0  0  0  0
 14 43  1  0  0  0  0
 15 17  1  0  0  0  0
 15 44  1  0  0  0  0
 15 45  1  0  0  0  0
 16 18  1  0  0  0  0
 16 46  1  0  0  0  0
 16 47  1  0  0  0  0
 17 20  1  0  0  0  0
 17 48  1  0  0  0  0
 17 49  1  0  0  0  0
 18 20  1  0  0  0  0
 18 50  1  0  0  0  0
 18 51  1  0  0  0  0
 19 21  1  0  0  0  0
 19 27  1  0  0  0  0
 19 52  1  0  0  0  0
 20 27  1  0  0  0  0
 20 53  1  0  0  0  0
 21 54  1  0  0  0  0
 21 55  1  0  0  0  0
 21 56  1  0  0  0  0
 22 26  1  0  0  0  0
 22 57  1  0  0  0  0
 22 58  1  0  0  0  0
 22 59  1  0  0  0  0
 23 29  1  0  0  0  0
 23 60  1  0  0  0  0
 23 61  1  0  0  0  0
 23 62  1  0  0  0  0
 24 29  1  0  0  0  0
 24 63  1  0  0  0  0
 24 64  1  0  0  0  0
 24 65  1  0  0  0  0
 28 66  1  0  0  0  0
 29 33  1  0  0  0  0
 31 33  2  0  0  0  0
 32 33  2  0  0  0  0
M  END
$$$$
