66
0 1 C24H33N5O3S
C                     1.503720296671     8.281077886992     1.408879087892
C                     2.915358255242     3.152975206159     2.460050050308
C                     4.406240638697     3.786332058179     4.270755275739
C                     3.236075766544     1.817554614782     2.683885797880
C                     4.721998187879     2.452074894650     4.492148579437
C                     2.447644167950     7.603336412846     2.183706201871
C                     0.508810814989     7.573017495608     0.739004870170
C                     3.494568393290     4.161860141556     3.257801671397
C                     4.128205688065     1.462416004505     3.699628626506
C                     0.521735947192     6.157225236636     0.858309904356
C                     2.347497227370     6.206299284325     2.275318064388
C                    -1.350890224572     7.488352179378    -0.825370988414
C                    -0.711185711990     0.658429321179    -0.166078388700
C                    -2.155773217674     1.195396200311    -0.175879597325
C                     0.384752256004     1.678433941972     0.190360351775
C                    -2.493251342894     2.233047134795     0.910117364009
C                     0.212291302213     3.087676907989    -0.404724605167
C                    -2.145370043512     3.679542371948     0.518652690883
C                    -0.930240406966     6.038888819000    -1.055586417062
C                    -0.645594429566     4.010086434173     0.487051683099
C                     0.089567799122     5.992930037550    -2.212652375215
C                    -0.798557251059     9.625068656758     0.229888386548
C                     3.356790920411    -0.124309230229     6.463415187765
C                     1.890374574323    -0.764844667451     4.594078000534
N                     1.414729427711     5.509466080688     1.616509370775
N                    -0.545999669529     8.199726421333     0.037635554191
N                    -0.448880516903     5.442658124604     0.192567608130
N                     3.250444017919     5.523118466424     3.093495084418
N                     3.252691216570    -0.744965511687     5.138120740987
O                    -2.306278984710     7.982138457416    -1.420025348567
O                     4.193551585725    -1.015680375131     2.805347382661
O                     5.722982036553    -0.351213274272     4.752022284618
S                     4.450165172989    -0.260521328127     4.033528518929
H                     1.543829288645     9.363345223220     1.350032703486
H                     2.228820379450     3.428786993369     1.676161522735
H                     4.873780901859     4.554077976731     4.884380813523
H                     2.808815985816     1.046183292577     2.051459361108
H                     5.437262448552     2.173290279831     5.259339761518
H                     3.229598648069     8.148190466632     2.704335274384
H                    -0.639479056632    -0.174387322883     0.544250352548
H                    -0.498427051048     0.228819353331    -1.152510731931
H                    -2.375107889728     1.644214644726    -1.153082931249
H                    -2.835643497653     0.340248447295    -0.087629592336
H                     0.452391073226     1.773596885204     1.280727798275
H                     1.348995209230     1.267807529210    -0.129738879458
H                    -3.572251533732     2.202269992426     1.099263777970
H                    -2.012745899398     1.967004858495     1.860863689519
H                     1.195598446549     3.557573279764    -0.503786483753
H                    -0.208676111680     3.024262660609    -1.415848976185
H                    -2.601808105293     3.871781715579    -0.459812778314
H                    -2.617565933689     4.374248447244     1.222705046447
H                    -1.839031001997     5.523140691867    -1.358158595272
H                    -0.267631400755     3.892441238393     1.504989178954
H                     1.022695703872     6.489137872838    -1.928480810476
H                    -0.323619148702     6.502420025030    -3.088215456928
H                     0.319794218781     4.961685110708    -2.486783299808
H                     0.003660678607    10.229105127769    -0.208804050854
H                    -0.876328658259     9.852035424175     1.297548902440
H                    -1.735556457529     9.867473211486    -0.268479089729
H                     4.387418657289    -0.184981672895     6.812310485934
H                     2.722965434345    -0.691606313948     7.150785305848
H                     3.025489595015     0.925656980890     6.464162481238
H                     1.892438021480    -1.271989653748     3.629466448922
H                     1.466600997183     0.245184312032     4.481644872189
H                     1.261166318174    -1.333274698411     5.284790470672
H                     3.844447442478     6.127477322776     3.645233781340
