
  -OEChem-05262117483D

 66 69  0     1  0  0  0  0  0999 V2000
    1.9742    7.8735    5.1939 C   0  0  0  0  0  0  0  0  0  0  0  0
    4.7356    3.9950    2.7370 C   0  0  0  0  0  0  0  0  0  0  0  0
    5.2405    2.9857    4.8838 C   0  0  0  0  0  0  0  0  0  0  0  0
    4.9334    2.7703    2.1123 C   0  0  0  0  0  0  0  0  0  0  0  0
    5.4526    1.7562    4.2607 C   0  0  0  0  0  0  0  0  0  0  0  0
    3.2444    7.2852    5.2374 C   0  0  0  0  0  0  0  0  0  0  0  0
    0.9226    7.2283    4.5514 C   0  0  0  0  0  0  0  0  0  0  0  0
    4.8616    4.1102    4.1325 C   0  0  0  0  0  0  0  0  0  0  0  0
    5.2807    1.6504    2.8783 C   0  0  0  0  0  0  0  0  0  0  0  0
    1.2016    5.9866    3.9106 C   0  0  0  0  0  0  0  0  0  0  0  0
    3.3967    6.0322    4.6397 C   0  0  0  0  0  0  0  0  0  0  0  0
   -1.3924    7.1743    3.7999 C   0  0  0  0  0  0  0  0  0  0  0  0
    0.6952    0.9368    2.1457 C   0  0  0  0  0  0  0  0  0  0  0  0
    1.3246    1.4291    0.8333 C   0  0  0  0  0  0  0  0  0  0  0  0
    1.2675    1.6164    3.4036 C   0  0  0  0  0  0  0  0  0  0  0  0
    1.0387    2.8900    0.4584 C   0  0  0  0  0  0  0  0  0  0  0  0
    0.6064    2.9391    3.8196 C   0  0  0  0  0  0  0  0  0  0  0  0
    1.3897    3.9349    1.5306 C   0  0  0  0  0  0  0  0  0  0  0  0
   -0.9635    6.0987    2.8070 C   0  0  1  0  0  0  0  0  0  0  0  0
    0.3723    3.9716    2.6913 C   0  0  0  0  0  0  0  0  0  0  0  0
   -0.7531    6.7469    1.4233 C   0  0  0  0  0  0  0  0  0  0  0  0
   -0.7475    8.8086    5.4924 C   0  0  0  0  0  0  0  0  0  0  0  0
    7.5010    0.9751    0.5381 C   0  0  0  0  0  0  0  0  0  0  0  0
    8.1004   -0.0308    2.7048 C   0  0  0  0  0  0  0  0  0  0  0  0
    2.4138    5.4212    3.9723 N   0  0  0  0  0  0  0  0  0  0  0  0
   -0.4042    7.7143    4.5882 N   0  0  0  0  0  0  0  0  0  0  0  0
    0.1831    5.3200    3.2757 N   0  0  0  0  0  0  0  0  0  0  0  0
    4.6306    5.3476    4.7588 N   0  0  0  0  0  0  0  0  0  0  0  0
    7.1407    0.0233    1.5957 N   0  0  0  0  0  0  0  0  0  0  0  0
   -2.5613    7.5547    3.8317 O   0  0  0  0  0  0  0  0  0  0  0  0
    5.3522   -0.9747    3.0824 O   0  0  0  0  0  0  0  0  0  0  0  0
    4.7275    0.0865    0.8365 O   0  0  0  0  0  0  0  0  0  0  0  0
    5.5144    0.0725    2.0723 S   0  0  0  0  0  0  0  0  0  0  0  0
    1.8165    8.8292    5.6812 H   0  0  0  0  0  0  0  0  0  0  0  0
    4.4582    4.8677    2.1570 H   0  0  0  0  0  0  0  0  0  0  0  0
    5.3226    3.0630    5.9655 H   0  0  0  0  0  0  0  0  0  0  0  0
    4.7907    2.6688    1.0414 H   0  0  0  0  0  0  0  0  0  0  0  0
    5.6942    0.8732    4.8436 H   0  0  0  0  0  0  0  0  0  0  0  0
    4.0759    7.7820    5.7268 H   0  0  0  0  0  0  0  0  0  0  0  0
   -0.3977    1.0565    2.1160 H   0  0  0  0  0  0  0  0  0  0  0  0
    0.8804   -0.1410    2.2162 H   0  0  0  0  0  0  0  0  0  0  0  0
    2.4079    1.2734    0.8959 H   0  0  0  0  0  0  0  0  0  0  0  0
    0.9792    0.7898    0.0110 H   0  0  0  0  0  0  0  0  0  0  0  0
    1.1795    0.9322    4.2557 H   0  0  0  0  0  0  0  0  0  0  0  0
    2.3430    1.7721    3.2621 H   0  0  0  0  0  0  0  0  0  0  0  0
    1.6033    3.1227   -0.4535 H   0  0  0  0  0  0  0  0  0  0  0  0
   -0.0226    3.0000    0.1899 H   0  0  0  0  0  0  0  0  0  0  0  0
   -0.3670    2.7330    4.2815 H   0  0  0  0  0  0  0  0  0  0  0  0
    1.2290    3.3970    4.5898 H   0  0  0  0  0  0  0  0  0  0  0  0
    2.3900    3.7605    1.9214 H   0  0  0  0  0  0  0  0  0  0  0  0
    1.4096    4.9253    1.0650 H   0  0  0  0  0  0  0  0  0  0  0  0
   -1.8202    5.4239    2.7494 H   0  0  0  0  0  0  0  0  0  0  0  0
   -0.6015    3.7466    2.2444 H   0  0  0  0  0  0  0  0  0  0  0  0
    0.1242    7.4019    1.4332 H   0  0  0  0  0  0  0  0  0  0  0  0
   -1.6330    7.3368    1.1524 H   0  0  0  0  0  0  0  0  0  0  0  0
   -0.6025    5.9788    0.6603 H   0  0  0  0  0  0  0  0  0  0  0  0
   -0.2677    9.7416    5.1767 H   0  0  0  0  0  0  0  0  0  0  0  0
   -0.4292    8.5679    6.5115 H   0  0  0  0  0  0  0  0  0  0  0  0
   -1.8277    8.9380    5.4640 H   0  0  0  0  0  0  0  0  0  0  0  0
    6.7616    0.9265   -0.2609 H   0  0  0  0  0  0  0  0  0  0  0  0
    8.4711    0.6742    0.1330 H   0  0  0  0  0  0  0  0  0  0  0  0
    7.5800    2.0080    0.9103 H   0  0  0  0  0  0  0  0  0  0  0  0
    7.7850   -0.7892    3.4210 H   0  0  0  0  0  0  0  0  0  0  0  0
    8.2098    0.9391    3.2140 H   0  0  0  0  0  0  0  0  0  0  0  0
    9.0711   -0.3222    2.2943 H   0  0  0  0  0  0  0  0  0  0  0  0
    5.0463    5.4367    5.6779 H   0  0  0  0  0  0  0  0  0  0  0  0
  1  6  1  0  0  0  0
  1  7  2  0  0  0  0
  1 34  1  0  0  0  0
  2  4  2  0  0  0  0
  2  8  1  0  0  0  0
  2 35  1  0  0  0  0
  3  5  1  0  0  0  0
  3  8  2  0  0  0  0
  3 36  1  0  0  0  0
  4  9  1  0  0  0  0
  4 37  1  0  0  0  0
  5  9  2  0  0  0  0
  5 38  1  0  0  0  0
  6 11  2  0  0  0  0
  6 39  1  0  0  0  0
  7 10  1  0  0  0  0
  7 26  1  0  0  0  0
  8 28  1  0  0  0  0
  9 33  1  0  0  0  0
 10 25  2  0  0  0  0
 10 27  1  0  0  0  0
 11 25  1  0  0  0  0
 11 28  1  0  0  0  0
 12 19  1  0  0  0  0
 12 26  1  0  0  0  0
 12 30  2  0  0  0  0
 13 14  1  0  0  0  0
 13 15  1  0  0  0  0
 13 40  1  0  0  0  0
 13 41  1  0  0  0  0
 14 16  1  0  0  0  0
 14 42  1  0  0  0  0
 14 43  1  0  0  0  0
 15 17  1  0  0  0  0
 15 44  1  0  0  0  0
 15 45  1  0  0  0  0
 16 18  1  0  0  0  0
 16 46  1  0  0  0  0
 16 47  1  0  0  0  0
 17 20  1  0  0  0  0
 17 48  1  0  0  0  0
 17 49  1  0  0  0  0
 18 20  1  0  0  0  0
 18 50  1  0  0  0  0
 18 51  1  0  0  0  0
 19 21  1  0  0  0  0
 19 27  1  0  0  0  0
 19 52  1  0  0  0  0
 20 27  1  0  0  0  0
 20 53  1  0  0  0  0
 21 54  1  0  0  0  0
 21 55  1  0  0  0  0
 21 56  1  0  0  0  0
 22 26  1  0  0  0  0
 22 57  1  0  0  0  0
 22 58  1  0  0  0  0
 22 59  1  0  0  0  0
 23 29  1  0  0  0  0
 23 60  1  0  0  0  0
 23 61  1  0  0  0  0
 23 62  1  0  0  0  0
 24 29  1  0  0  0  0
 24 63  1  0  0  0  0
 24 64  1  0  0  0  0
 24 65  1  0  0  0  0
 28 66  1  0  0  0  0
 29 33  1  0  0  0  0
 31 33  2  0  0  0  0
 32 33  2  0  0  0  0
M  END
$$$$
