19   
torsion grid (-165,)
C        0.0125987481   -0.8104540644   -1.0501181985
C        5.1299436554   -0.9371772216    0.3170399924
C        3.4402816007   -1.5708394366    1.9863104395
C        1.2436030793   -0.3121278405   -0.2969708430
N        3.7046897961   -0.9251872143    0.6910843414
O        2.1835174370   -2.8080229174   -0.2922619833
O        3.2849332678   -1.1012618521   -1.8300268013
S        2.6479532197   -1.4355445931   -0.5502186326
H       -0.2844376395   -1.8008618700   -0.6987646750
H        0.2025090414   -0.8655932125   -2.1253864185
H       -0.8164870691   -0.1155279450   -0.8854428992
H        5.2572197822   -0.4649159899   -0.6560060109
H        5.5475913112   -1.9528447594    0.2825444449
H        5.6701207459   -0.3560649316    1.0697121098
H        2.3822619947   -1.4933062157    2.2448886841
H        4.0158432773   -1.0369696861    2.7474852433
H        3.7205393226   -2.6315092817    1.9913523677
H        1.0664393801   -0.2672944243    0.7802202121
H        1.5907391510    0.6645577905   -0.6395638960
19   
torsion grid (-150,)
C        0.0030198112   -0.8762336182   -0.9044043445
C        5.1610029567   -0.9570087461    0.3772651346
C        3.3642736981   -1.5874024778    1.9305054093
C        1.2937552801   -0.2462163902   -0.3891334666
N        3.7189376251   -0.9067796749    0.6758507035
O        2.2577852009   -2.7421112181   -0.4700254313
O        3.4163381130   -0.9561387072   -1.8674880996
S        2.7208058395   -1.3547400977   -0.6376701222
H       -0.2065723239   -1.8138504372   -0.3860716157
H        0.0590993931   -1.0831559234   -1.9764964832
H       -0.8268019610   -0.1831559382   -0.7338641014
H        5.3552791905   -0.4570263519   -0.5706387403
H        5.5459566506   -1.9850530515    0.3296563960
H        5.6791942693   -0.4199446976    1.1766495513
H        2.2961422349   -1.4842539353    2.1345706775
H        3.9127565301   -1.0992767690    2.7407921863
H        3.6103144121   -2.6563783241    1.9121566243
H        1.2398572026   -0.0426205796    0.6824446915
H        1.5623175639    0.6769453175   -0.9059666675
19   
torsion grid (-135,)
C        0.0396276716   -0.9404833972   -0.7549245644
C        5.1920184500   -0.9958618715    0.4371306691
C        3.2815196753   -1.6030527906    1.8562049125
C        1.3447862765   -0.1994437370   -0.4842906847
N        3.7383312488   -0.8880580076    0.6547416702
O        2.3760728151   -2.6749768161   -0.6847937397
O        3.5618539390   -0.7759303023   -1.8944524202
S        2.8113457507   -1.2692305629   -0.7332986925
H       -0.0751575379   -1.7945565324   -0.0844872810
H       -0.0051853531   -1.3113508486   -1.7818241178
H       -0.7989374510   -0.2538619603   -0.5999488876
H        5.4645799537   -0.4593652840   -0.4708095061
H        5.5315299410   -2.0380723408    0.3594876667
H        5.6853323794   -0.5242040534    1.2915348269
H        2.2074049241   -1.4619043796    2.0000939289
H        3.7970435839   -1.1708234064    2.7182013601
H        3.4854453207   -2.6800436618    1.8080266456
H        1.4015441502    0.1697823841    0.5412449043
H        1.5074949539    0.6415910642   -1.1610102280
19   
torsion grid (-120,)
C        0.0741953841   -1.0010033762   -0.5709280088
C        5.1789424883   -1.0340465655    0.4934534908
C        3.1745592668   -1.6129506183    1.7875494601
C        1.3537486606   -0.1717011073   -0.5572719673
N        3.7212240995   -0.8708791289    0.6410793296
O        2.4725995499   -2.6029753510   -0.8822744723
O        3.6499035791   -0.5884700802   -1.8943294117
S        2.8631509090   -1.1852146456   -0.8081300821
H        0.0618962903   -1.7353769643    0.2376204289
H       -0.0373008895   -1.5424668647   -1.5126950607
H       -0.7848982502   -0.3331264030   -0.4491656334
H        5.5188949105   -0.4776779576   -0.3792709891
H        5.4787986428   -2.0866994132    0.3956566671
H        5.6459954156   -0.6128428433    1.3879681255
H        2.1026941527   -1.4237003339    1.8873902719
H        3.6660763589   -1.2419810198    2.6910204937
H        3.3314711980   -2.6958195133    1.7029739118
H        1.5005486113    0.3698725405    0.3786891423
H        1.3908548735    0.5490527149   -1.3769670830
19   
torsion grid (-105,)
C        0.1450564021   -0.2385428230   -0.5484810775
C        4.6191566954   -0.3658911889    0.6386325861
C        3.6983858356   -2.4360574621    1.5863508651
C        1.6184369397    0.0035284157   -0.8587544930
N        3.4327357618   -1.2208316110    0.7967150306
O        1.7336502392   -2.6646515274   -0.4506517845
O        3.5843735922   -1.5439510450   -1.7946615688
S        2.6214625795   -1.5190031633   -0.6815195956
H        0.0056160568   -0.5595761151    0.4866081536
H       -0.2729734554   -1.0076523348   -1.2005336516
H       -0.4099631506    0.6926957156   -0.7016835787
H        4.3672355986    0.5412631236    0.0845637272
H        5.4366776059   -0.8752175848    0.1133039453
H        4.9532776683   -0.0713805431    1.6373086227
H        2.7913614603   -3.0355923784    1.6498611723
H        3.9856840940   -2.1158027185    2.5918014137
H        4.5070986419   -3.0470579317    1.1617733011
H        2.0641722363    0.7476089251   -0.1965547715
H        1.7768531670    0.3104507381   -1.8947947549
19   
torsion grid (-90,)
C        0.2219687080   -0.2423881474   -0.4024965965
C        4.5734013812   -0.3577698684    0.6843162405
C        3.6031148594   -2.4414086111    1.5512630741
C        1.6224199362   -0.0342520861   -0.9672629631
N        3.3869126124   -1.2245798875    0.7492031243
O        1.8197669264   -2.6968049597   -0.6388495683
O        3.6980420675   -1.4566672277   -1.8340985883
S        2.6735743724   -1.5114029459   -0.7792882574
H        0.2544577441   -0.4317506279    0.6738659769
H       -0.2697656221   -1.0889171704   -0.8848308624
H       -0.3749268592    0.6588060593   -0.5756167060
H        4.3549647118    0.5518915949    0.1209566320
H        5.4312813298   -0.8559028721    0.2158260731
H        4.8314131758   -0.0698750587    1.7071960308
H        2.7006123899   -3.0509208179    1.5417292037
H        3.8094563746   -2.1247532852    2.5775359378
H        4.4479512832   -3.0418445887    1.1863386849
H        2.1547124939    0.7908551791   -0.4902139803
H        1.6093494628    0.1405983539   -2.0462085677
19   
torsion grid (-75,)
C        0.3379364603   -0.2236792188   -0.2823348530
C        4.5074089291   -0.3379601992    0.7311832006
C        3.5342128391   -2.4580901096    1.5062318886
C        1.6311954862   -0.0833895325   -1.0759874652
N        3.3433816963   -1.2367060794    0.7049417689
O        1.9139242744   -2.7303567419   -0.8011953145
O        3.8058980072   -1.3920189268   -1.8632658919
S        2.7307491541   -1.5127067303   -0.8668009728
H        0.5407340041   -0.2718401483    0.7909680673
H       -0.1998217031   -1.1273786682   -0.5757780786
H       -0.3024107801    0.6432984958   -0.4733302508
H        4.2996195932    0.5761669832    0.1714327087
H        5.4069439399   -0.8043419401    0.3105228918
H        4.6918790857   -0.0629189757    1.7733247163
H        2.6487178854   -3.0874938066    1.4306010718
H        3.6656432566   -2.1497121208    2.5472885725
H        4.4146363562   -3.0349460757    1.1910044983
H        2.2106840259    0.7999037597   -0.7983540774
H        1.4554324999   -0.0489372288   -2.1550388997
19   
torsion grid (-60,)
C        0.4779554573   -0.1203192108   -0.1948862808
C        4.4032499473   -0.2915150102    0.7885717641
C        3.5213313697   -2.4916864026    1.4455414904
C        1.6442719897   -0.1141584110   -1.1756771577
N        3.2973218482   -1.2547970079    0.6773631550
O        1.9884861100   -2.7466478904   -0.9256316139
O        3.8961271592   -1.3431856568   -1.8703516876
S        2.7781303654   -1.5087631541   -0.9295208079
H        0.8317112167   -0.0046580884    0.8321732858
H       -0.0841495216   -1.0544096980   -0.2677776580
H       -0.1979831009    0.7086962495   -0.4273328409
H        4.1586703817    0.6341031846    0.2633116159
H        5.3445477581   -0.6834914905    0.3834174733
H        4.5329460130   -0.0540057712    1.8480193587
H        2.6781717602   -3.1664073310    1.3051265253
H        3.5851380754   -2.2140557794    2.5014648691
H        4.4480240415   -3.0054076406    1.1546539952
H        2.2476678963    0.7947452635   -1.1137656287
H        1.3217495896   -0.2341095525   -2.2140624667
19   
torsion grid (-45,)
C        0.6034974528    0.0307307310   -0.1420169551
C        4.2219360939   -0.2802099875    0.8295036960
C        3.5277453153   -2.5820513941    1.3485148271
C        1.6163780438   -0.1599922544   -1.2649303475
N        3.2057693374   -1.3274796566    0.6459015124
O        1.9845502454   -2.7921596504   -1.0361609182
O        3.9129891386   -1.3579486228   -1.8827066636
S        2.7609248988   -1.5463148586   -0.9879180008
H        1.0934835036    0.3222896008    0.7885693109
H        0.0431178981   -0.8904338373    0.0379412988
H       -0.1070584004    0.8136917281   -0.4263460742
H        3.9010995792    0.6490971166    0.3527428474
H        5.1994180883   -0.5641387081    0.4194838016
H        4.3172930585   -0.0914238540    1.9023101580
H        2.7472815460   -3.3167545730    1.1557229645
H        3.5521623995   -2.3594226894    2.4189492840
H        4.4999735499   -2.9958255694    1.0470766560
H        2.2344365029    0.7256821346   -1.4301781650
H        1.1443910451   -0.4253328338   -2.2150989496
19   
torsion grid (-30,)
C        0.6880045728    0.1313175285   -0.1080049445
C        4.1190861235   -0.2696931098    0.8288343773
C        3.5108274684   -2.6160475152    1.2517229642
C        1.5288573180   -0.2078479916   -1.3340458531
N        3.1563878781   -1.3533921221    0.5810182974
O        2.0755980919   -2.8180284103   -1.1888896387
O        3.9250210443   -1.2266855000   -1.9255227434
S        2.7659230700   -1.5266257336   -1.0709971391
H        1.2902495530    0.5744386076    0.6863368184
H        0.1978779785   -0.7595307311    0.2927789099
H       -0.0880530344    0.8477438508   -0.3977701997
H        3.7836746792    0.6538854740    0.3506790918
H        5.1244156623   -0.5063122655    0.4579810388
H        4.1589182856   -0.0962441390    1.9078469074
H        2.7659582434   -3.3746904121    1.0158618267
H        3.4994054366   -2.4267012985    2.3288731977
H        4.5060857301   -2.9816467741    0.9635292688
H        2.0849748528    0.6548834639   -1.7075192273
H        0.9248380404   -0.6088847564   -2.1520595755
19   
torsion grid (-15,)
C        0.7776793755    0.1915858893   -0.0764999797
C        4.1150552480   -0.2904792557    0.9241182257
C        3.4733544131   -2.6413409073    1.2713812064
C        1.4806414838   -0.2990370443   -1.3381427767
N        3.1716933297   -1.3691034707    0.5956615529
O        2.2899343079   -2.8462769068   -1.2733290956
O        3.9960389939   -1.0429686968   -1.8625787383
S        2.8438078555   -1.5002684813   -1.0711858782
H        1.4429481696    0.7755864806    0.5613628081
H        0.3866340746   -0.6411735872    0.5123379505
H       -0.0624403874    0.8301444052   -0.3704639794
H        3.8344177279    0.6325335076    0.4126577302
H        5.1472094224   -0.5364047787    0.6439217238
H        4.0617507371   -0.1130561690    2.0021653346
H        2.7369566926   -3.3913989110    0.9875081550
H        3.4052421078   -2.4619284065    2.3483337066
H        4.4788542144   -3.0155962593    1.0345533795
H        1.9316474209    0.5219422218   -1.8992972488
H        0.8028301418   -0.8447912324   -1.9982316119
19   
torsion grid (0,)
C        0.7366276188    0.0457315936   -0.3619931547
C        4.6141166602   -1.2889625005   -0.3283268402
C        3.4578547371   -0.6731414655    1.7599008741
C        0.6397908236   -1.4758389430   -0.3191919752
N        3.3289716276   -1.1253923833    0.3676779869
O        1.9410147105   -3.0568423119    1.3986800774
O        2.6206281316   -3.1101611977   -1.0643954776
S        2.1894245932   -2.3641075043    0.1254091220
H        1.5046183938    0.3777002778   -1.0631759193
H        0.9645616436    0.4687927878    0.6188416060
H       -0.2291544732    0.4482840832   -0.6862410739
H        4.4426197890   -1.6097224780   -1.3545331598
H        5.2691348978   -2.0181542367    0.1675687672
H        5.1092953824   -0.3133115587   -0.3366595531
H        2.4749321198   -0.5542659486    2.2173143055
H        3.9557166525    0.3010136250    1.7521662267
H        4.0374431087   -1.3743882293    2.3737243853
H        0.3808983925   -1.8891250654   -1.2960877721
H       -0.0890562967   -1.8204578264    0.4167834748
19   
torsion grid (15,)
C        0.7665591233    0.0324640418   -0.4439999729
C        4.6966455765   -1.2479088310   -0.2890844949
C        3.4285081697   -0.6786335743    1.7423375595
C        0.6703854388   -1.4721101602   -0.2124482146
N        3.3716131906   -1.0789160019    0.3289082275
O        2.1317269035   -3.2044089523    1.2085771231
O        2.6550691688   -2.9164211686   -1.2719682219
S        2.2698914677   -2.3425803423    0.0248438395
H        1.4099564200    0.2652107008   -1.2954715126
H        1.1569418379    0.5564699169    0.4298005844
H       -0.2367538474    0.4184222951   -0.6546474824
H        4.5809408627   -1.5395337539   -1.3316869002
H        5.3101469114   -1.9978006885    0.2290492683
H        5.2035425595   -0.2796677223   -0.2419752889
H        2.4215966546   -0.5491676956    2.1444190807
H        3.9451082435    0.2838552956    1.7993053636
H        3.9536089352   -1.4136882536    2.3654711245
H        0.2371714400   -1.9912234111   -1.0702595400
H        0.0825269285   -1.7113450659    0.6760880774
19   
torsion grid (30,)
C        0.7358285290    0.0138493449   -0.5506497633
C        4.6896137401   -1.2662558647   -0.2438603722
C        3.3607805785   -0.7464875222    1.7606933662
C        0.6441690693   -1.4449927280   -0.1163438152
N        3.3452995858   -1.0773977455    0.3279117363
O        2.1653852836   -3.3126795997    1.0356648463
O        2.5754391197   -2.7534630848   -1.4167821302
S        2.2443467496   -2.3247050866   -0.0512376683
H        1.2477436774    0.1077960089   -1.5116801426
H        1.2710307348    0.6213575433    0.1804635715
H       -0.2772937874    0.4147080909   -0.6619670645
H        4.6034913759   -1.5203319287   -1.2993356190
H        5.2615293068   -2.0491354921    0.2731206877
H        5.2208102119   -0.3150630531   -0.1474365574
H        2.3445589781   -0.5691157197    2.1211981091
H        3.9297643934    0.1790685349    1.8853633757
H        3.8113998575   -1.5391663311    2.3712757715
H        0.0686927906   -2.0511197327   -0.8207964077
H        0.2004916653   -1.5556434548    0.8756044885
19   
torsion grid (45,)
C        0.7303184978   -0.0275159968   -0.6797864958
C        4.7367672457   -1.1797829932   -0.2105207647
C        3.4220316136   -0.7904327036    1.8314447926
C        0.7038448780   -1.4013353924   -0.0201229512
N        3.3952397304   -1.0326243365    0.3810297722
O        2.2629713805   -3.3349508598    0.9397865062
O        2.6038873690   -2.5846213655   -1.4712840038
S        2.3035507826   -2.2657015010   -0.0693914481
H        1.0897444339   -0.0966722372   -1.7098277282
H        1.3783544902    0.6613505353   -0.1351801980
H       -0.2843612699    0.3833964869   -0.6981322664
H        4.6434942328   -1.3746911223   -1.2779439913
H        5.3171440665   -1.9867546144    0.2577329158
H        5.2631196461   -0.2322613216   -0.0651053929
H        2.4109762795   -0.6149008481    2.2066843831
H        4.0076075971    0.1159358113    2.0082043244
H        3.8623985426   -1.6256157709    2.3906847869
H        0.0379416575   -2.1005516784   -0.5336087427
H        0.4050307274   -1.3591569384    1.0299502619
19   
torsion grid (60,)
C        0.7217471919   -0.0915899825   -0.8726679309
C        4.7381096385   -1.0578734810   -0.1579079900
C        3.5003185995   -0.8981556203    1.9616784985
C        0.7452623138   -1.3196152258    0.0293736751
N        3.4195736884   -1.0090818796    0.4972616599
O        2.2526187970   -3.3117558404    0.9365400733
O        2.6456020167   -2.4769073450   -1.4404189033
S        2.3255793849   -2.2083330095   -0.0328042647
H        0.9356000753   -0.3676257975   -1.9079778351
H        1.4602393391    0.6449153812   -0.5477540943
H       -0.2707112251    0.3686866174   -0.8357527909
H        4.6074093415   -1.1590213191   -1.2342762696
H        5.3602851535   -1.8853106976    0.2102342821
H        5.2437760660   -0.1114480404    0.0535238390
H        2.5026812008   -0.7921597167    2.3929244518
H        4.0672211985    0.0069077571    2.1964973043
H        3.9885677939   -1.7658358924    2.4227444860
H        0.0189148040   -2.0790927123   -0.2743818314
H        0.5618916084   -1.0798633815    1.0795752465
19   
torsion grid (75,)
C        0.6564638218   -0.1558587039   -1.0449067367
C        4.7616031385   -0.9990437352   -0.1275170815
C        3.5483417631   -1.0053033193    2.0105844050
C        0.7802468984   -1.2210938898    0.0376839081
N        3.4499669212   -0.9966368886    0.5430858971
O        2.2388452109   -3.2945131708    0.8357998754
O        2.6718754295   -2.3412745575   -1.4884615618
S        2.3409218105   -2.1421235258   -0.0725342560
H        0.7301114081   -0.6035204439   -2.0379678444
H        1.4415443560    0.5983204599   -0.9436524847
H       -0.3139768026    0.3426596763   -0.9560361863
H        4.6205176382   -1.0079547789   -1.2073341752
H        5.3811333197   -1.8589611101    0.1623086425
H        5.2770210814   -0.0776364466    0.1579773943
H        2.5560995071   -0.9465934483    2.4624027527
H        4.1109590136   -0.1172613502    2.3115534721
H        4.0496336490   -1.9035078225    2.3921065918
H        0.0154132193   -1.9976936407   -0.0535987880
H        0.7294479270   -0.8121772907    1.0492669294
19   
torsion grid (90,)
C        0.5333095828   -0.2155756026   -1.1425182832
C        4.8154966879   -0.9819140726   -0.0651416701
C        3.5671561418   -1.0776991100    2.0483820489
C        0.8119222314   -1.1081185160    0.0613434558
N        3.4925352817   -0.9722731368    0.5832373043
O        2.2371587652   -3.2595672768    0.7117216572
O        2.6995639509   -2.1602977050   -1.5404419928
S        2.3624263044   -2.0497168245   -0.1163680627
H        0.4850464420   -0.8044990795   -2.0600715244
H        1.3127659997    0.5419376619   -1.2612097172
H       -0.4242864405    0.2952684253   -0.9995029871
H        4.6935699612   -0.9256101275   -1.1459152390
H        5.4010556430   -1.8772292529    0.1858022599
H        5.3557658241   -0.0958710288    0.2799995802
H        2.5698665244   -1.0198983063    2.4895674489
H        4.1498238438   -0.2275949303    2.4138400557
H        4.0363620891   -2.0130119271    2.3779444866
H        0.0498928877   -1.8819786916    0.1851224832
H        0.8911607604   -0.5490383638    0.9956144664
19   
torsion grid (105,)
C        0.4063115255   -0.3205487558   -1.2039776687
C        4.8869049759   -1.0063101499    0.0029178114
C        3.5719902704   -1.1532189217    2.0721655430
C        0.8561068767   -1.0210644600    0.0737752840
N        3.5463460449   -0.9696037542    0.6130542754
O        2.2544405644   -3.2434522234    0.5641313547
O        2.7518389029   -1.9837754728   -1.5930843458
S        2.4012718120   -1.9748316270   -0.1679313310
H        0.2485273101   -1.0381648023   -2.0111831268
H        1.1485096895    0.4081256069   -1.5387917138
H       -0.5346591772    0.2048858206   -1.0110559401
H        4.8001553897   -0.8875208507   -1.0762144952
H        5.4251101901   -1.9389779210    0.2221805601
H        5.4542759324   -0.1647281045    0.4101971210
H        2.5640235430   -1.0762990024    2.4862572933
H        4.1762192243   -0.3479102834    2.4989220647
H        3.9925895663   -2.1230226335    2.3659300242
H        0.1319051399   -1.7646303204    0.4133768977
H        1.0493023396   -0.3178339428    0.8855555731
19   
torsion grid (120,)
C        0.2812508920   -0.4140527799   -1.2411872097
C        4.9680922341   -1.0421597031    0.0506705001
C        3.5519930615   -1.1932302670    2.0482222151
C        0.9119569101   -0.9224622809    0.0523185669
N        3.6038853744   -0.9377309664    0.5998662237
O        2.2998526125   -3.2007679103    0.3256666842
O        2.8148681008   -1.7352211012   -1.6892856086
S        2.4545578131   -1.8639627160   -0.2720944833
H        0.0288460890   -1.2380536957   -1.9119966958
H        0.9584642422    0.2580490778   -1.7720309200
H       -0.6366755017    0.1306549884   -0.9975900585
H        4.9422229972   -0.8621412153   -1.0232858357
H        5.4282755900   -2.0208888014    0.2454212116
H        5.5712524135   -0.2648154151    0.5279053964
H        2.5322326639   -1.0724349494    2.4216220794
H        4.1822599462   -0.4480014558    2.5412124373
H        3.9010287342   -2.1999641076    2.3105372618
H        0.2639955379   -1.6203944051    0.5854943956
H        1.1861140054   -0.1008331329    0.7158088799
19   
torsion grid (135,)
C        0.1803241548   -0.5289508259   -1.2321540422
C        5.0259959763   -1.0637500325    0.1094201862
C        3.5345187755   -1.2455101947    2.0487406880
C        0.9699750690   -0.8211805234    0.0418829938
N        3.6491354695   -0.9202770838    0.6177110995
O        2.3162758218   -3.1415518443    0.1425555464
O        2.8787998036   -1.5193547465   -1.7329612541
S        2.4982836350   -1.7607348429   -0.3356461430
H       -0.1291916681   -1.4501273784   -1.7320733090
H        0.7758038149    0.0562938544   -1.9350116141
H       -0.7179018466    0.0386329594   -0.9690718823
H        5.0464326353   -0.8263178899   -0.9535490848
H        5.4322653960   -2.0725280210    0.2672008300
H        5.6473910877   -0.3424075358    0.6472226698
H        2.5103852311   -1.0857046767    2.3945721923
H        4.1854617361   -0.5611676877    2.5996194938
H        3.8217055787   -2.2814294000    2.2701276335
H        0.4110058025   -1.4370601041    0.7483475840
H        1.2933468163    0.1004047018    0.5290802365
19   
torsion grid (150,)
C        0.1345005455   -0.5995741229   -1.2431457898
C        5.0771397058   -1.0336933439    0.1587558979
C        3.5312629661   -1.3055989625    2.0445569188
C        1.0428096296   -0.6662159167   -0.0164310705
N        3.6905898055   -0.8902610073    0.6411095913
O        2.3013087814   -3.0320871775   -0.0158721254
O        2.9743630645   -1.3117725987   -1.7640383380
S        2.5457398878   -1.6307894786   -0.3964498995
H       -0.1919729164   -1.5959770533   -1.5529244871
H        0.6490869397   -0.1281932848   -2.0822604851
H       -0.7538942107   -0.0103738179   -0.9958609166
H        5.1309343505   -0.7304219157   -0.8860897745
H        5.4566874551   -2.0597397662    0.2622045230
H        5.6997438210   -0.3625633732    0.7567356477
H        2.5059033595   -1.1316659394    2.3787304581
H        4.1918412043   -0.6822245609    2.6531757304
H        3.7790582989   -2.3631455097    2.2022312180
H        0.5621178664   -1.1614469540    0.8290978436
H        1.3901294147    0.3249534806    0.2813892773
19   
torsion grid (165,)
C        0.1014504900   -0.6909666761   -1.2255044898
C        5.1007967637   -0.9938178578    0.2129490761
C        3.5339963237   -1.4210086211    2.0542341129
C        1.1174292827   -0.5272410518   -0.0961277025
N        3.7057541308   -0.9115731267    0.6837478113
O        2.2332949521   -2.9560197268   -0.0714031767
O        3.0724265320   -1.2484458493   -1.7629858652
S        2.5736279108   -1.5667860275   -0.4190219183
H       -0.2448278783   -1.7251773925   -1.3008277616
H        0.5356720729   -0.3967826064   -2.1832087382
H       -0.7645580637   -0.0534591183   -1.0235460658
H        5.1631968194   -0.6230940366   -0.8092030612
H        5.5002157196   -2.0166543029    0.2541242543
H        5.7013716517   -0.3515421566    0.8629970919
H        2.5009323324   -1.2915638289    2.3833702435
H        4.1732462204   -0.8263050669    2.7123768871
H        3.8009076401   -2.4815106196    2.1455286785
H        0.7130677589   -0.8346336211    0.8705435078
H        1.4940264275    0.4951341892   -0.0283430752
19   
torsion grid (180,)
C        0.0478515407   -0.7334108764   -1.1616465986
C        5.1045222350   -0.9382590320    0.2563051363
C        3.5008769725   -1.5085108684    2.0290587485
C        1.1815207734   -0.3861328578   -0.1985493473
N        3.6977271370   -0.9180385385    0.6955042455
O        2.1616960945   -2.8649157135   -0.1502397268
O        3.1618812053   -1.1908004942   -1.7896843181
S        2.5911344340   -1.4945377610   -0.4713244175
H       -0.2982442270   -1.7582660565   -1.0070424832
H        0.3708638142   -0.6252352213   -2.1999091726
H       -0.7924494917   -0.0540799660   -0.9898832692
H        5.1831886589   -0.5077966803   -0.7409142914
H        5.5279821367   -1.9520596959    0.2468512457
H        5.6737896977   -0.3218787642    0.9577321294
H        2.4549961469   -1.4306148415    2.3321885033
H        4.1029277912   -0.9346755011    2.7389176367
H        3.7961288932   -2.5645271774    2.0681402044
H        0.8813382148   -0.5020583019    0.8455808381
H        1.5695552093    0.6225812864   -0.3523593782
