32
0 1 C10H18N2O2
C                     0.299767861791    -3.044353095667    -2.967015153395
C                    -0.484283424815     1.324920598954     2.009681328335
C                    -0.196822251113    -0.086677761287     1.482504370479
C                    -1.007607999037    -0.027346893978    -1.000159432914
C                     0.888606008764    -0.923903922626    -0.755023926895
C                     0.561544625808     2.147636853471     1.248943827470
C                     0.145906936611     0.186024400713     0.017953575147
C                     1.004715717491    -4.758438584756    -4.556311628445
C                    -0.416007176601    -2.913449163786    -5.363633064841
C                    -0.460736398926    -1.735873641058    -2.720264619697
N                    -0.413994392870    -1.342105697663    -1.333642465989
N                     0.198727003316    -3.587272440528    -4.228828909302
O                     0.970927170494    -3.569080137666    -2.079628114920
O                     0.759167003447     1.475290494449    -0.009989405208
H                    -1.496323637540     1.638721563025     1.730613857713
H                    -0.385158108466     1.415912329281     3.094881269413
H                     0.675503525513    -0.513872707224     1.990875931341
H                    -1.028916150233    -0.785721089420     1.590655338626
H                    -2.039567600869    -0.065173078967    -0.628994087549
H                    -0.930621636812     0.710593345729    -1.814859705752
H                     1.571861366567    -0.486062259301    -1.499378487617
H                     1.406164890352    -1.702600496789    -0.191199187614
H                     0.245651152168     3.175808546620     1.046254768543
H                     1.516443060925     2.176546090245     1.791441386344
H                     0.388753984031    -5.499607138829    -5.077915694093
H                     1.392051353136    -5.188414679733    -3.634329603363
H                     1.848267964837    -4.486450256354    -5.205636736179
H                     0.323212290803    -2.352682089804    -5.953951219928
H                    -1.198392306426    -2.225289730268    -5.047291716777
H                    -0.876965877581    -3.659709228143    -6.019060088532
H                    -0.037081918409    -0.959478432125    -3.391218819313
H                    -1.513005319386    -1.856200908029    -3.004674097218
