43
0 1 C17FH20N3O2
C                     1.795991622425    -6.947264533806     3.898142048608
C                     2.294034342648    -7.180219057782     5.162489012865
C                     1.453805539855    -5.017845375717     5.933876374431
C                    -0.233677014913    -3.422942188743     3.008334834035
C                     0.941300210669    -4.774254506226     4.633740229357
C                     1.107367978782    -5.741092274613     3.593701372126
C                     0.238749337230    -3.583072133460     4.294222295325
C                     2.110408977403    -6.201353292484     6.162240963451
C                    -0.001529300972    -4.443983700530     2.046467330848
C                     0.603933588378     0.559051163959    -1.638999576856
C                     0.116587735668    -0.837221493996    -3.527635094945
C                     0.188580633563    -3.249299275318    -1.584149036027
C                     0.604252967992    -2.023691210319     0.080445556608
C                    -0.194764175105     1.681010394684    -2.295292244504
C                    -0.671988704020     0.314596343878    -4.142725871509
C                     0.800252173914    -1.834537440795    -1.442904817405
C                    -0.474568435033    -4.246737578471     0.621198180088
N                     0.638436768030    -5.565944248906     2.322651145513
N                     0.078285576945    -0.741543132162    -2.064965312926
N                     0.492895207116    -3.481566816147    -0.153917938733
O                    -0.165536241356     1.578912150181    -3.717583466386
O                     0.069471389653    -2.660613631926     5.286219810069
F                     2.611879194296    -6.458843890430     7.398502402888
H                     1.917440517536    -7.674175572128     3.101160607906
H                     2.823656051592    -8.095422333378     5.409492175764
H                     1.330557188223    -4.289161477321     6.727202348922
H                    -0.783867265232    -2.528677809776     2.722912543083
H                     1.672896774518     0.669745712328    -1.902593927006
H                     0.517841430468     0.641054110265    -0.549549739515
H                    -0.330227058616    -1.788896858893    -3.836143736566
H                     1.155442373678    -0.812032907482    -3.907680552499
H                    -0.891556727349    -3.182221047266    -1.793508188484
H                     0.658025744180    -3.961121269986    -2.271094642860
H                     1.409976955975    -1.726293194581     0.758954496463
H                    -0.345037813266    -1.560999803231     0.400542422419
H                    -1.236174479746     1.647288693353    -1.939428084645
H                     0.232830717675     2.655898721189    -2.046762077263
H                    -0.590327299269     0.300081034157    -5.232647930718
H                    -1.733048813730     0.224041232376    -3.863471103905
H                     1.870867821729    -1.835104517677    -1.710051343666
H                    -0.574873477889    -5.232139931179     0.158975142457
H                    -1.469522796234    -3.759739559233     0.618595522521
H                    -0.423477274944    -1.900779346600     4.935786241374
