39
0 1 C18FH16N3O
C                     3.938893265921    -4.522463152130     4.239894465162
C                    -3.700011523260     1.609273920189    -2.451878538155
C                     3.850258543807    -3.285843311552     4.846796367268
C                    -2.384681361649     1.661235380994    -1.989136308887
C                     3.338231506151    -4.751423599980     2.978089080838
C                     2.321735594853     0.039828051793     4.071216154741
C                    -4.357521626582     0.375216678464    -2.459424552261
C                    -2.523183489801    -0.692747669815    -1.599709629493
C                     3.151379932665    -2.234058450654     4.202268118655
C                    -1.763455976560     0.486167666110    -1.546983020776
C                     2.536499514626    -2.433792081319     2.928167010793
C                     3.015472545589    -0.929741339939     4.764006396863
C                     2.662129438879    -3.729265556030     2.355212197176
C                     1.754048258817    -0.278884756315     2.806696287122
C                     0.086482701275    -0.487550908879     0.073366927690
C                     0.139395225822     1.612579102838    -0.115908965352
C                    -0.342227289599     0.479833182060    -1.060704925966
C                     0.951538599047     0.781701607497     2.078813896404
N                    -3.786564102386    -0.762910799919    -2.041970266493
N                     1.850648923612    -1.471141909162     2.252150119885
N                     0.915848464327     0.606373883794     0.642619977382
O                     3.599566523616    -0.718393248477     5.978343992711
F                     2.090851566675    -3.953267904464     1.152565094306
H                     4.472009470659    -5.333908032603     4.726931257214
H                    -4.210438641246     2.503517671829    -2.799320551658
H                     4.307714869544    -3.103388475713     5.813026010496
H                    -1.845327401163     2.606060975533    -1.968443559036
H                     3.400865793948    -5.719837226350     2.491002599046
H                     2.211161688304     1.044240175026     4.476332668550
H                    -5.384676622140     0.297498596451    -2.813233387834
H                    -2.086555991834    -1.632707543403    -1.263711522971
H                    -0.760951172039    -0.754874148578     0.724493772699
H                     0.641670871596    -1.390915140872    -0.180015937451
H                     0.735023997016     2.430247255479    -0.537601844158
H                    -0.702649930121     2.033704417919     0.459668741569
H                     0.343685934830     0.386363838740    -1.909278863955
H                    -0.068483225297     0.790878905608     2.519365349223
H                     1.386469591918     1.766025301254     2.290059168734
H                     3.440542744481     0.199073238673     6.254478636229
