
  -OEChem-05262117483D

 21 22  0     1  0  0  0  0  0999 V2000
    0.2125    3.7343    1.9901 C   0  0  0  0  0  0  0  0  0  0  0  0
    0.5237    2.6764    1.1268 C   0  0  0  0  0  0  0  0  0  0  0  0
   -0.4693    3.5044    3.1899 C   0  0  0  0  0  0  0  0  0  0  0  0
   -0.5545    1.1248    2.6316 C   0  0  0  0  0  0  0  0  0  0  0  0
    0.1336    1.3641    1.4234 C   0  0  0  0  0  0  0  0  0  0  0  0
   -0.8542    2.1921    3.4773 C   0  0  0  0  0  0  0  0  0  0  0  0
    0.7768    0.4048   -0.9701 C   0  0  0  0  0  0  0  0  0  0  0  0
   -0.3043   -0.6654   -1.2657 C   0  0  0  0  0  0  0  0  0  0  0  0
    0.4456    0.1880    0.5292 C   0  0  2  0  0  0  0  0  0  0  0  0
   -0.7254   -0.6941    0.1754 N   0  0  0  0  0  0  0  0  0  0  0  0
   -1.3508    1.6951    5.6331 I   0  0  0  0  0  0  0  0  0  0  0  0
    0.5143    4.7476    1.7366 H   0  0  0  0  0  0  0  0  0  0  0  0
    1.0830    2.8818    0.2183 H   0  0  0  0  0  0  0  0  0  0  0  0
   -0.6970    4.3214    3.8665 H   0  0  0  0  0  0  0  0  0  0  0  0
   -0.8346    0.1092    2.8955 H   0  0  0  0  0  0  0  0  0  0  0  0
    1.8010    0.1807   -1.2803 H   0  0  0  0  0  0  0  0  0  0  0  0
    0.4986    1.3959   -1.3378 H   0  0  0  0  0  0  0  0  0  0  0  0
   -1.0924   -0.3722   -1.9661 H   0  0  0  0  0  0  0  0  0  0  0  0
    0.0967   -1.6351   -1.5771 H   0  0  0  0  0  0  0  0  0  0  0  0
    1.2070   -0.4306    1.0212 H   0  0  0  0  0  0  0  0  0  0  0  0
   -1.5902   -0.1675    0.2920 H   0  0  0  0  0  0  0  0  0  0  0  0
  1  2  1  0  0  0  0
  1  3  2  0  0  0  0
  1 12  1  0  0  0  0
  2  5  2  0  0  0  0
  2 13  1  0  0  0  0
  3  6  1  0  0  0  0
  3 14  1  0  0  0  0
  4  5  1  0  0  0  0
  4  6  2  0  0  0  0
  4 15  1  0  0  0  0
  5  9  1  0  0  0  0
  6 11  1  0  0  0  0
  7  8  1  0  0  0  0
  7  9  1  0  0  0  0
  7 16  1  0  0  0  0
  7 17  1  0  0  0  0
  8 10  1  0  0  0  0
  8 18  1  0  0  0  0
  8 19  1  0  0  0  0
  9 10  1  0  0  0  0
  9 20  1  0  0  0  0
 10 21  1  0  0  0  0
M  END
$$$$
