
  -OEChem-05262117483D

 39 42  0     0  0  0  0  0  0999 V2000
   -4.6337   -5.6909    4.1169 C   0  0  0  0  0  0  0  0  0  0  0  0
    4.2316   -0.6116    0.8925 C   0  0  0  0  0  0  0  0  0  0  0  0
   -3.5601   -4.8654    4.3809 C   0  0  0  0  0  0  0  0  0  0  0  0
    3.0310   -1.0727    0.3492 C   0  0  0  0  0  0  0  0  0  0  0  0
   -5.3560   -5.5652    2.9066 C   0  0  0  0  0  0  0  0  0  0  0  0
   -1.7601   -2.0560    2.6607 C   0  0  0  0  0  0  0  0  0  0  0  0
    4.5488    0.7428    0.7649 C   0  0  0  0  0  0  0  0  0  0  0  0
    2.6084    1.1627   -0.3742 C   0  0  0  0  0  0  0  0  0  0  0  0
   -3.1637   -3.8753    3.4426 C   0  0  0  0  0  0  0  0  0  0  0  0
    2.1775   -0.1721   -0.2982 C   0  0  0  0  0  0  0  0  0  0  0  0
   -3.8777   -3.7304    2.2091 C   0  0  0  0  0  0  0  0  0  0  0  0
   -2.0655   -2.9797    3.6369 C   0  0  0  0  0  0  0  0  0  0  0  0
   -4.9759   -4.6112    1.9935 C   0  0  0  0  0  0  0  0  0  0  0  0
   -2.5421   -2.0141    1.4810 C   0  0  0  0  0  0  0  0  0  0  0  0
   -0.3567    0.2994   -0.6604 C   0  0  0  0  0  0  0  0  0  0  0  0
    0.0760   -1.7249   -0.2460 C   0  0  0  0  0  0  0  0  0  0  0  0
    0.8828   -0.5986   -0.9497 C   0  0  0  0  0  0  0  0  0  0  0  0
   -2.2312   -0.9855    0.4114 C   0  0  0  0  0  0  0  0  0  0  0  0
    3.7563    1.6240    0.1380 N   0  0  0  0  0  0  0  0  0  0  0  0
   -3.5650   -2.8216    1.2482 N   0  0  0  0  0  0  0  0  0  0  0  0
   -0.8127   -0.6940    0.3338 N   0  0  0  0  0  0  0  0  0  0  0  0
   -1.2946   -3.0015    4.7611 O   0  0  0  0  0  0  0  0  0  0  0  0
   -5.6658   -4.4961    0.8419 F   0  0  0  0  0  0  0  0  0  0  0  0
   -4.9324   -6.4456    4.8384 H   0  0  0  0  0  0  0  0  0  0  0  0
    4.9111   -1.2869    1.4052 H   0  0  0  0  0  0  0  0  0  0  0  0
   -3.0295   -4.9953    5.3221 H   0  0  0  0  0  0  0  0  0  0  0  0
    2.7660   -2.1234    0.4317 H   0  0  0  0  0  0  0  0  0  0  0  0
   -6.2030   -6.2070    2.6850 H   0  0  0  0  0  0  0  0  0  0  0  0
   -0.9289   -1.3709    2.7848 H   0  0  0  0  0  0  0  0  0  0  0  0
    5.4758    1.1371    1.1785 H   0  0  0  0  0  0  0  0  0  0  0  0
    1.9905    1.9034   -0.8811 H   0  0  0  0  0  0  0  0  0  0  0  0
   -0.1839    1.3004   -0.2523 H   0  0  0  0  0  0  0  0  0  0  0  0
   -1.0189    0.3730   -1.5378 H   0  0  0  0  0  0  0  0  0  0  0  0
   -0.4363   -2.3775   -0.9709 H   0  0  0  0  0  0  0  0  0  0  0  0
    0.5839   -2.3499    0.4949 H   0  0  0  0  0  0  0  0  0  0  0  0
    1.0553   -0.7797   -2.0146 H   0  0  0  0  0  0  0  0  0  0  0  0
   -2.6506   -1.3508   -0.5415 H   0  0  0  0  0  0  0  0  0  0  0  0
   -2.7565   -0.0534    0.6594 H   0  0  0  0  0  0  0  0  0  0  0  0
   -1.6228   -3.6735    5.3782 H   0  0  0  0  0  0  0  0  0  0  0  0
  1  3  1  0  0  0  0
  1  5  2  0  0  0  0
  1 24  1  0  0  0  0
  2  4  2  0  0  0  0
  2  7  1  0  0  0  0
  2 25  1  0  0  0  0
  3  9  2  0  0  0  0
  3 26  1  0  0  0  0
  4 10  1  0  0  0  0
  4 27  1  0  0  0  0
  5 13  1  0  0  0  0
  5 28  1  0  0  0  0
  6 12  2  0  0  0  0
  6 14  1  0  0  0  0
  6 29  1  0  0  0  0
  7 19  2  0  0  0  0
  7 30  1  0  0  0  0
  8 10  2  0  0  0  0
  8 19  1  0  0  0  0
  8 31  1  0  0  0  0
  9 11  1  0  0  0  0
  9 12  1  0  0  0  0
 10 17  1  0  0  0  0
 11 13  2  0  0  0  0
 11 20  1  0  0  0  0
 12 22  1  0  0  0  0
 13 23  1  0  0  0  0
 14 18  1  0  0  0  0
 14 20  2  0  0  0  0
 15 17  1  0  0  0  0
 15 21  1  0  0  0  0
 15 32  1  0  0  0  0
 15 33  1  0  0  0  0
 16 17  1  0  0  0  0
 16 21  1  0  0  0  0
 16 34  1  0  0  0  0
 16 35  1  0  0  0  0
 17 36  1  0  0  0  0
 18 21  1  0  0  0  0
 18 37  1  0  0  0  0
 18 38  1  0  0  0  0
 22 39  1  0  0  0  0
M  END
$$$$
