39
0 1 C18FH16N3O
C                     3.723500662455    -4.669607892446     4.279643733052
C                     1.835799390856     3.483094201497    -4.124317801931
C                     3.476156630056    -3.500185699342     4.970053222778
C                     1.207004792532     2.900624019617    -3.023215784042
C                     3.537872424969    -4.732326938558     2.877144400320
C                     2.324423513453    -0.034166453609     4.158185180456
C                     2.889500360100     2.794970630318    -4.733697195319
C                     2.712625099977     1.058326517826    -3.251409861581
C                     3.032356177333    -2.349936533223     4.269995816481
C                     1.645184727097     1.653114691021    -2.560897272258
C                     2.834159187328    -2.382500998079     2.855368636390
C                     2.755786428437    -1.105903914777     4.911044481513
C                     3.106498280844    -3.615593623835     2.201362665181
C                     2.162532837403    -0.189513583569     2.753819630207
C                     0.617005382046     1.801017546485    -0.140210804323
C                     1.839181944504     0.105454540378    -0.425232682755
C                     0.990434695687     0.968451526041    -1.395181838512
C                     1.736125190736     1.010379035500     1.931022871960
N                     3.328030911610     1.601312904147    -4.311085527288
N                     2.410803967107    -1.318297115354     2.119189519608
N                     1.051282322468     0.665208112999     0.703579144135
O                     2.935075032979    -1.056237331490     6.262284111214
F                     2.931669036781    -3.680802125924     0.864164033084
H                     4.064205403383    -5.555279375447     4.808194080398
H                     1.520934129703     4.450735313808    -4.505694335965
H                     3.616208665340    -3.444985737509     6.044062970888
H                     0.385092199444     3.410793946895    -2.525026889197
H                     3.729403819452    -5.646300358691     2.323088801525
H                     2.100049624407     0.922743119497     4.626334801760
H                     3.403556009177     3.219919986303    -5.594760371659
H                     3.092725576085     0.089703173236    -2.928274894151
H                     1.268131189867     2.686601778747    -0.043077422121
H                    -0.427650625725     2.102479886622    -0.002352330288
H                     1.801104776056    -0.980891471536    -0.508510364044
H                     2.891906142577     0.429348781852    -0.404760377547
H                     0.119710717311     0.398513736914    -1.736243932811
H                     1.063121159694     1.634172618136     2.531509399988
H                     2.642214828241     1.624461263802     1.739854831717
H                     2.715872681686    -0.165557249691     6.581537288631
