18   
torsion grid (-165,)
C        4.4133391404   -1.4055386252   -3.1920559307
C        4.6277504498   -2.0213795122   -1.9811740770
C        3.0022531369   -0.4968885863   -1.8246820925
C        1.0722620437   -0.3964670885   -0.1972947969
C        1.0805805978    1.0336507293   -2.2922301341
C        1.9417270686    0.3777781157   -1.2047160132
N        3.4062518983   -0.4658674348   -3.0843870203
N        3.7199248609   -1.4322814282   -1.1156684200
H        4.9206173611   -1.5850125068   -4.1312590278
H        5.3072585271   -2.7996747664   -1.6641745615
H        0.5602850852   -1.2326610036   -0.6854325534
H        0.3119563303    0.2643712658    0.2311532895
H        1.6553628831   -0.7973964327    0.6403048499
H        0.5290538397    0.2759386520   -2.8578179698
H        1.6989714534    1.5878291021   -3.0010029452
H        0.3599946164    1.7203594313   -1.8355595667
H        2.4547186251    1.1798496488   -0.6537357657
H        3.5999567983   -1.6631700199   -0.1391739176
18   
torsion grid (-150,)
C        4.5265031052   -1.2866583225   -3.1399935178
C        4.5582530848   -2.0717518699   -2.0107342135
C        3.0134440772   -0.4695525186   -1.8260833980
C        1.1395983241   -0.3243422271   -0.1294293001
C        1.0225878011    0.9616448618   -2.3151237945
C        1.9429414482    0.4032515351   -1.2192553808
N        3.5683256851   -0.3003382050   -3.0160101032
N        3.5870481483   -1.5385069228   -1.1785635902
H        5.1321549457   -1.3772306114   -4.0325924010
H        5.1487011877   -2.9328742949   -1.7319998414
H        0.6413366949   -1.2134370866   -0.5320687599
H        0.3676619995    0.3382829825    0.2738251735
H        1.7662088039   -0.6321401995    0.7164631240
H        0.4635038515    0.1534262148   -2.7988286229
H        1.6038780945    1.4718540302   -3.0853994347
H        0.3056865710    1.6679309492   -1.8827707426
H        2.4498013824    1.2561303122   -0.7452655535
H        3.3369247938   -1.8865958092   -0.2635623218
18   
torsion grid (-135,)
C        4.6079257973   -1.1935382805   -3.1111586558
C        4.4766681317   -2.1148290624   -2.0973351415
C        3.0248426691   -0.4373347583   -1.8446698226
C        1.2061521059   -0.2614134030   -0.0884795354
C        0.9622875358    0.8846943631   -2.3419222777
C        1.9415972102    0.4260798748   -1.2480544971
N        3.7056742843   -0.1620173420   -2.9463431622
N        3.4619394208   -1.6184269028   -1.2945397951
H        5.2951866707   -1.2157519540   -3.9472415064
H        4.9856385733   -3.0424772929   -1.8779177147
H        0.7073646536   -1.1796539740   -0.4210618011
H        0.4353348096    0.4026902370    0.3138401664
H        1.8798975236   -0.5100593531    0.7402347981
H        0.4114385052    0.0298883893   -2.7500992674
H        1.5016175202    1.3612882554   -3.1630587231
H        0.2380966095    1.5968402920   -1.9314019971
H        2.4337276252    1.3229220589   -0.8480354645
H        3.1017563163   -2.0561540429   -0.4580832755
18   
torsion grid (-120,)
C        4.7106361807   -1.1240900230   -3.0086790391
C        4.4186371367   -2.1460626169   -2.1342800317
C        3.0569494332   -0.4065917245   -1.8130725024
C        1.2685621793   -0.1907559956   -0.0302110822
C        0.9320800185    0.7996077421   -2.3450316710
C        1.9523931507    0.4484763785   -1.2464596913
N        3.8635765943   -0.0539594715   -2.8017846471
N        3.3588521996   -1.6736408721   -1.3760426449
H        5.4801341440   -1.0976202476   -3.7696261353
H        4.8450858680   -3.1273582745   -1.9830818846
H        0.7598275780   -1.1246301434   -0.3007142361
H        0.5069786837    0.4840601588    0.3718097404
H        1.9793305067   -0.4008827087    0.7772720241
H        0.4105377763   -0.1001178189   -2.6911648139
H        1.4359517595    1.2512336986   -3.2025844987
H        0.1842169143    1.5038415993   -1.9637437345
H        2.4223046585    1.3843891560   -0.9197716077
H        2.8929492952   -2.1749451174   -0.6325282920
18   
torsion grid (-105,)
C        4.8044905071   -1.0621274152   -2.9080622191
C        4.3606579809   -2.1595207868   -2.2062018567
C        3.0841108739   -0.3766621151   -1.7904546659
C        1.3326978079   -0.1166331543    0.0215385315
C        0.9030322278    0.7194524457   -2.3402093868
C        1.9631473199    0.4703156698   -1.2495078046
N        4.0077748009    0.0347055986   -2.6445319194
N        3.2601387473   -1.7068348620   -1.4949884128
H        5.6506771255   -0.9984738682   -3.5801788229
H        4.7122197818   -3.1791206777   -2.1390662255
H        0.8168554003   -1.0635005016   -0.1844162636
H        0.5818627832    0.5705378402    0.4231598637
H        2.0793684844   -0.2912071013    0.8036786522
H        0.4186510997   -0.2191545478   -2.6335414773
H        1.3647406668    1.1563854540   -3.2291919456
H        0.1282341843    1.4032212669   -1.9755536423
H        2.4134569528    1.4368824289   -0.9973771134
H        2.6936013537   -2.2582137765   -0.8653547447
18   
torsion grid (-90,)
C        4.8861135462   -1.0334667964   -2.7951895545
C        4.3054408790   -2.1722726013   -2.2863552126
C        3.0957116883   -0.3653114337   -1.7821085963
C        1.3910513729   -0.0419584908    0.0601354580
C        0.8613004254    0.6278388286   -2.3343595016
C        1.9638930194    0.4800338055   -1.2667765273
N        4.1305345677    0.0789201382   -2.4767943515
N        3.1591933448   -1.7312148247   -1.6431719809
H        5.8028144300   -0.9502368213   -3.3647713434
H        4.5903881823   -3.2144294510   -2.3094165545
H        0.8949490366   -1.0129885482   -0.0668580892
H        0.6353570901    0.6495535410    0.4457381605
H        2.1707897850   -0.1523897554    0.8204768187
H        0.3937902372   -0.3397591962   -2.5515746457
H        1.2775516751    1.0206539304   -3.2659399576
H        0.0782289393    1.3114507300   -1.9876611166
H        2.3987657269    1.4696982072   -1.0936604610
H        2.5022951072   -2.3110323096   -1.1392612650
18   
torsion grid (-75,)
C        4.9733871601   -1.0261743349   -2.6395575846
C        4.2691846055   -2.1742746301   -2.3601555004
C        3.1027383891   -0.3612479552   -1.7796197302
C        1.4569382748    0.0324421905    0.0950690654
C        0.8168541190    0.5331561549   -2.3153790772
C        1.9629461027    0.4843385573   -1.2859740211
N        4.2428290468    0.0901423378   -2.2762433926
N        3.0736236067   -1.7354192697   -1.8122140276
H        5.9603404028   -0.9387417139   -3.0752951331
H        4.4953863566   -3.2231993296   -2.4886288060
H        0.9981569722   -0.9635531228    0.0513504612
H        0.6914279365    0.7218930580    0.4659213116
H        2.2707728229   -0.0019081283    0.8257838883
H        0.3675009696   -0.4573594340   -2.4548414444
H        1.1807951942    0.8786935229   -3.2872681339
H        0.0267270835    1.2139305963   -1.9799622520
H        2.3810731244    1.4910597412   -1.1920074294
H        2.3222113751   -2.3250562648   -1.4811037535
18   
torsion grid (-60,)
C        5.0353130007   -1.0357781121   -2.4587945150
C        4.2400009214   -2.1576738290   -2.4331478290
C        3.0930716482   -0.3515355277   -1.7950490164
C        1.5242417859    0.1173037256    0.1171046138
C        0.7523776174    0.4461418382   -2.2842872310
C        1.9479544645    0.4942425643   -1.3152273570
N        4.3158653683    0.0767273281   -2.0620812393
N        3.0000932066   -1.7069439856   -2.0069816277
H        6.0784577902   -0.9642265133   -2.7385746327
H        4.4270175177   -3.1949859934   -2.6718366506
H        1.1167259408   -0.9002556142    0.1584443969
H        0.7466851300    0.7982823463    0.4796677703
H        2.3742524181    0.1678156161    0.8039610518
H        0.3126113085   -0.5579139695   -2.3298279055
H        1.0542543509    0.7277687237   -3.2975126478
H       -0.0352752618    1.1326573305   -1.9560502083
H        2.3428259960    1.5144207635   -1.3013358666
H        2.1751342479   -2.2768839399   -1.8779051939
18   
torsion grid (-45,)
C        4.4676542239   -2.3432517450   -1.6958817815
C        4.5077520651   -1.5425138143   -2.8137427687
C        2.9224814457   -0.8588938469   -1.3983173933
C        0.4327398409   -0.5489246385   -1.4700754103
C        1.9472792077    1.4406134055   -1.0086422898
C        1.7624176033   -0.0776157453   -0.8482380440
N        3.4838284316   -1.9112962285   -0.8259908538
N        3.5122630175   -0.5987184512   -2.6125985781
H        5.0897911810   -3.1986455561   -1.4659469387
H        5.1302076788   -1.5466399647   -3.6971589489
H        0.4056674278   -0.3418722224   -2.5464806480
H       -0.4143139089   -0.0306908569   -1.0070337200
H        0.2988070588   -1.6251375866   -1.3290082246
H        1.9353270150    1.7405723393   -2.0644112000
H        2.8918865778    1.7774717444   -0.5705480818
H        1.1304233640    1.9781028518   -0.5163606130
H        1.7416740656   -0.3163613432    0.2195347288
H        3.2804321320    0.1602222940   -3.2387576965
18   
torsion grid (-30,)
C        4.3674264174   -2.4215607250   -1.7768730839
C        4.5743673162   -1.4892938796   -2.7674987955
C        2.9217966681   -0.8556853707   -1.4073294595
C        0.4308570424   -0.5938976864   -1.3823730278
C        1.9168073893    1.4490247830   -1.1102919651
C        1.7747975138   -0.0581689405   -0.8494411403
N        3.3435956219   -2.0199676864   -0.9406544223
N        3.6427049123   -0.4930124776   -2.5195739405
H        4.8987488023   -3.3505902203   -1.6145807360
H        5.2743589304   -1.4342226473   -3.5889293213
H        0.3576221339   -0.4551206003   -2.4673876382
H       -0.4075083608   -0.0647819963   -0.9154973000
H        0.3310774300   -1.6613381292   -1.1686835745
H        1.8425455877    1.6830634732   -2.1803057000
H        2.8709942726    1.8364438871   -0.7385956395
H        1.1114709415    1.9975152138   -0.6120340564
H        1.7984942175   -0.2287502453    0.2319624324
H        3.5238314577    0.3542863394   -3.0576367759
18   
torsion grid (-15,)
C        4.2649796145   -2.4798498259   -1.8808687543
C        4.6311435873   -1.4491979718   -2.7162086659
C        2.9020517459   -0.8611291988   -1.4327830534
C        0.4158429963   -0.6291227980   -1.2901906506
C        1.8785814067    1.4455632340   -1.2038470745
C        1.7744618313   -0.0460446881   -0.8559138364
N        3.1955086093   -2.1059325976   -1.0915986724
N        3.7506348241   -0.4204737050   -2.4193357015
H        4.7110854679   -3.4628970273   -1.8004851326
H        5.4075754135   -1.3483752212   -3.4609643801
H        0.2855642669   -0.5433817679   -2.3751796530
H       -0.4066755377   -0.0924862798   -0.8040879599
H        0.3513358743   -1.6865095408   -1.0223477391
H        1.7601824693    1.6166120465   -2.2815640919
H        2.8358307489    1.8735445850   -0.8862510807
H        1.0825315511    2.0061660370   -0.7047204149
H        1.8487768490   -0.1519893456    0.2325499748
H        3.7420320086    0.4943615261   -2.8486613233
18   
torsion grid (0,)
C        4.1897543752   -2.5093515027   -1.9967727350
C        4.6998236209   -1.4150253552   -2.6574529696
C        2.8872735136   -0.8621722934   -1.4773640537
C        0.4101811780   -0.6571651514   -1.2092203239
C        1.8401573432    1.4393013477   -1.3061896093
C        1.7786323738   -0.0338558366   -0.8791748524
N        3.0699266246   -2.1570736673   -1.2707737868
N        3.8570914823   -0.3688802552   -2.3163733549
H        4.5640055773   -3.5251113539   -2.0021500464
H        5.5473205141   -1.2835243781   -3.3148168311
H        0.2133365607   -0.6092465496   -2.2862863326
H       -0.3908354861   -0.1198070609   -0.6895781946
H        0.3855637039   -1.7062887481   -0.9064556321
H        1.7079711206    1.5473511931   -2.3899038095
H        2.7867730258    1.9126752400   -1.0202720098
H        1.0364156029    2.0044223647   -0.8249857782
H        1.9079105482   -0.0767837760    0.2098386476
H        3.9418074355    0.5869369956   -2.6331834711
18   
torsion grid (15,)
C        4.1314647864   -2.5115545123   -2.1106868871
C        4.7697517034   -1.3858533437   -2.5785773213
C        2.8830679367   -0.8488082773   -1.5115974686
C        0.4212775185   -0.6747929439   -1.1155032167
C        1.7991054408    1.4382496655   -1.4006598296
C        1.7907154194   -0.0118368869   -0.8937274957
N        2.9669280283   -2.1688354767   -1.4535396057
N        3.9610257794   -0.3302300468   -2.1887405665
H        4.4407761371   -3.5439800316   -2.2119435973
H        5.6840760560   -1.2383548671   -3.1353711937
H        0.1664987009   -0.6866180677   -2.1810347957
H       -0.3593038083   -0.1234428517   -0.5800981537
H        0.4326680259   -1.7075575563   -0.7615377676
H        1.6538814798    1.4809090452   -2.4864735030
H        2.7313904017    1.9599504621   -1.1526532025
H        0.9851842258    2.0031665412   -0.9363461226
H        1.9767735078    0.0107248587    0.1889511428
H        4.1312817338    0.6471724567   -2.3802374905
18   
torsion grid (30,)
C        4.0657394444   -2.5088162694   -2.2533449087
C        4.8224049574   -1.3879172357   -2.5048551598
C        2.8788330438   -0.8411117297   -1.5494112765
C        0.4375783296   -0.6934513055   -1.0301258967
C        1.7529853546    1.4250825398   -1.4994384425
C        1.8012993523    0.0030507870   -0.9155048095
N        2.8668877009   -2.1597979142   -1.6632312838
N        4.0529142128   -0.3289521886   -2.0502501482
H        4.3120024750   -3.5413985340   -2.4651477341
H        5.7931115401   -1.2444698042   -2.9576772088
H        0.1337742145   -0.7768868646   -2.0789537585
H       -0.3247308660   -0.1191909827   -0.4928810098
H        0.4801152971   -1.7024998195   -0.6159037196
H        1.5579011941    1.4018739155   -2.5773029082
H        2.6835769904    1.9802124549   -1.3302057106
H        0.9515989730    1.9993876118   -1.0243967607
H        2.0417120405    0.0907003035    0.1540969095
H        4.3058167456    0.6481435128   -2.0978992694
18   
torsion grid (45,)
C        3.9996670651   -2.4625038701   -2.4117784903
C        4.8557960725   -1.3863210755   -2.4252574810
C        2.8717650282   -0.8176607513   -1.5698899095
C        0.4537288329   -0.6994737268   -0.9402851600
C        1.6917620084    1.4134903188   -1.6050693679
C        1.8020069943    0.0321231234   -0.9325060731
N        2.7762189772   -2.0999338245   -1.8816200731
N        4.1230261714   -0.3408878613   -1.8862407248
H        4.1903752936   -3.4714862960   -2.7541224200
H        5.8770879735   -1.2655358837   -2.7574386674
H        0.1105909923   -0.8673397685   -1.9658484637
H       -0.2983256577   -0.1021363898   -0.4141021295
H        0.5331905901   -1.6753227360   -0.4569610107
H        1.4372388070    1.3101654569   -2.6652246442
H        2.6219589333    1.9895215745   -1.5351354336
H        0.9089425235    2.0077120281   -1.1226665459
H        2.0892105705    0.1958168503    0.1167377491
H        4.4523044545    0.6058317786   -1.7567852436
18   
torsion grid (60,)
C        3.9642259078   -2.4057844883   -2.5814431494
C        4.8948767257   -1.4188050578   -2.3555361229
C        2.8857748379   -0.8129495459   -1.5896414452
C        0.4957191905   -0.7135579573   -0.8541772854
C        1.6501608464    1.3743820277   -1.7201370243
C        1.8236123806    0.0463847513   -0.9553360644
N        2.7253324396   -2.0205938660   -2.1044552505
N        4.1931882626   -0.4052082981   -1.7220352837
H        4.1125724983   -3.3666501767   -3.0571317368
H        5.9508697421   -1.3431061329   -2.5725598090
H        0.1222130747   -0.9725319389   -1.8488524765
H       -0.2519931170   -0.0928247165   -0.3494191504
H        0.6152767346   -1.6454495195   -0.2964325447
H        1.3282113242    1.1843221986   -2.7493618562
H        2.5801017280    1.9526837500   -1.7613359846
H        0.8933296183    1.9989694472   -1.2337934483
H        2.1552452389    0.2898199832    0.0647451624
H        4.5782856375    0.4764032533   -1.4110116384
18   
torsion grid (75,)
C        3.9401888765   -2.3153740841   -2.7208512001
C        4.9146868153   -1.4572297636   -2.2670778256
C        2.8904290496   -0.7960177641   -1.5937694486
C        0.5331765799   -0.7078237436   -0.7537902048
C        1.5957920132    1.3403315720   -1.8153593344
C        1.8353570701    0.0745807663   -0.9657660754
N        2.6919992871   -1.8964312829   -2.2997632952
N        4.2304199402   -0.4898947251   -1.5474395464
H        4.0640840407   -3.2086589292   -3.3194302647
H        5.9901369390   -1.4474680367   -2.3727683756
H        0.1342024140   -1.0540536015   -1.7107838422
H       -0.2144945306   -0.0696185553   -0.2712202193
H        0.6986519537   -1.5889110496   -0.1277716606
H        1.2222686214    1.0659182854   -2.8072208443
H        2.5159210634    1.9191740304   -1.9513012064
H        0.8553159425    1.9901063031   -1.3362402634
H        2.2085224514    0.3961645716    0.0172239308
H        4.6450741038    0.3000818699   -1.0712753676
18   
torsion grid (90,)
C        3.9259260855   -2.2148100306   -2.8402082636
C        4.9151108924   -1.5144705073   -2.1888898209
C        2.8926465601   -0.7584377804   -1.6202480684
C        0.5773968815   -0.6786751967   -0.6689893647
C        1.5321529969    1.3244071166   -1.9052210481
C        1.8471779724    0.1220900010   -0.9913718954
N        2.6791423218   -1.7388588547   -2.4817455799
N        4.2401352116   -0.5842690731   -1.4132434496
H        4.0387015831   -3.0332797962   -3.5395679368
H        5.9929501353   -1.5917078567   -2.1935874431
H        0.1601766311   -1.1106221639   -1.5823106008
H       -0.1756978737   -0.0284746588   -0.2112562830
H        0.7927717943   -1.5009355987    0.0198973932
H        1.1212188226    0.9756301065   -2.8577412209
H        2.4311775841    1.9118013736   -2.1205294629
H        0.7972946838    1.9853486202   -1.4324408956
H        2.2613403304    0.5106296623   -0.0502982501
H        4.6637908752    0.0924312564   -0.7924423764
18   
torsion grid (105,)
C        3.9381814644   -2.1153529032   -2.9382159902
C        4.9076437071   -1.5805996165   -2.1207421978
C        2.9042389991   -0.7094315017   -1.6617232540
C        0.6362510337   -0.6594092647   -0.6012382286
C        1.4603328874    1.3106958415   -1.9760068484
C        1.8618104103    0.1675564969   -1.0233591846
N        2.7031964564   -1.5696017601   -2.6461549469
N        4.2316837231   -0.6815774135   -1.3097375696
H        4.0578714412   -2.8601300080   -3.7146087989
H        5.9713610363   -1.7506766456   -2.0359340383
H        0.1897676189   -1.1418115753   -1.4749366201
H       -0.1164284313   -0.0163861640   -0.1323913456
H        0.9134836306   -1.4438463103    0.1099979843
H        1.0304817473    0.8993881982   -2.8941035765
H        2.3257191934    1.9221257588   -2.2525223328
H        0.7160824483    1.9618421051   -1.5043279828
H        2.3078842373    0.6119611651   -0.1228328947
H        4.6412195028   -0.1118306967   -0.5814424891
18   
torsion grid (120,)
C        3.9653807690   -2.0252686165   -3.0132343943
C        4.8831246725   -1.6628960985   -2.0536222850
C        2.9213297700   -0.6569690756   -1.7047647849
C        0.7031849752   -0.6416262009   -0.5448708049
C        1.3899196586    1.2947072404   -2.0395827319
C        1.8766853074    0.2122450709   -1.0595110669
N        2.7557337997   -1.3975487557   -2.7881384212
N        4.2006817906   -0.7872788189   -1.2226748938
H        4.1061131638   -2.6987284730   -3.8489825287
H        5.9165860423   -1.9315674333   -1.8882619015
H        0.2360505787   -1.1758479447   -1.3770680608
H       -0.0528418696   -0.0085821594   -0.0674889049
H        1.0418309900   -1.3842122769    0.1850044938
H        0.9388416189    0.8274255263   -2.9194468428
H        2.2185008562    1.9241061227   -2.3800806096
H        0.6417256919    1.9369246666   -1.5621917523
H        2.3443001835    0.7105075591   -0.1991277024
H        4.5781487324   -0.3231514579   -0.4073067387
18   
torsion grid (135,)
C        4.0264587313   -1.9199516755   -3.0820516879
C        4.8601074684   -1.7324132552   -2.0032839913
C        2.9538651294   -0.5988570095   -1.7479991736
C        0.7892498816   -0.6234799429   -0.4917692199
C        1.3222501526    1.2675761967   -2.1010544032
C        1.9004761270    0.2563776897   -1.0982425450
N        2.8500973066   -1.2154219084   -2.9135166763
N        4.1609708655   -0.8844841904   -1.1576905598
H        4.2067036292   -2.5156414224   -3.9677440169
H        5.8486283352   -2.0996625418   -1.7675167861
H        0.2925216058   -1.1963884012   -1.2805213705
H        0.0394744948   -0.0040016935    0.0127336141
H        1.1944244412   -1.3333817361    0.2370686660
H        0.8687501733    0.7420259294   -2.9456457600
H        2.1033720273    1.9247539395   -2.4957889996
H        0.5570954032    1.8870747149   -1.6209569332
H        2.3807668432    0.8126712756   -0.2813151746
H        4.4829249996   -0.5354671543   -0.2647769793
18   
torsion grid (150,)
C        4.0947265465   -1.8175710698   -3.1297811465
C        4.8129800708   -1.8172209125   -1.9563205199
C        2.9801489909   -0.5549704480   -1.7728563476
C        0.8678247233   -0.5826425361   -0.4278139544
C        1.2668090518    1.2295805161   -2.1598182487
C        1.9219898890    0.2993682124   -1.1293603928
N        2.9622143912   -1.0355616974   -3.0047949585
N        4.0887055252   -1.0057384544   -1.0965162292
H        4.3282343072   -2.3301194384   -4.0541472908
H        5.7417952813   -2.2864225478   -1.6649299337
H        0.3574896007   -1.2146728320   -1.1613355399
H        0.1181910536    0.0390989062    0.0739959059
H        1.3246433085   -1.2376827407    0.3218568841
H        0.7939544063    0.6443217205   -2.9526441799
H        2.0068006172    1.8855006876   -2.6277655373
H        0.5042937588    1.8509113686   -1.6782979387
H        2.4109147621    0.9177160675   -0.3633650506
H        4.3381110274   -0.7766827130   -0.1435536001
18   
torsion grid (165,)
C        4.1790662697   -1.6878754828   -3.1868900183
C        4.7506566798   -1.8937445874   -1.9529251154
C        2.9893614312   -0.5287197899   -1.8003752344
C        0.9349918738   -0.5358928720   -0.3597545228
C        1.2010612699    1.1731496862   -2.2156852154
C        1.9295751543    0.3291279199   -1.1624192085
N        3.0899698034   -0.8431669298   -3.0809326970
N        3.9803804764   -1.1475945541   -1.0745259226
H        4.4880116811   -2.0942926417   -4.1413316938
H        5.6060817380   -2.4686137762   -1.6278610446
H        0.4152274139   -1.2327499524   -1.0252931485
H        0.1858305683    0.0955649526    0.1300644754
H        1.4382278423   -1.1243465145    0.4153713843
H        0.6963701000    0.5295990749   -2.9410094076
H        1.9003825971    1.8060735459   -2.7684746469
H        0.4543080226    1.8122961824   -1.7329821777
H        2.4276449449    1.0106047755   -0.4577838862
H        4.1268066031   -1.0684371300   -0.0770475181
18   
torsion grid (180,)
C        4.2832160890   -1.5512054735   -3.2044153847
C        4.6817394546   -1.9672652672   -1.9557154406
C        2.9875574855   -0.5182450965   -1.8119208997
C        0.9944584345   -0.4699409639   -0.2743279306
C        1.1343404769    1.1020121002   -2.2594671965
C        1.9296821268    0.3517100683   -1.1842254859
N        3.2349866601   -0.6559004730   -3.1039474843
N        3.8452899175   -1.3011777250   -1.0739407017
H        4.6867899886   -1.8429101676   -4.1654529217
H        5.4523064213   -2.6468137637   -1.6204542680
H        0.4732576180   -1.2391090596   -0.8538563958
H        0.2430852753    0.1803600844    0.1858100785
H        1.5365816647   -0.9703538108    0.5361747960
H        0.6001995330    0.3994078772   -2.9055504344
H        1.7937752623    1.6959593614   -2.8963930114
H        0.4044506886    1.7676895712   -1.7869098131
H        2.4381204422    1.0969218191   -0.5549364012
H        3.8650147305   -1.3797086216   -0.0662197530
