
  -OEChem-05262117483D

 21 22  0     1  0  0  0  0  0999 V2000
   -0.9927    2.5135    0.3617 C   0  0  0  0  0  0  0  0  0  0  0  0
   -1.3905    3.6964    0.9922 C   0  0  0  0  0  0  0  0  0  0  0  0
   -0.4985    1.5197    2.5095 C   0  0  0  0  0  0  0  0  0  0  0  0
   -0.5466    1.4180    1.1114 C   0  0  0  0  0  0  0  0  0  0  0  0
   -1.3462    3.7804    2.3788 C   0  0  0  0  0  0  0  0  0  0  0  0
   -0.9017    2.6938    3.1324 C   0  0  0  0  0  0  0  0  0  0  0  0
   -1.2994   -0.8986    0.0971 C   0  0  0  0  0  0  0  0  0  0  0  0
   -0.5695   -1.0890   -1.2540 C   0  0  0  0  0  0  0  0  0  0  0  0
   -0.1699    0.1214    0.4405 C   0  0  1  0  0  0  0  0  0  0  0  0
    0.1422    0.1971   -1.0111 N   0  0  0  0  0  0  0  0  0  0  0  0
   -1.7248    4.9145    3.0101 F   0  0  0  0  0  0  0  0  0  0  0  0
   -0.8578    2.7978    4.4799 F   0  0  0  0  0  0  0  0  0  0  0  0
   -1.0134    2.4287   -0.7198 H   0  0  0  0  0  0  0  0  0  0  0  0
   -1.7334    4.5572    0.4255 H   0  0  0  0  0  0  0  0  0  0  0  0
   -0.1506    0.6950    3.1266 H   0  0  0  0  0  0  0  0  0  0  0  0
   -2.2676   -0.4054   -0.0119 H   0  0  0  0  0  0  0  0  0  0  0  0
   -1.3972   -1.7674    0.7507 H   0  0  0  0  0  0  0  0  0  0  0  0
    0.0862   -1.9711   -1.2473 H   0  0  0  0  0  0  0  0  0  0  0  0
   -1.1767   -1.1007   -2.1648 H   0  0  0  0  0  0  0  0  0  0  0  0
    0.6180   -0.3779    1.0248 H   0  0  0  0  0  0  0  0  0  0  0  0
    1.1356    0.2011   -1.2352 H   0  0  0  0  0  0  0  0  0  0  0  0
  1  2  1  0  0  0  0
  1  4  2  0  0  0  0
  1 13  1  0  0  0  0
  2  5  2  0  0  0  0
  2 14  1  0  0  0  0
  3  4  1  0  0  0  0
  3  6  2  0  0  0  0
  3 15  1  0  0  0  0
  4  9  1  0  0  0  0
  5  6  1  0  0  0  0
  5 11  1  0  0  0  0
  6 12  1  0  0  0  0
  7  8  1  0  0  0  0
  7  9  1  0  0  0  0
  7 16  1  0  0  0  0
  7 17  1  0  0  0  0
  8 10  1  0  0  0  0
  8 18  1  0  0  0  0
  8 19  1  0  0  0  0
  9 10  1  0  0  0  0
  9 20  1  0  0  0  0
 10 21  1  0  0  0  0
M  END
$$$$
