18
0 1 C7ClF3H3NO3
C                     3.017248797689    -1.269008380470    -0.638569374548
C                     1.946748108332    -0.765504461473     0.099902000325
C                     2.687066031206    -2.025831234710     2.036793786225
C                     3.732160652799    -2.549658045730     1.275682617457
C                     3.906426116754    -2.176336329691    -0.063027598759
C                     1.788412132568    -1.148417038196     1.435045382221
C                     4.828908457721    -3.485492549035    -1.798318007154
N                     4.639745485805    -3.502655184172     1.943508104440
O                     5.137968925337    -4.398263911384     1.262087097104
O                     4.813305667665    -3.344877680870     3.156040438693
O                     5.024214626709    -2.608756329072    -0.767120838555
F                     3.970310797382    -4.470770608600    -1.490102318037
F                     6.011868882454    -4.004766430462    -2.117457295051
F                     4.331826934983    -2.857825997771    -2.896136819125
Cl                    0.457022183461    -0.509354930872     2.367523314478
H                     3.173441653376    -0.956224405038    -1.665102338170
H                     1.249229784251    -0.068792402374    -0.353311213199
H                     2.589446335148    -2.313322047628     3.077029603214
