21
0 1 Br2C8H6N2O3
C                     2.034784246351    -1.110041826559     0.262893460225
C                     2.845924003245    -1.496776517981     2.535443054659
C                     0.876773029530    -0.489793630691     0.764598547131
C                     0.749848557900    -0.330275144949     2.171584582928
C                     2.989028740147    -1.592463642990     1.149511964054
C                     1.722925939446    -0.850651376591     3.042133916949
C                    -0.045677730141     0.227440148183    -1.453588206775
C                    -1.329060992577     0.786935260071    -2.039265636478
N                    -0.127402646742    -0.023880121776    -0.087016053694
N                    -0.382701292138     0.432132730240     2.703573412662
O                    -0.162598519362     1.271920103987     3.570976280155
O                     0.963064158072     0.047613889012    -2.121364437944
O                    -1.511072647793     0.200989431687     2.225239310263
Br                    4.545044641281    -2.451139642724     0.452434423424
Br                    1.536784886909    -0.814842034121     4.940546968275
H                     2.162813740541    -1.199443109488    -0.805787970800
H                     3.585155969815    -1.918194764398     3.205362823956
H                    -1.311550873225     1.878957459584    -1.955583023495
H                    -2.224816116664     0.420318748468    -1.530066696463
H                    -1.373477354752     0.526139844608    -3.096952500766
H                    -1.022829284075     0.143992357588     0.359905846058
