30
0 1 C13H14N2O
C                    -2.360730017912    -1.838353110114    -4.846802405180
C                    -1.396519048156    -2.638656471340    -5.489019879792
C                    -2.140259191802    -1.342396046615    -3.562457754755
C                    -0.189485399591    -2.969846711856    -4.867932631122
C                     0.834926933985    -1.905859818246    -1.526470630394
C                    -0.929522837376    -1.650623922683    -2.923288033953
C                    -0.384571912411    -1.302759731601    -1.620183220602
C                     0.025389086468    -2.464854847086    -3.582357606640
C                     2.281022033791    -3.359915923511    -2.958723010005
C                    -1.219686767807     1.106899143649    -0.962337110918
C                    -2.577819877904     0.961377977224    -0.234577314685
C                    -0.986576390559    -0.392677917717    -0.603106304478
C                     3.317292207346    -3.388152115666    -1.850577304768
N                     1.123060247413    -2.622006111494    -2.705434348991
N                    -2.458747925112    -0.515117728906    -0.385616238344
O                     2.444898600786    -3.948646753345    -4.018178029983
H                    -3.292793704957    -1.612537837599    -5.358502982831
H                    -1.594352710380    -3.015136121177    -6.489228161054
H                    -2.890076554705    -0.753181226012    -3.045976293843
H                     0.550373853644    -3.590513486898    -5.354998226290
H                     1.542319831819    -1.879996403785    -0.710903120776
H                    -1.330582154803     1.254912015055    -2.038188819063
H                    -0.500160101121     1.824263121284    -0.563164659504
H                    -2.527064078581     1.313080703374     0.806124654508
H                    -3.462912441037     1.392406870261    -0.714027806370
H                    -0.409678005490    -0.461967508540     0.332362934257
H                     2.906726343040    -3.819238350346    -0.932229203093
H                     3.680862330416    -2.381941684227    -1.619825512683
H                     4.151395656923    -4.000300624604    -2.192171888927
H                    -2.727380253978    -1.068166684477     0.426504856520
