
  -OEChem-05262117483D

 39 40  0     1  0  0  0  0  0999 V2000
    1.3887    1.1690    4.3250 C   0  0  0  0  0  0  0  0  0  0  0  0
    1.9540    1.7470    3.2163 C   0  0  0  0  0  0  0  0  0  0  0  0
    1.1188    3.3005    4.9368 C   0  0  0  0  0  0  0  0  0  0  0  0
    0.3968    1.1470    0.7411 C   0  0  0  0  0  0  0  0  0  0  0  0
    2.0131   -0.4591    0.1460 C   0  0  0  0  0  0  0  0  0  0  0  0
   -0.1083    0.4006   -0.5179 C   0  0  1  0  0  0  0  0  0  0  0  0
    0.7167   -0.9108   -0.5506 C   0  0  2  0  0  0  0  0  0  0  0  0
    0.7190    4.4842    5.7665 C   0  0  0  0  0  0  0  0  0  0  0  0
   -1.6260    0.2465   -0.5919 C   0  0  0  0  0  0  0  0  0  0  0  0
    0.0692   -2.0792    0.1953 C   0  0  0  0  0  0  0  0  0  0  0  0
    2.2262   -0.7964    5.6733 C   0  0  0  0  0  0  0  0  0  0  0  0
    1.2614   -0.3076    4.5791 C   0  0  0  0  0  0  0  0  0  0  0  0
    2.5248    1.0746    1.9945 C   0  0  0  0  0  0  0  0  0  0  0  0
    0.9281    2.0578    5.2841 N   0  0  0  0  0  0  0  0  0  0  0  0
    1.5095    0.3318    1.2627 N   0  0  1  0  0  0  0  0  0  0  0  0
    0.9239   -1.2514   -1.9299 O   0  0  0  0  0  0  0  0  0  0  0  0
    1.8953    3.4845    3.3725 S   0  0  0  0  0  0  0  0  0  0  0  0
    0.7284    2.1650    0.4766 H   0  0  0  0  0  0  0  0  0  0  0  0
   -0.3787    1.2508    1.5077 H   0  0  0  0  0  0  0  0  0  0  0  0
    2.6262   -1.2937    0.5078 H   0  0  0  0  0  0  0  0  0  0  0  0
    2.6156    0.1284   -0.5721 H   0  0  0  0  0  0  0  0  0  0  0  0
    0.2206    0.9526   -1.4047 H   0  0  0  0  0  0  0  0  0  0  0  0
    1.5710    5.1431    5.9632 H   0  0  0  0  0  0  0  0  0  0  0  0
   -0.0536    5.0789    5.2671 H   0  0  0  0  0  0  0  0  0  0  0  0
    0.3230    4.1251    6.7185 H   0  0  0  0  0  0  0  0  0  0  0  0
   -2.0249   -0.2595    0.2935 H   0  0  0  0  0  0  0  0  0  0  0  0
   -1.9183   -0.3246   -1.4790 H   0  0  0  0  0  0  0  0  0  0  0  0
   -2.1071    1.2289   -0.6540 H   0  0  0  0  0  0  0  0  0  0  0  0
   -0.8798   -2.3614   -0.2679 H   0  0  0  0  0  0  0  0  0  0  0  0
   -0.1080   -1.8218    1.2429 H   0  0  0  0  0  0  0  0  0  0  0  0
    0.7316   -2.9544    0.1759 H   0  0  0  0  0  0  0  0  0  0  0  0
    3.2682   -0.6314    5.3778 H   0  0  0  0  0  0  0  0  0  0  0  0
    2.0910   -1.8670    5.8621 H   0  0  0  0  0  0  0  0  0  0  0  0
    2.0527   -0.2572    6.6092 H   0  0  0  0  0  0  0  0  0  0  0  0
    0.2299   -0.5149    4.8873 H   0  0  0  0  0  0  0  0  0  0  0  0
    1.4300   -0.8468    3.6435 H   0  0  0  0  0  0  0  0  0  0  0  0
    3.0193    1.8295    1.3536 H   0  0  0  0  0  0  0  0  0  0  0  0
    3.3053    0.3672    2.3001 H   0  0  0  0  0  0  0  0  0  0  0  0
    1.3154   -2.1387   -1.9648 H   0  0  0  0  0  0  0  0  0  0  0  0
  1  2  2  0  0  0  0
  1 12  1  0  0  0  0
  1 14  1  0  0  0  0
  2 13  1  0  0  0  0
  2 17  1  0  0  0  0
  3  8  1  0  0  0  0
  3 14  2  0  0  0  0
  3 17  1  0  0  0  0
  4  6  1  0  0  0  0
  4 15  1  0  0  0  0
  4 18  1  0  0  0  0
  4 19  1  0  0  0  0
  5  7  1  0  0  0  0
  5 15  1  0  0  0  0
  5 20  1  0  0  0  0
  5 21  1  0  0  0  0
  6  7  1  0  0  0  0
  6  9  1  0  0  0  0
  6 22  1  0  0  0  0
  7 10  1  0  0  0  0
  7 16  1  0  0  0  0
  8 23  1  0  0  0  0
  8 24  1  0  0  0  0
  8 25  1  0  0  0  0
  9 26  1  0  0  0  0
  9 27  1  0  0  0  0
  9 28  1  0  0  0  0
 10 29  1  0  0  0  0
 10 30  1  0  0  0  0
 10 31  1  0  0  0  0
 11 12  1  0  0  0  0
 11 32  1  0  0  0  0
 11 33  1  0  0  0  0
 11 34  1  0  0  0  0
 12 35  1  0  0  0  0
 12 36  1  0  0  0  0
 13 15  1  0  0  0  0
 13 37  1  0  0  0  0
 13 38  1  0  0  0  0
 16 39  1  0  0  0  0
M  END
$$$$
