30
0 1 C13H14N2O
C                    -4.427240877549     2.503515840876     1.088263649581
C                    -4.197750088298     3.757592184571     1.679115294673
C                    -3.362962147999     1.639094791712     0.835087433433
C                    -2.910780142105     4.178163604574     2.029205422067
C                     0.160133442578     2.232010180300     1.537682704840
C                    -2.065039477112     2.039492769920     1.180711638550
C                    -0.780507709625     1.381738620652     1.045509851075
C                    -1.841367038918     3.311892890555     1.776559949494
C                     0.332247086782     4.442258265317     2.562230751203
C                    -0.481268448241    -0.108187396706    -1.101999904613
C                     0.754529765341    -1.009544962256    -0.864212966101
C                    -0.537795988693     0.036363719099     0.450654181327
C                    -0.366215178314     5.694866941310     3.040045524379
N                    -0.447483457316     3.419160317972     1.997357643074
N                     0.869244208391    -0.443726256786     0.510158925684
O                     1.543398316141     4.304452285661     2.655828155407
H                    -5.440567318986     2.210372034195     0.827525760973
H                    -5.035934748319     4.422175460995     1.870243900631
H                    -3.534489209849     0.669741309574     0.374255703232
H                    -2.783140672687     5.152564527117     2.479722197239
H                     1.229526728079     2.115905678677     1.612561015561
H                    -0.229678879999     0.837997384206    -1.585058395313
H                    -1.347958598701    -0.556553389315    -1.591696330743
H                     0.497248663360    -2.078004207646    -0.888137686932
H                     1.634693053339    -0.839575909242    -1.492468650354
H                    -1.257958758137    -0.687772774314     0.864960989839
H                    -1.095299812029     5.467285513395     3.822742424249
H                    -0.888064946233     6.194457600127     2.219019154950
H                     0.396202994663     6.362200351698     3.441079144961
H                     1.053243188622    -1.122873230895     1.246113311488
