32
0 1 C11H14N4O3
C                     0.083360635109    -5.252967240211     0.406460650383
C                    -0.389332676354    -1.076516084841    -0.583010794611
C                    -0.185783122364    -6.008975447301     1.594332310599
C                     0.326788539186    -1.420096602279    -1.769079870868
C                    -0.147112328212    -2.092774268569     0.352948853813
C                    -0.891265992098    -5.649821424474    -0.470529003130
C                     0.557155143180    -5.994057095049     2.895105891958
C                     0.426902422066    -0.700084584839    -3.075388349511
C                    -0.615619133549    -2.314993633768     1.753133290253
C                    -1.232665992505    -5.255848387868    -1.866451266395
C                     1.172876841856    -4.243123271663     0.185701205732
N                     0.961083754695    -2.572271830566    -1.577202235736
N                    -1.231186106101    -6.793338795001     1.439902805673
N                     0.669546498275    -2.954131191179    -0.292775816848
N                    -1.200980009445     0.081821353855    -0.388192373550
O                    -1.799913227731     0.213226448305     0.693287943872
O                    -1.266859190731     0.899567628927    -1.319477333995
O                    -1.685180930241    -6.563944675843     0.127649089860
H                     0.544972467770    -4.994999467297     3.343863523329
H                     0.094752211756    -6.691966613382     3.595681394495
H                     1.603645284454    -6.283568814567     2.754361634673
H                     0.856682208173     0.295927109472    -2.939450106112
H                     1.054244524199    -1.278566231080    -3.756954986416
H                    -0.561863894295    -0.555860235962    -3.519184378312
H                    -1.458137712592    -3.015159034550     1.769342004091
H                     0.183525779386    -2.741484054333     2.366044634598
H                    -0.945932850226    -1.375175674925     2.190855031438
H                    -1.416853873125    -6.142817529809    -2.479649901048
H                    -2.141692595280    -4.644372304412    -1.881653442844
H                    -0.422446358361    -4.673265263696    -2.307669487791
H                     1.732315008984    -4.087023535291     1.112510586417
H                     1.884975352784    -4.566234150946    -0.576165733929
