
  -OEChem-05262117483D

 21 21  0     0  0  0  0  0  0999 V2000
    2.0559   -0.8019    0.0264 C   0  0  0  0  0  0  0  0  0  0  0  0
    3.0272   -1.4844    0.7641 C   0  0  0  0  0  0  0  0  0  0  0  0
    1.0622   -0.0527    0.6630 C   0  0  0  0  0  0  0  0  0  0  0  0
    1.9974   -0.6829    2.8394 C   0  0  0  0  0  0  0  0  0  0  0  0
    2.9748   -1.4108    2.1504 C   0  0  0  0  0  0  0  0  0  0  0  0
    1.0546   -0.0117    2.0514 C   0  0  0  0  0  0  0  0  0  0  0  0
    1.9446   -0.6492    4.3333 C   0  0  0  0  0  0  0  0  0  0  0  0
    0.9790   -1.7740    6.7920 C   0  0  0  0  0  0  0  0  0  0  0  0
    1.5726   -3.3130    4.6486 O   0  0  0  0  0  0  0  0  0  0  0  0
   -0.4956   -1.8095    4.5257 O   0  0  0  0  0  0  0  0  0  0  0  0
    3.9183   -2.0496    2.8761 F   0  0  0  0  0  0  0  0  0  0  0  0
    0.1120    0.7242    2.6800 F   0  0  0  0  0  0  0  0  0  0  0  0
    0.4954   -0.5581    7.0948 F   0  0  0  0  0  0  0  0  0  0  0  0
    0.2585   -2.7086    7.4084 F   0  0  0  0  0  0  0  0  0  0  0  0
    2.2562   -1.8450    7.2014 F   0  0  0  0  0  0  0  0  0  0  0  0
    0.8935   -2.0461    4.9146 S   0  0  0  0  0  0  0  0  0  0  0  0
    2.0759   -0.8510   -1.0581 H   0  0  0  0  0  0  0  0  0  0  0  0
    3.8098   -2.0653    0.2879 H   0  0  0  0  0  0  0  0  0  0  0  0
    0.3042    0.4888    0.1071 H   0  0  0  0  0  0  0  0  0  0  0  0
    1.4742    0.2605    4.7083 H   0  0  0  0  0  0  0  0  0  0  0  0
    2.9262   -0.8026    4.7835 H   0  0  0  0  0  0  0  0  0  0  0  0
  1  2  1  0  0  0  0
  1  3  2  0  0  0  0
  1 17  1  0  0  0  0
  2  5  2  0  0  0  0
  2 18  1  0  0  0  0
  3  6  1  0  0  0  0
  3 19  1  0  0  0  0
  4  5  1  0  0  0  0
  4  6  2  0  0  0  0
  4  7  1  0  0  0  0
  5 11  1  0  0  0  0
  6 12  1  0  0  0  0
  7 16  1  0  0  0  0
  7 20  1  0  0  0  0
  7 21  1  0  0  0  0
  8 13  1  0  0  0  0
  8 14  1  0  0  0  0
  8 15  1  0  0  0  0
  8 16  1  0  0  0  0
  9 16  2  0  0  0  0
 10 16  2  0  0  0  0
M  END
$$$$
