21
0 1 C8F5H5O2S
C                     1.442869854667    -1.319671552615    -0.198701063049
C                     2.696800240704    -1.408306274728     0.412953723551
C                     0.303868858172    -0.991309986544     0.542132834064
C                     1.680655221523    -0.806443049852     2.562288241015
C                     2.783567088975    -1.150285536468     1.774248185931
C                     0.448271465684    -0.744022819529     1.900968580370
C                     1.799842624907    -0.515388561802     4.020994125886
C                     3.655214259329     1.751271210900     3.943546098880
O                     1.794686957179     1.429173272051     5.863997925792
O                     1.012000900150     2.034263895816     3.494143749746
F                     3.991117547879    -1.238231947200     2.383262955053
F                    -0.647208197804    -0.451506511185     2.634567900041
F                     4.517233637722     0.927034947763     4.558500374181
F                     3.827982421658     1.662148508022     2.618530766622
F                     3.879915624400     3.005173836301     4.337761001221
S                     1.871806285762     1.286676988397     4.409494940957
H                     1.351909917307    -1.512773222261    -1.263294970546
H                     3.591617752734    -1.668428026435    -0.142425114610
H                    -0.678715641765    -0.924834052118     0.087264624105
H                     2.682480065079    -0.960446514206     4.481774335394
H                     0.910785222691    -0.819731933179     4.579573216147
