32
0 1 C11H14N4O3
C                    -0.172869245760    -5.343973729290     0.202370240242
C                    -0.098834152465    -0.972760949450    -0.384537383598
C                    -0.858513526455    -5.714481190963     1.407262996566
C                    -0.240025564493    -1.575150837944    -1.668491024982
C                     0.425992845818    -1.949026015136     0.475760337907
C                    -0.832746782087    -6.031754822270    -0.781827318835
C                    -0.589284523825    -5.266963760470     2.811463152478
C                    -0.743186269735    -0.994642977455    -2.950391077781
C                     0.781347307479    -1.870052904700     1.924412877088
C                    -0.673201345349    -6.110952383220    -2.260231587244
C                     0.984511895632    -4.405079465144     0.044329063811
N                     0.169904588646    -2.836734359431    -1.602287717362
N                    -1.836951235015    -6.558781361504     1.164169267897
N                     0.572343127096    -3.040986274457    -0.307293703663
N                    -0.417497318459     0.366912829674    -0.022642323363
O                    -0.228620070485     0.716477198341     1.156912433261
O                    -0.868744696855     1.114456556232    -0.904972057570
O                    -1.825077747266    -6.761249705909    -0.229756452086
H                    -0.802144463994    -4.200056687091     2.929259391309
H                    -1.221253587443    -5.822881359241     3.506714650725
H                     0.458235671473    -5.432627739913     3.084970182432
H                    -0.140422686878    -0.133758059750    -3.251889867645
H                    -0.707022558455    -1.757953020412    -3.730626139432
H                    -1.769209117109    -0.634292934755    -2.837414352146
H                    -0.107472224289    -1.648236582031     2.521107294765
H                     1.226707637033    -2.797497716088     2.285437932946
H                     1.480065080501    -1.047754832474     2.094676978147
H                    -0.476892163293    -7.141328189412    -2.573680749014
H                    -1.588874233970    -5.775242186143    -2.756933499418
H                     0.140395778217    -5.463315710629    -2.587200305978
H                     1.575835217539    -4.360225674503     0.959070568790
H                     1.647626244912    -4.736139734445    -0.757208799055
