39
0 1 C13H22N2OS
C                     3.623825525691    -0.475224403104     3.262919735793
C                     3.613436242432     0.452643898222     2.252200524014
C                     5.738205237213    -0.746018198620     2.595831715462
C                     0.215301891909     1.304938428262     0.798528691365
C                     1.773330179889    -0.290645185353     0.024184732054
C                    -0.395925430633     0.584740754289    -0.427045262871
C                     0.410674176297    -0.731653408065    -0.538022656460
C                     7.147916265764    -1.257447890458     2.568557334637
C                    -1.916352952533     0.447258334747    -0.387277484362
C                    -0.176278374687    -1.892843429433     0.266462548841
C                     1.918607337411    -2.252324933577     3.798016518537
C                     2.452551561606    -0.848320081097     4.127922684093
C                     2.469782502938     1.304296779727     1.771524076902
N                     4.827265420692    -1.139686397402     3.442338935979
N                     1.396782245025     0.509814553030     1.186814496443
O                     0.479403685960    -1.074722883194    -1.930413566736
S                     5.180430559814     0.493036873147     1.483768590711
H                     0.488984968537     2.339635506139     0.534048863697
H                    -0.486888976982     1.360158826919     1.640223833625
H                     2.414558209537    -1.127026806323     0.320651528196
H                     2.304135621211     0.293003003208    -0.750995972846
H                    -0.128602079807     1.146795485761    -1.328281207623
H                     7.449550895418    -1.557135587194     1.559983301435
H                     7.852771420200    -0.493134247046     2.914176560196
H                     7.219762142355    -2.121310657664     3.232410595223
H                    -2.252609625624    -0.069178696446     0.517873249894
H                    -2.279625037706    -0.108413249539    -1.257631393239
H                    -2.391569158682     1.434443152096    -0.399422540564
H                    -1.158373692627    -2.176721602451    -0.120874928342
H                    -0.273033003592    -1.628335888755     1.322376076795
H                     0.481962617614    -2.768708152740     0.204333006142
H                     1.565040325239    -2.291640890000     2.763929338562
H                     1.083494524639    -2.516143030434     4.456112510991
H                     2.705750823422    -3.001876078009     3.922329177835
H                     2.769139691463    -0.814668585707     5.176998067712
H                     1.653861153686    -0.113590835787     3.996953753375
H                     2.051268201132     1.859426825222     2.619863472968
H                     2.846529191470     2.062602282675     1.058649696932
H                     0.882081036794    -1.954764936694    -2.002751646926
