
  -OEChem-05262117483D

 30 32  0     1  0  0  0  0  0999 V2000
   -4.4272    2.5035    1.0883 C   0  0  0  0  0  0  0  0  0  0  0  0
   -4.1978    3.7576    1.6791 C   0  0  0  0  0  0  0  0  0  0  0  0
   -3.3630    1.6391    0.8351 C   0  0  0  0  0  0  0  0  0  0  0  0
   -2.9108    4.1782    2.0292 C   0  0  0  0  0  0  0  0  0  0  0  0
    0.1601    2.2320    1.5377 C   0  0  0  0  0  0  0  0  0  0  0  0
   -2.0650    2.0395    1.1807 C   0  0  0  0  0  0  0  0  0  0  0  0
   -0.7805    1.3817    1.0455 C   0  0  0  0  0  0  0  0  0  0  0  0
   -1.8414    3.3119    1.7766 C   0  0  0  0  0  0  0  0  0  0  0  0
    0.3322    4.4423    2.5622 C   0  0  0  0  0  0  0  0  0  0  0  0
   -0.4813   -0.1082   -1.1020 C   0  0  0  0  0  0  0  0  0  0  0  0
    0.7545   -1.0095   -0.8642 C   0  0  0  0  0  0  0  0  0  0  0  0
   -0.5378    0.0364    0.4507 C   0  0  1  0  0  0  0  0  0  0  0  0
   -0.3662    5.6949    3.0400 C   0  0  0  0  0  0  0  0  0  0  0  0
   -0.4475    3.4192    1.9974 N   0  0  0  0  0  0  0  0  0  0  0  0
    0.8692   -0.4437    0.5102 N   0  0  0  0  0  0  0  0  0  0  0  0
    1.5434    4.3045    2.6558 O   0  0  0  0  0  0  0  0  0  0  0  0
   -5.4406    2.2104    0.8275 H   0  0  0  0  0  0  0  0  0  0  0  0
   -5.0359    4.4222    1.8702 H   0  0  0  0  0  0  0  0  0  0  0  0
   -3.5345    0.6697    0.3743 H   0  0  0  0  0  0  0  0  0  0  0  0
   -2.7831    5.1526    2.4797 H   0  0  0  0  0  0  0  0  0  0  0  0
    1.2295    2.1159    1.6126 H   0  0  0  0  0  0  0  0  0  0  0  0
   -0.2297    0.8380   -1.5851 H   0  0  0  0  0  0  0  0  0  0  0  0
   -1.3480   -0.5566   -1.5917 H   0  0  0  0  0  0  0  0  0  0  0  0
    0.4972   -2.0780   -0.8881 H   0  0  0  0  0  0  0  0  0  0  0  0
    1.6347   -0.8396   -1.4925 H   0  0  0  0  0  0  0  0  0  0  0  0
   -1.2580   -0.6878    0.8650 H   0  0  0  0  0  0  0  0  0  0  0  0
   -1.0953    5.4673    3.8227 H   0  0  0  0  0  0  0  0  0  0  0  0
   -0.8881    6.1945    2.2190 H   0  0  0  0  0  0  0  0  0  0  0  0
    0.3962    6.3622    3.4411 H   0  0  0  0  0  0  0  0  0  0  0  0
    1.0532   -1.1229    1.2461 H   0  0  0  0  0  0  0  0  0  0  0  0
  1  2  1  0  0  0  0
  1  3  2  0  0  0  0
  1 17  1  0  0  0  0
  2  4  2  0  0  0  0
  2 18  1  0  0  0  0
  3  6  1  0  0  0  0
  3 19  1  0  0  0  0
  4  8  1  0  0  0  0
  4 20  1  0  0  0  0
  5  7  2  0  0  0  0
  5 14  1  0  0  0  0
  5 21  1  0  0  0  0
  6  7  1  0  0  0  0
  6  8  2  0  0  0  0
  7 12  1  0  0  0  0
  8 14  1  0  0  0  0
  9 13  1  0  0  0  0
  9 14  1  0  0  0  0
  9 16  2  0  0  0  0
 10 11  1  0  0  0  0
 10 12  1  0  0  0  0
 10 22  1  0  0  0  0
 10 23  1  0  0  0  0
 11 15  1  0  0  0  0
 11 24  1  0  0  0  0
 11 25  1  0  0  0  0
 12 15  1  0  0  0  0
 12 26  1  0  0  0  0
 13 27  1  0  0  0  0
 13 28  1  0  0  0  0
 13 29  1  0  0  0  0
 15 30  1  0  0  0  0
M  END
$$$$
