21
0 1 C8F5H5O2S
C                     1.804253327542    -0.639744899387    -0.120083903664
C                     2.732966338574    -1.498000208530     0.475895749064
C                     0.750899763137    -0.095395685952     0.620272781441
C                     1.535193566368    -1.299558939741     2.606624909102
C                     2.575422308257    -1.805168386066     1.820549440288
C                     0.641500862833    -0.435851782385     1.962122669549
C                     1.374599099312    -1.656972948523     4.046495964143
C                     1.070467721618    -4.562685197524     3.821659055621
O                    -0.978287887909    -2.860631033870     3.403350799546
O                    -0.055881732584    -3.106385904771     5.787371165941
F                     3.471124313536    -2.630752590562     2.414542619976
F                    -0.355566084920     0.103013943332     2.696465059859
F                     2.247650240307    -4.626152902385     4.462569467815
F                     0.328135972534    -5.621223978912     4.148274781406
F                     1.286854225721    -4.559893782446     2.500064203142
S                     0.135152351740    -2.991301466307     4.340972932262
H                     1.905115112449    -0.389245695496    -1.171750165365
H                     3.561325458402    -1.925373825860    -0.079062329714
H                     0.024650704339     0.578092494612     0.177807278776
H                     0.951039330932    -0.837622419818     4.633280332026
H                     2.299632391941    -1.993422580792     4.516140722737
