39
0 1 C13H22N2OS
C                     4.556631299106    -0.021435968659    -0.773756900697
C                     3.507191259471    -0.063060418330    -1.656608154921
C                     5.373660216260     1.424837098734    -2.266744303470
C                     0.998071400184     1.049960390170    -0.503437115666
C                     0.187710629187    -1.162790258545    -0.195133620175
C                    -0.139083773283     1.133961594292     0.521998868890
C                    -0.922094173608    -0.166743929586     0.199384982260
C                     6.330114670506     2.374749081120    -2.924513312034
C                     0.385976041805     1.214864529348     1.960890274035
C                    -1.846769705401    -0.681760157011     1.299557426294
C                     4.418583633635     0.182236216857     1.735260160625
C                     4.633630832552    -0.755773686335     0.535415146338
C                     2.215526109100    -0.826858283298    -1.540936372086
N                     5.598118297400     0.820424663190    -1.132741327520
N                     1.402863538947    -0.359246560046    -0.423529531194
O                    -1.685877713750     0.035809554140    -1.014339085531
S                     3.833131337085     1.005713396453    -2.997706436761
H                     0.627841285579     1.319772006325    -1.507052213352
H                     1.842226136952     1.703563096594    -0.264147419711
H                     0.367881038757    -1.904058604856     0.592770902042
H                    -0.141346243988    -1.697867789822    -1.096479490909
H                    -0.777782261778     2.004133841925     0.325978437670
H                     6.709245921511     1.968077426616    -3.868388694806
H                     5.855704380083     3.336933016403    -3.143369216299
H                     7.174079893040     2.541354371569    -2.252177409554
H                     1.006618765743     0.348338365614     2.206469198805
H                    -0.430371559690     1.271127798700     2.687576115703
H                     1.003473542782     2.110396536447     2.086607925286
H                    -2.607172628683     0.066869208346     1.554483033507
H                    -1.297316498393    -0.926565736914     2.212271632212
H                    -2.361962005959    -1.583223632089     0.953705024088
H                     5.158461831414     0.988389558062     1.731039025143
H                     4.511621464689    -0.365678290992     2.679493716992
H                     3.420509830986     0.626842241340     1.693493229991
H                     3.881230116466    -1.548821800456     0.554328945284
H                     5.619490484330    -1.228912877223     0.610825068485
H                     1.662080270621    -0.769141422357    -2.496835232596
H                     2.440036044315    -1.887345812683    -1.375072321324
H                    -2.339906127365     0.731558796471    -0.837733674035
