
  -OEChem-05262117483D

 21 21  0     0  0  0  0  0  0999 V2000
    1.8043   -0.6397   -0.1201 C   0  0  0  0  0  0  0  0  0  0  0  0
    2.7330   -1.4980    0.4759 C   0  0  0  0  0  0  0  0  0  0  0  0
    0.7509   -0.0954    0.6203 C   0  0  0  0  0  0  0  0  0  0  0  0
    1.5352   -1.2996    2.6066 C   0  0  0  0  0  0  0  0  0  0  0  0
    2.5754   -1.8052    1.8205 C   0  0  0  0  0  0  0  0  0  0  0  0
    0.6415   -0.4359    1.9621 C   0  0  0  0  0  0  0  0  0  0  0  0
    1.3746   -1.6570    4.0465 C   0  0  0  0  0  0  0  0  0  0  0  0
    1.0705   -4.5627    3.8217 C   0  0  0  0  0  0  0  0  0  0  0  0
   -0.9783   -2.8606    3.4034 O   0  0  0  0  0  0  0  0  0  0  0  0
   -0.0559   -3.1064    5.7874 O   0  0  0  0  0  0  0  0  0  0  0  0
    3.4711   -2.6308    2.4145 F   0  0  0  0  0  0  0  0  0  0  0  0
   -0.3556    0.1030    2.6965 F   0  0  0  0  0  0  0  0  0  0  0  0
    2.2477   -4.6262    4.4626 F   0  0  0  0  0  0  0  0  0  0  0  0
    0.3281   -5.6212    4.1483 F   0  0  0  0  0  0  0  0  0  0  0  0
    1.2869   -4.5599    2.5001 F   0  0  0  0  0  0  0  0  0  0  0  0
    0.1352   -2.9913    4.3410 S   0  0  0  0  0  0  0  0  0  0  0  0
    1.9051   -0.3892   -1.1718 H   0  0  0  0  0  0  0  0  0  0  0  0
    3.5613   -1.9254   -0.0791 H   0  0  0  0  0  0  0  0  0  0  0  0
    0.0247    0.5781    0.1778 H   0  0  0  0  0  0  0  0  0  0  0  0
    0.9510   -0.8376    4.6333 H   0  0  0  0  0  0  0  0  0  0  0  0
    2.2996   -1.9934    4.5161 H   0  0  0  0  0  0  0  0  0  0  0  0
  1  2  1  0  0  0  0
  1  3  2  0  0  0  0
  1 17  1  0  0  0  0
  2  5  2  0  0  0  0
  2 18  1  0  0  0  0
  3  6  1  0  0  0  0
  3 19  1  0  0  0  0
  4  5  1  0  0  0  0
  4  6  2  0  0  0  0
  4  7  1  0  0  0  0
  5 11  1  0  0  0  0
  6 12  1  0  0  0  0
  7 16  1  0  0  0  0
  7 20  1  0  0  0  0
  7 21  1  0  0  0  0
  8 13  1  0  0  0  0
  8 14  1  0  0  0  0
  8 15  1  0  0  0  0
  8 16  1  0  0  0  0
  9 16  2  0  0  0  0
 10 16  2  0  0  0  0
M  END
$$$$
