
  -OEChem-05262117483D

 10 10  0     0  0  0  0  0  0999 V2000
   -0.0840   -0.9376    0.5078 C   0  0  0  0  0  0  0  0  0  0  0  0
   -0.5481   -1.1715    1.7853 C   0  0  0  0  0  0  0  0  0  0  0  0
   -0.1052   -3.2521    1.2597 C   0  0  0  0  0  0  0  0  0  0  0  0
    0.0329   -4.7264    1.3441 C   0  0  0  0  0  0  0  0  0  0  0  0
   -0.5594   -2.4616    2.2027 N   0  0  0  0  0  0  0  0  0  0  0  0
   -0.2651   -5.3872    2.3180 O   0  0  0  0  0  0  0  0  0  0  0  0
    0.3680   -2.4267   -0.2195 S   0  0  0  0  0  0  0  0  0  0  0  0
   -1.1008    0.0850    2.8443 Cl  0  0  0  0  0  0  0  0  0  0  0  0
    0.0047    0.0089   -0.0076 H   0  0  0  0  0  0  0  0  0  0  0  0
    0.4413   -5.1933    0.4224 H   0  0  0  0  0  0  0  0  0  0  0  0
  1  2  2  0  0  0  0
  1  7  1  0  0  0  0
  1  9  1  0  0  0  0
  2  5  1  0  0  0  0
  2  8  1  0  0  0  0
  3  4  1  0  0  0  0
  3  5  2  0  0  0  0
  3  7  1  0  0  0  0
  4  6  2  0  0  0  0
  4 10  1  0  0  0  0
M  END
$$$$
