
  -OEChem-05262117483D

 40 44  0     0  0  0  0  0  0999 V2000
    0.9397   -1.4318   -0.6002 C   0  0  0  0  0  0  0  0  0  0  0  0
   -0.2715   -1.1927    0.0850 C   0  0  0  0  0  0  0  0  0  0  0  0
    1.7802   -2.4800   -0.2313 C   0  0  0  0  0  0  0  0  0  0  0  0
   -0.6667   -1.9954    1.1556 C   0  0  0  0  0  0  0  0  0  0  0  0
    6.8974   -4.6699    3.6245 C   0  0  0  0  0  0  0  0  0  0  0  0
    1.4061   -3.3078    0.8430 C   0  0  0  0  0  0  0  0  0  0  0  0
    2.0030   -4.4476    1.4903 C   0  0  0  0  0  0  0  0  0  0  0  0
    0.1797   -3.0459    1.5241 C   0  0  0  0  0  0  0  0  0  0  0  0
    5.9232   -5.1746    2.7169 C   0  0  0  0  0  0  0  0  0  0  0  0
    1.1587   -4.8368    2.5016 C   0  0  0  0  0  0  0  0  0  0  0  0
    7.8526   -4.1190    2.8147 C   0  0  0  0  0  0  0  0  0  0  0  0
    4.7144   -5.9545    3.1495 C   0  0  0  0  0  0  0  0  0  0  0  0
    3.3110   -5.1358    1.2109 C   0  0  0  0  0  0  0  0  0  0  0  0
    1.4028   -5.9934    3.4178 C   0  0  0  0  0  0  0  0  0  0  0  0
    9.2985   -2.5650    4.2924 C   0  0  0  0  0  0  0  0  0  0  0  0
   10.0230   -3.8793    4.2010 C   0  0  0  0  0  0  0  0  0  0  0  0
    2.5015   -6.8643    2.7812 C   0  0  0  0  0  0  0  0  0  0  0  0
    9.1293   -3.4305    3.0513 C   0  0  0  0  0  0  0  0  0  0  0  0
    6.2611   -4.9583    1.4584 N   0  0  0  0  0  0  0  0  0  0  0  0
    0.0574   -3.9916    2.5330 N   0  0  0  0  0  0  0  0  0  0  0  0
    3.6294   -6.0439    2.3252 N   0  0  0  0  0  0  0  0  0  0  0  0
    4.7718   -6.5266    4.2446 O   0  0  0  0  0  0  0  0  0  0  0  0
    7.4866   -4.2859    1.5167 O   0  0  0  0  0  0  0  0  0  0  0  0
    1.2172   -0.7854   -1.4286 H   0  0  0  0  0  0  0  0  0  0  0  0
   -0.9071   -0.3678   -0.2257 H   0  0  0  0  0  0  0  0  0  0  0  0
    2.7106   -2.6544   -0.7665 H   0  0  0  0  0  0  0  0  0  0  0  0
   -1.5993   -1.8060    1.6820 H   0  0  0  0  0  0  0  0  0  0  0  0
    6.8699   -4.7397    4.7017 H   0  0  0  0  0  0  0  0  0  0  0  0
    3.2679   -5.7162    0.2790 H   0  0  0  0  0  0  0  0  0  0  0  0
    4.1155   -4.4147    1.0877 H   0  0  0  0  0  0  0  0  0  0  0  0
    1.7284   -5.6556    4.4095 H   0  0  0  0  0  0  0  0  0  0  0  0
    0.4964   -6.5958    3.5583 H   0  0  0  0  0  0  0  0  0  0  0  0
    8.4456   -2.4933    4.9602 H   0  0  0  0  0  0  0  0  0  0  0  0
    9.8687   -1.6478    4.1811 H   0  0  0  0  0  0  0  0  0  0  0  0
   11.0945   -3.8716    4.0257 H   0  0  0  0  0  0  0  0  0  0  0  0
    9.6647   -4.7074    4.8044 H   0  0  0  0  0  0  0  0  0  0  0  0
    2.8771   -7.6004    3.4895 H   0  0  0  0  0  0  0  0  0  0  0  0
    2.0961   -7.3820    1.9048 H   0  0  0  0  0  0  0  0  0  0  0  0
    9.6224   -3.0973    2.1438 H   0  0  0  0  0  0  0  0  0  0  0  0
   -0.7204   -4.0706    3.1722 H   0  0  0  0  0  0  0  0  0  0  0  0
  1  2  1  0  0  0  0
  1  3  2  0  0  0  0
  1 24  1  0  0  0  0
  2  4  2  0  0  0  0
  2 25  1  0  0  0  0
  3  6  1  0  0  0  0
  3 26  1  0  0  0  0
  4  8  1  0  0  0  0
  4 27  1  0  0  0  0
  5  9  1  0  0  0  0
  5 11  2  0  0  0  0
  5 28  1  0  0  0  0
  6  7  1  0  0  0  0
  6  8  2  0  0  0  0
  7 10  2  0  0  0  0
  7 13  1  0  0  0  0
  8 20  1  0  0  0  0
  9 12  1  0  0  0  0
  9 19  2  0  0  0  0
 10 14  1  0  0  0  0
 10 20  1  0  0  0  0
 11 18  1  0  0  0  0
 11 23  1  0  0  0  0
 12 21  1  0  0  0  0
 12 22  2  0  0  0  0
 13 21  1  0  0  0  0
 13 29  1  0  0  0  0
 13 30  1  0  0  0  0
 14 17  1  0  0  0  0
 14 31  1  0  0  0  0
 14 32  1  0  0  0  0
 15 16  1  0  0  0  0
 15 18  1  0  0  0  0
 15 33  1  0  0  0  0
 15 34  1  0  0  0  0
 16 18  1  0  0  0  0
 16 35  1  0  0  0  0
 16 36  1  0  0  0  0
 17 21  1  0  0  0  0
 17 37  1  0  0  0  0
 17 38  1  0  0  0  0
 18 39  1  0  0  0  0
 19 23  1  0  0  0  0
 20 40  1  0  0  0  0
M  END
$$$$
