
  -OEChem-05262117483D

 29 31  0     0  0  0  0  0  0999 V2000
    4.4836   -3.7743   -7.9182 C   0  0  0  0  0  0  0  0  0  0  0  0
    2.6419    1.5200   -4.9925 C   0  0  0  0  0  0  0  0  0  0  0  0
    3.0818    0.6028   -4.0202 C   0  0  0  0  0  0  0  0  0  0  0  0
    5.3832   -3.9115   -6.8557 C   0  0  0  0  0  0  0  0  0  0  0  0
    3.1516   -4.1497   -7.7551 C   0  0  0  0  0  0  0  0  0  0  0  0
    1.8661    1.1210   -6.0887 C   0  0  0  0  0  0  0  0  0  0  0  0
    2.7596   -0.7610   -4.1050 C   0  0  0  0  0  0  0  0  0  0  0  0
    4.9492   -4.4287   -5.6328 C   0  0  0  0  0  0  0  0  0  0  0  0
    2.6895   -4.6720   -6.5334 C   0  0  0  0  0  0  0  0  0  0  0  0
    1.5387   -0.2344   -6.1851 C   0  0  0  0  0  0  0  0  0  0  0  0
    1.9880   -1.1235   -5.1948 C   0  0  0  0  0  0  0  0  0  0  0  0
    3.6142   -4.8051   -5.4872 C   0  0  0  0  0  0  0  0  0  0  0  0
    0.8500   -2.1789   -6.7085 C   0  0  0  0  0  0  0  0  0  0  0  0
    1.2846   -5.1201   -6.3961 C   0  0  0  0  0  0  0  0  0  0  0  0
    0.8158   -0.9536   -7.1485 N   0  0  0  0  0  0  0  0  0  0  0  0
    0.1950   -4.5494   -6.7775 N   0  0  0  0  0  0  0  0  0  0  0  0
    0.2603   -3.2656   -7.3212 N   0  0  0  0  0  0  0  0  0  0  0  0
    1.5210   -2.3863   -5.5329 O   0  0  0  0  0  0  0  0  0  0  0  0
    3.0357   -5.4475   -3.7735 Br  0  0  0  0  0  0  0  0  0  0  0  0
    4.8183   -3.3720   -8.8700 H   0  0  0  0  0  0  0  0  0  0  0  0
    2.9135    2.5671   -4.8890 H   0  0  0  0  0  0  0  0  0  0  0  0
    3.6819    0.9551   -3.1862 H   0  0  0  0  0  0  0  0  0  0  0  0
    6.4215   -3.6138   -6.9725 H   0  0  0  0  0  0  0  0  0  0  0  0
    2.4494   -4.0377   -8.5750 H   0  0  0  0  0  0  0  0  0  0  0  0
    1.5318    1.8316   -6.8386 H   0  0  0  0  0  0  0  0  0  0  0  0
    3.0895   -1.4845   -3.3661 H   0  0  0  0  0  0  0  0  0  0  0  0
    5.6364   -4.5308   -4.7993 H   0  0  0  0  0  0  0  0  0  0  0  0
    1.1220   -6.0997   -5.9496 H   0  0  0  0  0  0  0  0  0  0  0  0
   -0.6115   -3.0188   -7.7752 H   0  0  0  0  0  0  0  0  0  0  0  0
  1  4  1  0  0  0  0
  1  5  2  0  0  0  0
  1 20  1  0  0  0  0
  2  3  1  0  0  0  0
  2  6  2  0  0  0  0
  2 21  1  0  0  0  0
  3  7  2  0  0  0  0
  3 22  1  0  0  0  0
  4  8  2  0  0  0  0
  4 23  1  0  0  0  0
  5  9  1  0  0  0  0
  5 24  1  0  0  0  0
  6 10  1  0  0  0  0
  6 25  1  0  0  0  0
  7 11  1  0  0  0  0
  7 26  1  0  0  0  0
  8 12  1  0  0  0  0
  8 27  1  0  0  0  0
  9 12  2  0  0  0  0
  9 14  1  0  0  0  0
 10 11  2  0  0  0  0
 10 15  1  0  0  0  0
 11 18  1  0  0  0  0
 12 19  1  0  0  0  0
 13 15  2  0  0  0  0
 13 17  1  0  0  0  0
 13 18  1  0  0  0  0
 14 16  2  0  0  0  0
 14 28  1  0  0  0  0
 16 17  1  0  0  0  0
 17 29  1  0  0  0  0
M  END
$$$$
