10
0 1 C4H3NOS
C                    -0.556220690311    -1.163371697297     1.799450271756
C                    -0.091373764523    -0.934010572338     0.522142323540
C                    -0.104611338827    -3.253906921835     1.259778482146
C                     0.038650283243    -4.727294172237     1.334129150270
N                    -0.559690245984    -2.467010053571     2.203727505218
O                    -0.255660131641    -5.399139236395     2.302953650993
S                     0.366517719509    -2.416272944787    -0.218223320535
H                    -0.906690142512    -0.390820923757     2.475839322413
H                    -0.001232083300     0.010686310428     0.001558040586
H                     0.448044062361    -5.188440318369     0.409850041001
