13
0 1 C4H5N3O
C                     1.878757028424    -0.614275436193    -0.774146518002
C                     0.575690643921    -0.753398522050    -0.331316496907
C                     1.426434144973    -2.714776279424    -0.963223921963
C                     1.404349468554    -4.150044810382    -1.195067401343
N                     2.394016227565    -1.823406653261    -1.160385380960
N                     2.304313647008    -4.951900846337    -1.650900756449
N                     0.297283073156    -2.093658211473    -0.455625785346
O                     3.501493634903    -4.318417494505    -1.973107928058
H                     2.465087706226     0.294015208085    -0.832147409519
H                    -0.146846501332    -0.043495921918     0.045678211693
H                     0.474998412684    -4.662406277452    -0.948219123322
H                    -0.577698929645    -2.542633271176    -0.217601288600
H                     4.046819180291    -5.057198909014    -2.291567763001
