29
0 1 BrC14H10N3O
C                    -1.524872181836    -4.931286991517   -10.918403684027
C                     2.871076992009     0.803252635158    -4.489595315271
C                     2.940265658154     1.364217536748    -5.777442753698
C                    -1.037175521678    -5.933899515351   -11.762790756049
C                    -1.144980963565    -4.908255834031    -9.576731498918
C                     2.383330779696    -0.492363415770    -4.274354098821
C                     2.521119973851     0.646613693666    -6.909525811227
C                    -0.177402119537    -6.914315632290   -11.261218222743
C                    -0.271919186107    -5.878720466601    -9.045027890409
C                     1.962795613624    -1.216689301707    -5.392585371349
C                     2.043698003627    -0.629722870404    -6.666312562593
C                     0.192499174933    -6.879509705064    -9.916040074569
C                     1.232554203819    -2.641381771018    -6.783805974474
C                     0.076840939035    -5.871781445214    -7.603212151453
N                     1.433576201072    -2.511259661423    -5.510861483950
N                     0.484653330269    -4.880323548348    -6.889855743962
N                     0.693235714081    -3.679701453201    -7.498157298623
O                     1.565403287888    -1.562557510435    -7.579915944978
Br                    1.384467291188    -8.237718799717    -9.270209018122
H                    -2.204940469345    -4.175455037480   -11.300749347912
H                     3.205603731881     1.392043791194    -3.639786076585
H                     3.325349501890     2.372281554246    -5.901781215676
H                    -1.325949139531    -5.959997032518   -12.809814249742
H                    -1.548710953706    -4.147945881894    -8.913745967246
H                     2.330768596922    -0.924327994659    -3.279613652216
H                     2.569381448766     1.066806138118    -7.909317180223
H                     0.204585455422    -7.697589615784   -11.907788354542
H                    -0.017713931955    -6.806085329896    -7.055193723784
H                     0.745649547317    -3.606843789784    -8.513004304316
