20   
torsion grid (-165,)
C       -1.4075794609   -1.8356606842    0.9111814594
C       -1.8318114227   -1.5138410284    2.3246311919
C        0.2756818668    2.6968119163   -0.9857156098
C        2.3487047078   -0.1904207843    1.0453448598
N       -0.7634054378   -0.8102619276    0.1970056442
O       -1.5840493625   -2.9164234983    0.3717319050
O       -1.6230239424    1.5476629707    1.2450181568
O        0.0639448377    1.2764863272   -0.7881573776
P       -0.4912926806    0.7974514429    0.6538021522
S        1.1463299042    0.8408042884    1.9773528532
H       -2.5165016252   -0.6615063753    2.3363597226
H       -0.9636943432   -1.2389837984    2.9325044901
H       -2.3132128239   -2.3945554163    2.7484813358
H        0.6210534671    2.8069483451   -2.0132096525
H        1.0376107192    3.0649939671   -0.2923419430
H       -0.6607010334    3.2381985908   -0.8365376181
H        2.7732534742    0.3628003495    0.2065873195
H        1.8704119648   -1.1047763660    0.6891337853
H        3.1360374159   -0.4617059113    1.7513780038
H       -0.5465868893   -1.0598275850   -0.7656705586
20   
torsion grid (-150,)
C       -1.4301486937   -1.8117655530    0.9050387270
C       -1.8356481711   -1.4912569344    2.3241543015
C        0.2575077545    2.7116218737   -1.0110900928
C        2.3337633606   -0.1851104618    1.0529265172
N       -0.7933205519   -0.7868430746    0.1830700694
O       -1.6167854585   -2.8908885127    0.3659502450
O       -1.6399329578    1.5765283235    1.2318459605
O        0.0345852839    1.2936968445   -0.8100844589
P       -0.5141300048    0.8207145969    0.6362678228
S        1.1245477505    0.8646906013    1.9585536657
H       -2.5206311722   -0.6392332907    2.3447760746
H       -0.9601697376   -1.2159969486    2.9210205082
H       -2.3115144735   -2.3722868252    2.7535546031
H        0.5986965545    2.8171259387   -2.0404482707
H        1.0261598101    3.0741819872   -0.3222036581
H       -0.6734293448    3.2613343047   -0.8581188126
H        2.9462587305    0.4175502516    0.3813894321
H        1.8146643130   -0.9628712167    0.4900085375
H        2.9585257581   -0.6698722569    1.8053332241
H       -0.5966102881   -1.0343433577   -0.7844291434
20   
torsion grid (-135,)
C       -1.3955066566   -1.8352265798    0.9321606132
C       -1.7830774467   -1.5121086810    2.3556736860
C        0.2444858880    2.6888613074   -1.0233647271
C        2.3588142311   -0.1814495241    1.0734617288
N       -0.7790324772   -0.8075778185    0.1966029771
O       -1.5810032758   -2.9180400959    0.4001678431
O       -1.6355105782    1.5570557175    1.2375443519
O        0.0284391573    1.2712943013   -0.8124122011
P       -0.5087053519    0.8041614858    0.6400533546
S        1.1323405790    0.8706277067    1.9581165605
H       -2.4728751290   -0.6641049205    2.3829449529
H       -0.9010687193   -1.2293555057    2.9392333473
H       -2.2477004067   -2.3944018787    2.7946792681
H        0.5791492976    2.7893291394   -2.0553566103
H        1.0159055812    3.0582718444   -0.3413468537
H       -0.6877746245    3.2357033522   -0.8681903081
H        3.1245551095    0.4423651661    0.6111587211
H        1.8663162298   -0.7864816646    0.3109891480
H        2.8072074090   -0.8546158657    1.8059318207
H       -0.5980786637   -1.0564737899   -0.7735884129
20   
torsion grid (-120,)
C       -1.3887502209   -1.8532934784    0.9551172200
C       -1.7726881130   -1.5207194555    2.3775661336
C        0.2427184940    2.6607669008   -1.0310943919
C        2.3715575093   -0.1656032625    1.0623282589
N       -0.7841057482   -0.8275072578    0.2081712744
O       -1.5696955638   -2.9419049238    0.4332818433
O       -1.6381250335    1.5429273252    1.2371163534
O        0.0259574055    1.2444351749   -0.8114017320
P       -0.5119300502    0.7860648341    0.6436101821
S        1.1300122153    0.8612684897    1.9593358149
H       -2.4681808730   -0.6772264979    2.4004777475
H       -0.8903697119   -1.2270877925    2.9553263274
H       -2.2296188197   -2.4023426316    2.8259124699
H        0.5734661745    2.7549350110   -2.0649400564
H        1.0170548420    3.0327893981   -0.3539914522
H       -0.6885050724    3.2092326227   -0.8755320250
H        3.2512157044    0.4466375576    0.8582214539
H        1.9658800223   -0.5345067991    0.1201278564
H        2.6461045811   -1.0139574385    1.6906950597
H       -0.6027909628   -1.0835196773   -0.7600508734
20   
torsion grid (-105,)
C       -1.3061617866   -1.9044040254    1.0176453853
C       -1.7198926101   -1.5485576009    2.4262063377
C        0.2479083471    2.6112080127   -1.0316485350
C        2.4278287907   -0.1475926434    1.0368012643
N       -0.7309037340   -0.8765322606    0.2516398066
O       -1.4426292439   -3.0120427559    0.5225212929
O       -1.6000069848    1.4930500039    1.2620613420
O        0.0540391466    1.1938132621   -0.7953913730
P       -0.4696201043    0.7437178422    0.6674874564
S        1.1863473262    0.8512112640    1.9635738964
H       -2.4417825843   -0.7274299965    2.4194023757
H       -0.8550387664   -1.2124793991    3.0075314658
H       -2.1536942753   -2.4331588082    2.8913592697
H        0.5571560779    2.7003032560   -2.0725790178
H        1.0300740226    2.9989942398   -0.3727610828
H       -0.6873696033    3.1487353993   -0.8629741040
H        3.3762291729    0.3913716741    1.0771200925
H        2.1361429410   -0.2652301906   -0.0071690465
H        2.5447511103   -1.1244069530    1.5077131267
H       -0.5088714062   -1.1550022793   -0.7016782492
20   
torsion grid (-90,)
C       -1.2637381167   -1.9049849570    1.0547782070
C       -1.6991692893   -1.5356715321    2.4534217530
C        0.2277229074    2.6123905189   -1.0363289393
C        2.4263707416   -0.1435363239    1.0301033647
N       -0.6967047325   -0.8793731768    0.2799574786
O       -1.3758699428   -3.0221789122    0.5751150121
O       -1.5910423225    1.4888921047    1.2717881648
O        0.0590378364    1.1936397794   -0.7881061353
P       -0.4539740560    0.7477138998    0.6799719600
S        1.2116774024    0.8788772939    1.9618097164
H       -2.4336135394   -0.7262619460    2.4271609484
H       -0.8463000544   -1.1776221330    3.0394457820
H       -2.1238143508   -2.4204582295    2.9266225233
H        0.5322400730    2.6984181947   -2.0789281323
H        1.0051443103    3.0189959957   -0.3831463191
H       -0.7161478222    3.1350846133   -0.8690566514
H        3.4167090790    0.2416574553    1.2820382173
H        2.2748586303   -0.0460827358   -0.0456409165
H        2.3604280420   -1.1887119692    1.3353624924
H       -0.4536294280   -1.1686950725   -0.6650076639
20   
torsion grid (-75,)
C       -1.2573970804   -1.9063292310    1.0523729471
C       -1.6991078953   -1.5304904935    2.4473102569
C        0.2078553515    2.6081818075   -1.0623092231
C        2.4095935769   -0.1567420427    1.0088115271
N       -0.6897172043   -0.8835339621    0.2741989706
O       -1.3639825130   -3.0266092608    0.5786521791
O       -1.5943118392    1.4854097657    1.2550138599
O        0.0523058794    1.1893214840   -0.8066890318
P       -0.4547504508    0.7470055143    0.6645493829
S        1.2162053349    0.8878547385    1.9388622980
H       -2.4360345440   -0.7236351719    2.4138006520
H       -0.8495950685   -1.1663694355    3.0344419350
H       -2.1225433399   -2.4139865550    2.9239884050
H        0.5079438429    2.6918862036   -2.1063931153
H        0.9841307395    3.0248245083   -0.4139590781
H       -0.7396928016    3.1238873372   -0.8941124272
H        3.3914600813    0.0352631125    1.4466509901
H        2.4288451606    0.1198310348   -0.0464584185
H        2.1671118339   -1.2144863786    1.1225788042
H       -0.4425528158   -1.1767310880   -0.6685693606
20   
torsion grid (-60,)
C       -1.2204261685   -1.9035966491    1.1095728832
C       -1.6637610375   -1.5192125809    2.5013765513
C        0.1904053208    2.6078855047   -1.0486309013
C        2.4341570342   -0.1166093117    1.0342651146
N       -0.6635028288   -0.8819492129    0.3212401861
O       -1.3159071680   -3.0289100186    0.6456916282
O       -1.5857611409    1.4846352514    1.2884659241
O        0.0505147866    1.1897493096   -0.7817696212
P       -0.4422389510    0.7539286078    0.6959961911
S        1.2343446696    0.9220515024    1.9604987462
H       -2.4048870622   -0.7165274406    2.4619446035
H       -0.8157497001   -1.1455513610    3.0846999832
H       -2.0814752986   -2.4012508202    2.9856646087
H        0.4950725435    2.6865781529   -2.0917787039
H        0.9580521718    3.0400859675   -0.3999948028
H       -0.7640833051    3.1136158890   -0.8895545694
H        3.3543604359   -0.1223932930    1.6218746950
H        2.6355916253    0.3069806045    0.0490096073
H        2.0632272478   -1.1382091418    0.9344982685
H       -0.4158780672   -1.1814425761   -0.6194395965
20   
torsion grid (-45,)
C       -1.2330979735   -1.9052707881    1.1068968340
C       -1.6501005182   -1.5216888750    2.5069719671
C        0.1814174268    2.5941536253   -1.0746349996
C        2.4372305703   -0.1004271550    1.0308759710
N       -0.6777432719   -0.8856504076    0.3144430938
O       -1.3468147042   -3.0276295301    0.6401392369
O       -1.5971600562    1.4845178516    1.2747520638
O        0.0329273732    1.1784968819   -0.8005399075
P       -0.4551485243    0.7519458084    0.6815467381
S        1.2209550591    0.9314639321    1.9447558038
H       -2.3832916149   -0.7111087345    2.4824860773
H       -0.7886582317   -1.1601692291    3.0779546776
H       -2.0699388554   -2.4012604297    2.9939281270
H        0.4821049661    2.6659415285   -2.1194143702
H        0.9547249566    3.0240425860   -0.4311625656
H       -0.7688255220    3.1073442103   -0.9138059108
H        3.2471555048   -0.3210202309    1.7286111562
H        2.8318665015    0.4393303092    0.1686985875
H        1.9784947557   -1.0350069557    0.7030455294
H       -0.4513457782   -1.1837668653   -0.6319576311
20   
torsion grid (-30,)
C       -1.3297873162   -1.8331563030    1.0670682166
C       -1.7049505782   -1.4591608688    2.4814222639
C        0.1548276914    2.6427642725   -1.1099414729
C        2.3787715576   -0.0774703204    1.0409242999
N       -0.7464354556   -0.8241905392    0.2801823063
O       -1.4971248993   -2.9414678745    0.5838328644
O       -1.6476108596    1.5600644422    1.2335374382
O       -0.0136606135    1.2299698250   -0.8337879651
P       -0.5116002912    0.8120463324    0.6475676387
S        1.1550769028    0.9754726925    1.9242929606
H       -2.4155991571   -0.6281292691    2.4832957773
H       -0.8220821315   -1.1301913095    3.0388576302
H       -2.1407217301   -2.3330834504    2.9645411610
H        0.4694138954    2.7078885113   -2.1510571813
H        0.9252641917    3.0653605967   -0.4582743907
H       -0.7912418183    3.1675105644   -0.9622806300
H        3.0308991199   -0.5178808430    1.7968595563
H        2.9684237737    0.5254828199    0.3487298990
H        1.8741895231   -0.8729042591    0.4901761774
H       -0.5726619116   -1.1101866453   -0.6810908747
20   
torsion grid (-15,)
C       -1.3222486639   -1.8403304045    1.0784235990
C       -1.6829438369   -1.4606674825    2.4950185040
C        0.1411340457    2.6301653395   -1.1243387280
C        2.3844866509   -0.0774508941    1.0496714375
N       -0.7559173234   -0.8313264547    0.2795932135
O       -1.4895133377   -2.9519191997    0.6026815673
O       -1.6540149823    1.5559953611    1.2304670679
O       -0.0292551343    1.2186714631   -0.8427575779
P       -0.5205507296    0.8059070864    0.6421215733
S        1.1473934157    0.9781357309    1.9158861072
H       -2.3984232534   -0.6337350022    2.5003152082
H       -0.7958820828   -1.1232285998    3.0405481946
H       -2.1082366472   -2.3343208357    2.9878587600
H        0.4494798269    2.6911887849   -2.1675556401
H        0.9167692768    3.0524165065   -0.4787393701
H       -0.8027130307    3.1577279952   -0.9725055954
H        2.8661469362   -0.7109360124    1.7957891062
H        3.1282412819    0.5536302484    0.5608867610
H        1.9010796764   -0.7069051263    0.3016799732
H       -0.5940175341   -1.1196245651   -0.6830241906
20   
torsion grid (0,)
C       -1.3407016268   -1.8399052657    1.0871797493
C       -1.7040618535   -1.4529854871    2.5012489043
C        0.1378282316    2.6171476356   -1.1336631718
C        2.3824606700   -0.0624620089    1.0306476767
N       -0.7777287041   -0.8341723765    0.2826381970
O       -1.5050688117   -2.9548692634    0.6181096229
O       -1.6627720435    1.5595269834    1.2266288622
O       -0.0395153823    1.2074648070   -0.8462108250
P       -0.5329095346    0.8027364481    0.6400687099
S        1.1368140249    0.9738422010    1.9112905796
H       -2.4249336747   -0.6307445319    2.5007517902
H       -0.8195170003   -1.1059616859    3.0449582648
H       -2.1238619341   -2.3260299267    2.9998588443
H        0.4394150484    2.6725599369   -2.1791623667
H        0.9203551052    3.0362047149   -0.4945267694
H       -0.8018015066    3.1508683978   -0.9773852565
H        2.6922676991   -0.8751546410    1.6890177030
H        3.2415012618    0.5603687574    0.7771015934
H        1.9636443290   -0.4840807351    0.1167092822
H       -0.6081729491   -1.1298466859   -0.6763493892
20   
torsion grid (15,)
C       -1.8222219597   -1.6842354516    0.7933410752
C       -2.2067707455   -1.3108833994    2.2055917677
C        0.1118247683    2.7012354005   -1.2111457745
C        2.0428448808   -0.2253393894    0.8825974173
N       -1.1467269270   -0.7057723646    0.0443167486
O       -2.0610716030   -2.7666652136    0.2817643142
O       -1.8506864426    1.7210024461    1.0519311245
O       -0.1957897117    1.3027554496   -0.9835262388
P       -0.7719070181    0.8896308285    0.4704512137
S        0.8673641099    0.8663568242    1.7912773888
H       -2.8612116677   -0.4348756695    2.2057858706
H       -1.3190587694   -1.0501486092    2.7909112858
H       -2.7113908514   -2.1621381092    2.6614364016
H        0.4484837052    2.7678477217   -2.2452307120
H        0.9078900169    3.0264132510   -0.5352616747
H       -0.7824724935    3.3090883732   -1.0598579182
H        2.0810025247   -1.2032776773    1.3644864107
H        3.0275686030    0.2435834183    0.9125008278
H        1.7349276049   -0.3488931591   -0.1561167954
H       -0.9591269901   -0.9867842751   -0.9157059984
20   
torsion grid (30,)
C       -1.4059151197   -1.8278476579    1.0491520245
C       -1.8139988674   -1.4150983118    2.4437945163
C        0.1178910941    2.6093933283   -1.1867710421
C        2.3103503479   -0.1037581719    0.9377150923
N       -0.8335858567   -0.8303914055    0.2419839248
O       -1.5439008931   -2.9545406630    0.5992864289
O       -1.6896302506    1.5758749221    1.1744973536
O       -0.0676407903    1.2010549944   -0.8950906143
P       -0.5679900905    0.8048888780    0.5913895161
S        1.1122881906    0.9553992126    1.8514734649
H       -2.5437061309   -0.6017908164    2.4059159286
H       -0.9493552600   -1.0458059728    3.0049552646
H       -2.2367575961   -2.2827265882    2.9493012388
H        0.4022130615    2.6612293069   -2.2372990070
H        0.9147711373    3.0212101374   -0.5609293707
H       -0.8141108648    3.1517508309   -1.0155305923
H        2.2490594673   -1.1336395522    1.2924914222
H        3.3074138435    0.2958788781    1.1306829510
H        2.1104743265   -0.0762669953   -0.1344130750
H       -0.6125360257   -1.1469197030   -0.6996374969
20   
torsion grid (45,)
C       -1.3745118931   -1.8263636417    1.0770553100
C       -1.7941714111   -1.4052016749    2.4658142132
C        0.0971069040    2.6100783327   -1.1926677540
C        2.3059308198   -0.1013965703    0.9366772001
N       -0.8084087328   -0.8319478565    0.2617955825
O       -1.4980984164   -2.9588933595    0.6378628272
O       -1.6857916841    1.5722212605    1.1797887580
O       -0.0662544636    1.2010734629   -0.8913408532
P       -0.5582489628    0.8082276203    0.5989358479
S        1.1282521372    0.9775764618    1.8487434002
H       -2.5342014384   -0.6019294051    2.4163744316
H       -0.9371464950   -1.0189870217    3.0272253394
H       -2.2079555993   -2.2730953636    2.9782785435
H        0.3765032105    2.6595068308   -2.2446457490
H        0.8903125915    3.0379173247   -0.5727799673
H       -0.8419842001    3.1399641744   -1.0210887947
H        2.0758765202   -1.1534419715    1.1130859821
H        3.3019397963    0.1253086997    1.3217020753
H        2.2726650726    0.1088573555   -0.1336023943
H       -0.5784537127   -1.1546663724   -0.6756645121
20   
torsion grid (60,)
C       -1.3836994437   -1.8289053413    1.0735850464
C       -1.7988595654   -1.4031803012    2.4622096347
C        0.0811245838    2.5983500723   -1.2178025028
C        2.3023055073   -0.1017005134    0.9124625933
N       -0.8140604751   -0.8390735845    0.2547252585
O       -1.5116376332   -2.9620247002    0.6373012929
O       -1.6895174998    1.5668919642    1.1672134202
O       -0.0795765324    1.1904713711   -0.9108221927
P       -0.5636476961    0.8026928196    0.5832735526
S        1.1287411100    0.9787262524    1.8248332832
H       -2.5308755105   -0.5926260518    2.4134058578
H       -0.9372402822   -1.0255696266    3.0224509899
H       -2.2203323117   -2.2669580455    2.9753596421
H        0.3628368693    2.6441060983   -2.2693298625
H        0.8717918550    3.0313702246   -0.5980781569
H       -0.8595122749    3.1268843516   -1.0504949168
H        1.9361289066   -1.1293869480    0.8820974456
H        3.2430837019   -0.0699333125    1.4656948716
H        2.4648548863    0.2692454036   -0.1007822109
H       -0.5868492187   -1.1653731903   -0.6821819716
20   
torsion grid (75,)
C       -1.3947826243   -1.8289490788    1.0725562151
C       -1.7923002198   -1.4018705130    2.4657618314
C        0.0663404052    2.5871159272   -1.2417775818
C        2.3050226881   -0.0921928039    0.9024337298
N       -0.8272291712   -0.8422303553    0.2479144790
O       -1.5339327571   -2.9608076085    0.6366583014
O       -1.6976825069    1.5663957751    1.1571174489
O       -0.0991045812    1.1813822766   -0.9290893896
P       -0.5747570507    0.8006648683    0.5693635362
S        1.1209699994    0.9841982659    1.8058407051
H       -2.5173844250   -0.5846290050    2.4256222345
H       -0.9214431908   -1.0332240629    3.0175418138
H       -2.2163217549   -2.2627015872    2.9817473467
H        0.3474177429    2.6277996905   -2.2936720536
H        0.8589924233    3.0200778942   -0.6244354080
H       -0.8722041085    3.1198076076   -1.0757197123
H        1.8446186846   -1.0496011056    0.6525287857
H        3.1402681028   -0.2675426696    1.5836421239
H        2.6728187042    0.4016976223    0.0018858201
H       -0.6154431291   -1.1691501901   -0.6923728928
20   
torsion grid (90,)
C       -1.7960453057   -1.5036644201    0.8907939334
C       -2.1550714139   -1.0885093483    2.2978459556
C        0.0103784040    2.8356655959   -1.3162178188
C        2.0293526750   -0.0124912275    0.8676098865
N       -1.1332634807   -0.5489198011    0.0992453188
O       -2.0409211156   -2.6014918879    0.4167718183
O       -1.8746104257    1.8996850697    1.0263623420
O       -0.2565551252    1.4404263608   -1.0288623196
P       -0.7891077027    1.0710124852    0.4532608249
S        0.8792024557    1.1298438468    1.7371720939
H       -2.8175457895   -0.2186488494    2.2827230371
H       -1.2582662446   -0.8013368656    2.8559956158
H       -2.6429564924   -1.9286952262    2.7909170437
H        0.3332310485    2.8697025309   -2.3562837050
H        0.8053457202    3.2098270955   -0.6643917756
H       -0.8977787536    3.4258390233   -1.1777441530
H        1.4788751682   -0.8099955462    0.3664545310
H        2.6677503336   -0.4553784315    1.6347718404
H        2.6501531310    0.5333453756    0.1559559649
H       -0.9739065057   -0.8557214520   -0.8581418288
20   
torsion grid (105,)
C       -1.8054020529   -1.4909728023    0.8964913377
C       -2.1495136409   -1.0742339354    2.3067771202
C       -0.0074580757    2.8421061066   -1.3318799029
C        2.0203309160   -0.0025912061    0.8798952959
N       -1.1582287093   -0.5338949287    0.0950995420
O       -2.0513407645   -2.5907025600    0.4274327205
O       -1.8899899200    1.9194986673    1.0194292963
O       -0.2800497751    1.4489762338   -1.0395600574
P       -0.8089284759    1.0856933402    0.4453154723
S        0.8591736273    1.1482984315    1.7289857646
H       -2.8124023089   -0.2045533226    2.2977163102
H       -1.2469722964   -0.7860310615    2.8550318886
H       -2.6318726452   -1.9140068953    2.8059369781
H        0.3105175587    2.8716905762   -2.3735718349
H        0.7926706738    3.2134795659   -0.6849023456
H       -0.9119807127    3.4371725158   -1.1905683818
H        1.4921426971   -0.6314687709    0.1626005891
H        2.4647114722   -0.6418551259    1.6449347212
H        2.8064139226    0.5640611278    0.3792520806
H       -1.0114245462   -0.8411074974   -0.8641051486
20   
torsion grid (120,)
C       -1.7940979200   -1.5094810622    0.9193472290
C       -2.1320332833   -1.0838794002    2.3285717731
C       -0.0084032971    2.8115057238   -1.3431433417
C        2.0407225572    0.0129520975    0.8692819223
N       -1.1533833581   -0.5560105843    0.1090568883
O       -2.0406343695   -2.6127815160    0.4589015110
O       -1.8880613045    1.9023910525    1.0183045234
O       -0.2810755334    1.4203729765   -1.0406295843
P       -0.8067114002    1.0665843943    0.4477028177
S        0.8638816195    1.1444422228    1.7266544016
H       -2.8020434920   -0.2196687672    2.3165261154
H       -1.2285543067   -0.7837019692    2.8688535268
H       -2.6047436910   -1.9232162468    2.8375977452
H        0.3060344073    2.8337689855   -2.3860911184
H        0.7940479265    3.1863449104   -0.7012375840
H       -0.9122217012    3.4078712870   -1.2029125807
H        1.5977498328   -0.3944578945   -0.0397726241
H        2.2925486442   -0.8076291831    1.5424413776
H        2.9402650694    0.5727708941    0.6093223484
H       -1.0100203685   -0.8695444223   -0.8485789785
20   
torsion grid (135,)
C       -1.8382349242   -1.4907790860    0.9194555712
C       -2.2005040606   -1.0449849082    2.3164557694
C       -0.0175777966    2.8132266210   -1.3458286347
C        2.0148106996    0.0226225791    0.8350873169
N       -1.1907695834   -0.5449018741    0.1068544859
O       -2.0721251813   -2.6022218045    0.4716878411
O       -1.9025194650    1.9191575897    1.0110674614
O       -0.2897693844    1.4220241838   -1.0406351491
P       -0.8264734898    1.0736342719    0.4451606810
S        0.8449844247    1.1362038419    1.7239198480
H       -2.8692945491   -0.1806039158    2.2815809188
H       -1.3057324270   -0.7380144448    2.8676446475
H       -2.6815538170   -1.8771995066    2.8293493723
H        0.2890305120    2.8345124098   -2.3911283350
H        0.7899399444    3.1869549008   -0.7097908243
H       -0.9196806959    3.4105522523   -1.1992391810
H        1.6984019398   -0.1199592810   -0.1987433119
H        2.0730269491   -0.9426589034    1.3392678061
H        2.9915121493    0.5096080345    0.8279157675
H       -1.0120545753   -0.8751347972   -0.8390432499
20   
torsion grid (150,)
C       -1.5624294882   -1.7753459136    0.7431138061
C       -2.0269717135   -1.4599480452    2.1455586335
C        0.3279996241    2.7388414043   -1.0043612970
C        2.2423905724   -0.2941975610    0.9571912055
N       -0.8946639665   -0.7485450676    0.0548864281
O       -1.7331500086   -2.8506561972    0.1905298609
O       -1.6540775366    1.6141299669    1.1651369305
O        0.0476228491    1.3241291546   -0.8531026266
P       -0.5513184923    0.8286353936    0.5656590499
S        1.0689253152    0.7578994736    1.9091581607
H       -2.7039669622   -0.6015047693    2.1429333562
H       -1.1761225895   -1.1967985341    2.7825681754
H       -2.5284113040   -2.3395630299    2.5479501998
H        0.6731995072    2.8662836351   -2.0299028938
H        1.1104643487    3.0443587423   -0.3038205989
H       -0.5801966555    3.3196749812   -0.8314413329
H        2.1252589674   -0.1235597240   -0.1142458471
H        2.0888242921   -1.3491451606    1.1871161305
H        3.2496606124    0.0148109153    1.2429408651
H       -0.6347403531   -0.9976134300   -0.8970317001
20   
torsion grid (165,)
C       -1.5365702921   -1.7751120345    0.7718360526
C       -2.0110085255   -1.4504381955    2.1689064884
C        0.3067430202    2.7438920446   -1.0096206544
C        2.2381601571   -0.2887284186    0.9561506372
N       -0.8732928138   -0.7511300514    0.0750788957
O       -1.6951169593   -2.8575333442    0.2297036875
O       -1.6527774449    1.6106646775    1.1725332723
O        0.0447584305    1.3267359209   -0.8492887279
P       -0.5441312725    0.8326988958    0.5741837579
S        1.0846771159    0.7809373054    1.9086387503
H       -2.6956431158   -0.5982321874    2.1546029629
H       -1.1657350531   -1.1733250458    2.8074083220
H       -2.5063659377   -2.3305720990    2.5776936235
H        0.6482168226    2.8695989700   -2.0366326275
H        1.0867714495    3.0638377169   -0.3126851880
H       -0.6082823984    3.3143761224   -0.8382329052
H        2.2959230414    0.0378354080   -0.0836096389
H        1.9273318041   -1.3333430681    1.0055769489
H        3.2211544834   -0.1729655443    1.4170464066
H       -0.6048574404   -1.0073788441   -0.8726466168
20   
torsion grid (180,)
C       -1.5395192956   -1.7806229439    0.7709833875
C       -2.0053414079   -1.4524821679    2.1699762929
C        0.2937483147    2.7337441320   -1.0353117248
C        2.2401384039   -0.2797494275    0.9371790942
N       -0.8768970916   -0.7576925432    0.0715048831
O       -1.7027108529   -2.8631879857    0.2304717524
O       -1.6552419841    1.6073621699    1.1608145474
O        0.0343708804    1.3171859120   -0.8673686261
P       -0.5475781158    0.8290898899    0.5609242189
S        1.0863483743    0.7870748207    1.8897394384
H       -2.6852946363   -0.5965063878    2.1587780852
H       -1.1551878839   -1.1800600580    2.8039536804
H       -2.5033234612   -2.3298450529    2.5814597767
H        0.6333676157    2.8549922640   -2.0634749155
H        1.0743075648    3.0589638018   -0.3412653634
H       -0.6217759421    3.3038380163   -0.8651617585
H        2.4920055922    0.1777145126   -0.0209188263
H        1.8084669064   -1.2696851964    0.7795463702
H        3.1433796073   -0.3733413908    1.5434655266
H       -0.6156144729   -1.0151786193   -0.8778621837
