17   
torsion grid (-165,)
C        1.0671412304    2.2029284717    0.7895633398
C        0.0274936961    1.2479297657    0.6747193103
C        2.4262281766    2.1735537071    0.2076238915
C       -1.4870304899    3.6479578112    2.7206691306
C        4.4740982978    3.3087155758   -0.0153413850
N        0.6062369217    3.2121588156    1.5529672847
N       -1.0374261751    1.6765109111    1.3546888349
N       -0.6317129876    2.8527699619    1.8518190909
O        2.8460130496    1.2554586567   -0.4730725965
O        3.1353455172    3.2762844927    0.5216502011
Br      -0.0160416545   -0.3862331581   -0.2473924540
H       -1.5216455706    3.2032735623    3.7187589306
H       -1.0651071579    4.6505623545    2.7725628326
H       -2.4914513213    3.6755946240    2.2969356141
H        4.8987864891    4.2515632438    0.3279524730
H        4.4476842661    3.2708738720   -1.1068715807
H        5.0554976891    2.4631670346    0.3596339691
17   
torsion grid (-150,)
C        1.0493557688    2.1799508109    0.7683480163
C        0.0044438094    1.2332040667    0.6350806769
C        2.4110230376    2.1488121968    0.1921040449
C       -1.4987825789    3.6145059993    2.7120391359
C        4.4704414145    3.2684935184    0.0007918229
N        0.5907897245    3.1828320411    1.5410867114
N       -1.0618414377    1.6603149613    1.3138483892
N       -0.6512729534    2.8284523973    1.8270562782
O        2.8254860145    1.2403248165   -0.5045248069
O        3.1290462889    3.2380807203    0.5313385991
Br      -0.0448491587   -0.3882620533   -0.3089488931
H       -1.3299348854    3.3215194909    3.7518452797
H       -1.2498427969    4.6668800639    2.5779824954
H       -2.5373672642    3.4288253542    2.4404036710
H        4.9030055618    4.1994374916    0.3660152648
H        4.4483870044    3.2543504447   -1.0914082866
H        5.0416720376    2.4092493094    0.3598983797
17   
torsion grid (-135,)
C        1.0575526181    2.2057225429    0.7741972739
C        0.0044904292    1.2708071459    0.6236416195
C        2.4197010100    2.1719186008    0.1988538959
C       -1.4816308223    3.6410932285    2.7283530221
C        4.4902262276    3.2747254521    0.0330210695
N        0.6082930481    3.1978245180    1.5659673939
N       -1.0583841292    1.6949481810    1.3097997111
N       -0.6359513156    2.8484558404    1.8467583485
O        2.8276663960    1.2734335567   -0.5143684688
O        3.1475170947    3.2472735448    0.5604238749
Br      -0.0584127592   -0.3342861370   -0.3472103226
H       -1.1537150686    3.5238443994    3.7642337288
H       -1.4138682188    4.6898005688    2.4362407124
H       -2.5029937160    3.2805640675    2.6173938490
H        4.9312525621    4.1939986809    0.4171776253
H        4.4701900723    3.2821469852   -1.0592854598
H        5.0521814673    2.4029777409    0.3762819545
17   
torsion grid (-120,)
C        1.1110295983    2.1651468508    0.8775646034
C        0.2859268464    1.0593753810    1.1966065077
C        2.4134136781    2.1815241011    0.1766910989
C       -1.5874100423    3.7116081997    2.5093180857
C        4.1787250031    3.5151231201   -0.6211810665
N        0.4977630033    3.2732787746    1.3348885623
N       -0.8026925871    1.4958111667    1.8331795649
N       -0.6174427233    2.8227217826    1.8844679537
O        2.9663106300    1.1787613367   -0.2370078731
O        2.9068841973    3.4299730928    0.0548032428
Br       0.5299537253   -0.7703429376    0.8566111741
H       -1.1139844311    4.2457770234    3.3355857781
H       -1.9549753711    4.4279107479    1.7717027748
H       -2.4056971869    3.0954352329    2.8776124111
H        4.4284256102    4.5756377581   -0.6314098394
H        4.0956009353    3.1273101330   -1.6391602274
H        4.9367510398    2.9442213375   -0.0798647128
17   
torsion grid (-105,)
C        1.0993094429    2.1366582680    0.8708794806
C        0.2648097069    1.0319767556    1.1691887463
C        2.4018321740    2.1543356857    0.1704621412
C       -1.5978131724    3.6771279811    2.5070008303
C        4.1827110149    3.4859664587   -0.5954827771
N        0.4979436182    3.2409527664    1.3524110842
N       -0.8177703887    1.4648660215    1.8180160237
N       -0.6183133393    2.7881451411    1.8981654025
O        2.9422911996    1.1557330470   -0.2689403386
O        2.9104879686    3.3993256239    0.0795955890
Br       0.4941620117   -0.7931314903    0.7958299772
H       -1.0803929750    4.3754769320    3.1661315443
H       -2.1299748707    4.2321405948    1.7303426617
H       -2.2955691641    3.0626950753    3.0734822718
H        4.4448904148    4.5434037460   -0.5800917257
H        4.0942609849    3.1241191405   -1.6225297527
H        4.9343756451    2.8931615868   -0.0690385197
17   
torsion grid (-90,)
C        1.0801164429    2.0683447537    0.8655285318
C        0.2372343134    0.9646419704    1.1444751707
C        2.3832815912    2.0892238418    0.1665993248
C       -1.6164936232    3.5986909648    2.5113579718
C        4.1786985061    3.4200108844   -0.5663887464
N        0.4875163660    3.1679469033    1.3681230819
N       -0.8412599577    1.3934564987    1.8023090685
N       -0.6310041403    2.7129907173    1.9084325573
O        2.9134183425    1.0957158611   -0.2963265884
O        2.9052298421    3.3306120537    0.1059729019
Br       0.4556249930   -0.8555748964    0.7418752793
H       -1.0889032064    4.4352883434    2.9689231273
H       -2.3045693850    3.9701126911    1.7469940830
H       -2.1668645650    3.0338103828    3.2628159645
H        4.4521007409    4.4739189344   -0.5253241667
H        4.0870351845    3.0840870187   -1.6019246287
H        4.9237218416    2.8066987507   -0.0541888915
17   
torsion grid (-75,)
C        1.0594912279    1.9837342115    0.8581462231
C        0.2049569338    0.8823782540    1.1091461502
C        2.3681755285    2.0073068820    0.1701063495
C       -1.6347108516    3.4988175352    2.5258529876
C        4.1702971434    3.3417912418   -0.5390010443
N        0.4710286011    3.0786853036    1.3760374431
N       -0.8742813281    1.3074093044    1.7681536504
N       -0.6551908296    2.6227002891    1.9001296808
O        2.9022653993    1.0176213735   -0.2965273657
O        2.8910524281    3.2488766390    0.1217617180
Br       0.4099014153   -0.9309591647    0.6704318979
H       -1.1368701815    4.4395827611    2.7561448829
H       -2.4690507876    3.6743636571    1.8417139861
H       -2.0009444032    3.0248777642    3.4371911945
H        4.4432283812    4.3954958778   -0.4901939357
H        4.0878292488    3.0111082238   -1.5769870125
H        4.9109049124    2.7259929054   -0.0233626182
17   
torsion grid (-60,)
C        1.0598696770    2.0194882687    0.8475137223
C        0.1942574595    0.9233731778    1.0830293256
C        2.3732074809    2.0388902972    0.1685033118
C       -1.6211127084    3.5371930506    2.5364380598
C        4.1960184895    3.3626169193   -0.5076860228
N        0.4738652863    3.1159708159    1.3654952611
N       -0.8899777612    1.3534300597    1.7306556101
N       -0.6644969468    2.6667196363    1.8688620917
O        2.8981876132    1.0495836541   -0.3091518341
O        2.9116415321    3.2746193488    0.1436839709
Br       0.3870253851   -0.8878333766    0.6301594657
H       -1.2117295057    4.5457844863    2.5182863302
H       -2.5757924565    3.5040792040    2.0073578338
H       -1.7628174874    3.2026989451    3.5663338128
H        4.4821219030    4.4116911524   -0.4386236640
H        4.1156586777    3.0514567435   -1.5518684505
H        4.9255120490    2.7282739470    0.0012431841
17   
torsion grid (-45,)
C        1.0466836293    1.9876369441    0.8355415415
C        0.1713266414    0.8942002295    1.0466146815
C        2.3665959320    2.0067432974    0.1691510695
C       -1.6230906631    3.4953946412    2.5476887481
C        4.2012795733    3.3284964898   -0.4778073448
N        0.4613343205    3.0818234759    1.3586939267
N       -0.9190069794    1.3239270664    1.6840506776
N       -0.6885192789    2.6349929041    1.8371279053
O        2.8933517945    1.0194359681   -0.3106637332
O        2.9098405298    3.2404687953    0.1594860160
Br       0.3548298942   -0.9112705796    0.5675174009
H       -1.3668085103    4.5275020549    2.3131712899
H       -2.6360725012    3.2655112934    2.2156110177
H       -1.5424673099    3.3243770556    3.6243726117
H        4.4910140361    4.3757206548   -0.3969002450
H        4.1303931412    3.0265204765   -1.5253703295
H        4.9228066680    2.6867598783    0.0331956462
17   
torsion grid (-30,)
C        1.0345063301    1.9556696467    0.8234635284
C        0.1498091223    0.8654799810    1.0096253268
C        2.3590222511    1.9762099559    0.1659078503
C       -1.6292930275    3.4539876128    2.5521362475
C        4.2047591139    3.2955148614   -0.4539019748
N        0.4533667679    3.0449902958    1.3610649750
N       -0.9427462185    1.2926253120    1.6453542703
N       -0.7034944389    2.5994274032    1.8226730266
O        2.8838874377    0.9909106819   -0.3200225652
O        2.9081624386    3.2072834200    0.1728292366
Br       0.3219001722   -0.9323503032    0.4987473350
H       -1.5558279281    4.4627992887    2.1468334930
H       -2.6348431140    3.0564977123    2.4192598285
H       -1.3734050473    3.4619984684    3.6152534331
H        4.4988773288    4.3404375567   -0.3601534022
H        4.1402443635    3.0045177607   -1.5049756533
H        4.9193388398    2.6450966187    0.0558893590
17   
torsion grid (-15,)
C        1.0051581228    1.8718990108    0.8018193022
C        0.1124314607    0.7841335005    0.9617896471
C        2.3326146557    1.8966772567    0.1500597327
C       -1.6589494565    3.3598508527    2.5388923236
C        4.1878640876    3.2168093173   -0.4388438169
N        0.4309776546    2.9532270441    1.3622896484
N       -0.9781923570    1.2051431197    1.6050211379
N       -0.7286528379    2.5057208293    1.8139044174
O        2.8537788893    0.9175255738   -0.3519661092
O        2.8882359009    3.1243954326    0.1810233493
Br       0.2735668259   -1.0039426824    0.4140923119
H       -1.7721317922    4.3005606960    1.9986196486
H       -2.6109240489    2.8349925324    2.5989923752
H       -1.2774187163    3.5562181799    3.5441105179
H        4.4860028559    4.2588651593   -0.3275699734
H        4.1266832705    2.9423928054   -1.4945496108
H        4.8974471034    2.5554940366    0.0638818042
17   
torsion grid (0,)
C        1.0157644189    1.9170181739    0.8030900892
C        0.1125526709    0.8357803198    0.9460170908
C        2.3429023741    1.9391413036    0.1504685722
C       -1.6423266080    3.4090714975    2.5467064225
C        4.2154182331    3.2472706718   -0.4094614536
N        0.4544926921    2.9934503242    1.3855928155
N       -0.9703267359    1.2548289220    1.6035993004
N       -0.7059964216    2.5483446652    1.8370977898
O        2.8490997583    0.9658384687   -0.3775761154
O        2.9158701046    3.1577243108    0.2109766944
Br       0.2569857381   -0.9453927516    0.3719483587
H       -1.9396952992    4.2370778301    1.8999218741
H       -2.5089080307    2.8042615981    2.8077709517
H       -1.1669831911    3.8001152850    3.4485260788
H        4.5297153288    4.2812168406   -0.2704781104
H        4.1476785975    3.0029386490   -1.4721506269
H        4.9158818442    2.5616232790    0.0730262629
17   
torsion grid (15,)
C        1.0000354929    1.8793049427    0.7894878075
C        0.0883656957    0.8025700501    0.9120990374
C        2.3270044735    1.9045563545    0.1367454955
C       -1.6587634516    3.3640009653    2.5386160380
C        4.2138393450    3.2062712719   -0.3896666845
N        0.4494990237    2.9470347817    1.3978293702
N       -0.9892113805    1.2162219874    1.5817065663
N       -0.7122529464    2.5010827787    1.8456743313
O        2.8217780028    0.9393932065   -0.4164655307
O        2.9137403805    3.1146230128    0.2292926348
Br       0.2196283934   -0.9686902623    0.3051730543
H       -2.1286905180    4.0476916678    1.8270191191
H       -2.4140764761    2.7264127395    2.9950416351
H       -1.1265481963    3.9351575987    3.3002716886
H        4.5390333388    4.2330098071   -0.2247173214
H        4.1430408448    2.9896807820   -1.4581478844
H        4.9073269227    2.5013328520    0.0747732468
17   
torsion grid (30,)
C        0.9714051063    1.7830173949    0.7736762426
C        0.0528004514    0.7097525602    0.8749441486
C        2.2988751657    1.8125009918    0.1222821295
C       -1.6901655013    3.2526928764    2.5301413047
C        4.1956148669    3.1115051082   -0.3731970970
N        0.4271826941    2.8421823672    1.4022031109
N       -1.0222168364    1.1167281217    1.5522507298
N       -0.7367243530    2.3935859331    1.8429499230
O        2.7873899727    0.8566716302   -0.4522431470
O        2.8946224984    3.0157369766    0.2427019486
Br       0.1762958703   -1.0512430577    0.2373305326
H       -2.3257310278    3.7644221084    1.8021796354
H       -2.3035486396    2.6284937290    3.1789532938
H       -1.1326733103    3.9851055140    3.1133817006
H        4.5305513249    4.1303331671   -0.1808826029
H        4.1232433237    2.9244043232   -1.4471724355
H        4.8823460256    2.3878365664    0.0721146850
17   
torsion grid (45,)
C        0.9907607416    1.8779407822    0.7781545379
C        0.0547831529    0.8177804125    0.8573766426
C        2.3229480018    1.8963799421    0.1366594739
C       -1.6550190844    3.3548699468    2.5540286843
C        4.2358721981    3.1784109961   -0.3420062182
N        0.4592687154    2.9357766210    1.4200628748
N       -1.0179334168    1.2311881505    1.5342819316
N       -0.7146509618    2.4985354870    1.8461657739
O        2.8063086764    0.9374177407   -0.4371140104
O        2.9290631408    3.0938396472    0.2636230979
Br       0.1524184002   -0.9333141998    0.1888269755
H       -2.4476534852    3.6796079902    1.8748525998
H       -2.0895371869    2.7929015689    3.3814577635
H       -1.1030995591    4.2178162061    2.9236432851
H        4.5758592839    4.1958470733   -0.1512020064
H        4.1713103125    2.9869070020   -1.4156485656
H        4.9139577633    2.4522832175    0.1124603387
17   
torsion grid (60,)
C        0.9779492021    1.8520909185    0.7598758584
C        0.0363212420    0.7958234663    0.8228427939
C        2.3141625361    1.8705617322    0.1270564474
C       -1.6632286508    3.3145859804    2.5564059254
C        4.2419413454    3.1440914686   -0.3129227613
N        0.4445849763    2.9082324240    1.4030709111
N       -1.0427563157    1.2107635181    1.4883922240
N       -0.7388251169    2.4758338546    1.8078124274
O        2.7938333562    0.9190298728   -0.4620073008
O        2.9306585336    3.0592875602    0.2829231409
Br       0.1305371247   -0.9493989561    0.1387264758
H       -2.5953727603    3.4201365015    1.9974391522
H       -1.8683410161    2.8565521155    3.5262408032
H       -1.1883706775    4.2853663433    2.6884061021
H        4.5913192353    4.1532050999   -0.0965832793
H        4.1818053475    2.9783164282   -1.3911125463
H        4.9097243114    2.4005086865    0.1283432243
17   
torsion grid (75,)
C        0.9806843755    1.8875975791    0.7557340261
C        0.0267247482    0.8413562177    0.7953195908
C        2.3230144957    1.8982858260    0.1355992522
C       -1.6449659181    3.3462674377    2.5751277531
C        4.2652567000    3.1572771866   -0.2821447596
N        0.4510675341    2.9431506437    1.4027655942
N       -1.0563217461    1.2616016168    1.4510875378
N       -0.7437458409    2.5213185045    1.7840508479
O        2.7994426089    0.9438730177   -0.4513991874
O        2.9475505300    3.0815604433    0.3006024507
Br       0.1070157717   -0.8947598356    0.0867047383
H       -2.6572936616    3.2376085263    2.1843893436
H       -1.6187275294    3.0299011654    3.6211719988
H       -1.3092041442    4.3786154753    2.4889205857
H        4.6205936214    4.1629801696   -0.0597301307
H        4.2143603796    2.9947323658   -1.3612997957
H        4.9226430993    2.4071833650    0.1636881091
17   
torsion grid (90,)
C        0.9856773979    1.9171225603    0.7551715867
C        0.0200628373    0.8811888563    0.7732981013
C        2.3315707652    1.9224529225    0.1422153163
C       -1.6271411790    3.3762044136    2.5913247128
C        4.2863268523    3.1694992027   -0.2513129676
N        0.4635838585    2.9688618275    1.4142935322
N       -1.0622740411    1.3035958334    1.4292140804
N       -0.7379692470    2.5553025652    1.7820822292
O        2.8042710140    0.9709327322   -0.4524212245
O        2.9646194289    3.0987221646    0.3229960981
Br       0.0836541668   -0.8439855299    0.0367954071
H       -2.6529895545    3.0768199598    2.3798253429
H       -1.4088811249    3.2313180180    3.6529395498
H       -1.4675487140    4.4199691442    2.3218426751
H        4.6487572550    4.1697582703   -0.0161987192
H        4.2403501704    3.0187807861   -1.3324048672
H        4.9347573661    2.4091948467    0.1903206143
17   
torsion grid (105,)
C        1.0224815232    2.0174210551    0.7799871889
C        0.0445286376    0.9930554125    0.7795484741
C        2.3691344961    2.0182121250    0.1683198621
C       -1.5782078150    3.4845756344    2.6288377948
C        4.3378217414    3.2500847626   -0.2038983367
N        0.5134575999    3.0626169772    1.4595014187
N       -1.0317286755    1.4160994666    1.4454360040
N       -0.6914944388    2.6565901447    1.8232450938
O        2.8308958601    1.0709520126   -0.4414787101
O        3.0148972935    3.1844343994    0.3682488210
Br       0.0868431438   -0.7196841464    0.0128417322
H       -2.5687625179    3.0336511817    2.6003230494
H       -1.2143727896    3.5277542353    3.6585532529
H       -1.6032693180    4.4901659142    2.2071515952
H        4.7101078689    4.2431473489    0.0458643717
H        4.2914408817    3.1152742040   -1.2870586263
H        4.9780581304    2.4770120499    0.2274209043
17   
torsion grid (120,)
C        1.0299866121    2.0485430617    0.7798895169
C        0.0428813345    1.0333962930    0.7610121848
C        2.3765627099    2.0471498640    0.1679815161
C       -1.5666148929    3.5169307950    2.6342759648
C        4.3604366850    3.2626677845   -0.1756901357
N        0.5324468891    3.0841307476    1.4821956020
N       -1.0272455606    1.4520195833    1.4395457571
N       -0.6735485066    2.6802759876    1.8444434236
O        2.8255121807    1.1096824890   -0.4660348777
O        3.0373484790    3.1996199521    0.3963634136
Br       0.0705193542   -0.6666229885   -0.0341120882
H       -2.4846662024    2.9545232959    2.7948980178
H       -1.0952939259    3.7535914692    3.5903679487
H       -1.7781249410    4.4399928123    2.0907710707
H        4.7453909133    4.2445896557    0.0977794298
H        4.3113509961    3.1549142980   -1.2617546323
H        4.9913188234    2.4713314732    0.2358494436
17   
torsion grid (135,)
C        1.0348415855    2.0723489632    0.7786253558
C        0.0383486790    1.0667392432    0.7411864308
C        2.3814720599    2.0699444005    0.1669452009
C       -1.5576014694    3.5398781143    2.6374153975
C        4.3790944011    3.2706400416   -0.1482279213
N        0.5485904165    3.0974801608    1.5037422813
N       -1.0256336963    1.4795978463    1.4325994493
N       -0.6587237723    2.6949569058    1.8634899168
O        2.8195066521    1.1429907586   -0.4897600468
O        3.0555192728    3.2088939381    0.4228248038
Br       0.0517546373   -0.6194309493   -0.0831801620
H       -2.3730825029    2.9131845450    2.9947961629
H       -1.0083082593    3.9659874766    3.4779199618
H       -1.9502924735    4.3418642079    2.0074115041
H        4.7752010685    4.2413238433    0.1484577042
H        4.3285547938    3.1894648212   -1.2365340118
H        5.0010876839    2.4626130645    0.2439587138
17   
torsion grid (150,)
C        1.0429638689    2.1054474519    0.7814056358
C        0.0359469140    1.1110974017    0.7258486048
C        2.3902385938    2.0990613290    0.1715081390
C       -1.5446774930    3.5703787491    2.6488017964
C        4.4013796329    3.2831087341   -0.1196981350
N        0.5674467405    3.1219980584    1.5255150606
N       -1.0236478744    1.5222901192    1.4246378898
N       -0.6434782890    2.7242653215    1.8798448797
O        2.8190463457    1.1795518393   -0.5015803152
O        3.0764124895    3.2258031044    0.4485626796
Br       0.0336051196   -0.5610572861   -0.1265938547
H       -2.2262382016    2.9252156034    3.2021236347
H       -0.9475216468    4.1730787457    3.3326052142
H       -2.1128769862    4.2208637679    1.9783116908
H        4.8077895295    4.2438578679    0.1948626915
H        4.3515077429    3.2220604534   -1.2093489011
H        5.0138564143    2.4613359258    0.2586660260
17   
torsion grid (165,)
C        1.0305011216    2.0811288088    0.7654850100
C        0.0178765289    1.0931509266    0.6937438666
C        2.3795627706    2.0753754716    0.1599842404
C       -1.5555686443    3.5323470085    2.6458140921
C        4.4028979978    3.2466536856   -0.0966673189
N        0.5576453241    3.0915570591    1.5195444301
N       -1.0429776168    1.5026897058    1.3910744473
N       -0.6580201212    2.6967337025    1.8618814389
O        2.8034292040    1.1673325478   -0.5315746374
O        3.0753796558    3.1888112257    0.4655401265
Br       0.0099188828   -0.5680515361   -0.1798557864
H       -2.0557858388    2.9108324649    3.3893254228
H       -0.9538754349    4.2997079450    3.1306333414
H       -2.3003359185    3.9952314999    1.9930860304
H        4.8180909120    4.1948534791    0.2434804149
H        4.3562322521    3.2138518760   -1.1876899245
H        5.0055555361    2.4092377155    0.2626447564
17   
torsion grid (180,)
C        1.0362243829    2.1168520856    0.7638889093
C        0.0131663052    1.1414918846    0.6715587791
C        2.3900722269    2.1025401062    0.1696939690
C       -1.5390902267    3.5597522201    2.6664846917
C        4.4269751909    3.2552322842   -0.0643437927
N        0.5663786561    3.1263868186    1.5212134988
N       -1.0513512511    1.5578567824    1.3591835991
N       -0.6596287336    2.7448950789    1.8413058612
O        2.8094330332    1.1927230746   -0.5222832073
O        3.0942715493    3.2077339325    0.4863737867
Br      -0.0064235693   -0.5081137978   -0.2235503449
H       -1.8107651300    3.0058627790    3.5674815528
H       -0.9939313197    4.4651190753    2.9281668632
H       -2.4414920554    3.8081356312    2.1039118751
H        4.8485647175    4.1976108222    0.2840350811
H        4.3892303567    3.2282964779   -1.1558737327
H        5.0183514325    2.4101617994    0.2957833012
