28   
torsion grid (-165,)
C       -2.0793854568   -3.5440861822   -1.2018158634
C        0.6561146243    1.9020548146    2.4238282005
C        0.3137208916    1.1155144058    1.3052622889
C       -2.3549314438   -4.2231772518   -2.3826170726
C       -1.8565183401    0.5321358758    2.2943297672
C       -1.9943875607   -2.1614112732   -3.6231744971
C       -1.7582156507   -2.1743727285   -1.1864320657
C       -0.2783960310    1.9918561921    3.4371359204
C       -1.4939871112    1.3050979013    3.3797416276
C       -0.9109152938    0.4580385255    1.2563066368
C       -1.7230008769   -1.5097376897   -2.4224738564
C       -2.3097811550   -3.5184466370   -3.5902755357
C       -1.4828712435   -1.5695660653    0.1492735773
C       -1.2658276340    2.1528089815    5.4258641773
O       -1.5096109664   -2.2043253348    1.1845696829
O       -0.2093138732    2.6980159986    4.6229201192
O       -2.2154798123    1.5495823054    4.5294267796
O       -1.2053227676   -0.2400765484    0.0744457230
F       -1.4206510737   -0.2010110590   -2.5076019281
Cl      -2.6532923310   -4.3490434005   -5.0896567128
H       -2.1059366404   -4.0631380022   -0.2493161086
H        1.6052510785    2.4248435386    2.4785974157
H        0.9991397798    1.0136500051    0.4704341968
H       -2.6012725969   -5.2793965552   -2.3740672120
H       -2.7977713898   -0.0023757062    2.2532055473
H       -1.9553523021   -1.6058771225   -4.5537458544
H       -0.8575503945    1.3804055951    6.0932932601
H       -1.7521577998    2.9566141621    5.9797560838
28   
torsion grid (-150,)
C       -2.0871743258   -3.5477990599   -1.1790071939
C        0.6430106655    1.8993586435    2.4241614022
C        0.3082102996    1.1034132346    1.3100182773
C       -2.3527321860   -4.2436086314   -2.3522890324
C       -1.8974166250    0.5869717312    2.2554849620
C       -1.9759513573   -2.1989802640   -3.6178432115
C       -1.7633979402   -2.1785765815   -1.1792244228
C       -0.3380350587    2.0900775253    3.3790531666
C       -1.5428372529    1.3777842299    3.3307427744
C       -0.9352873756    0.4848061442    1.2355594305
C       -1.7150323179   -1.5309682817   -2.4238619533
C       -2.2941095443   -3.5549039439   -3.5686268234
C       -1.4995567320   -1.5558589712    0.1503711894
C       -1.2168000050    2.0719427173    5.4069800387
O       -1.5374938239   -2.1748552553    1.1947677016
O       -0.2730916514    2.7651277641    4.5882697680
O       -2.2284169696    1.5604782504    4.5149909524
O       -1.2178585782   -0.2279145610    0.0598247122
F       -1.4095229871   -0.2241529448   -2.5240669465
Cl      -2.6242146762   -4.4054244597   -5.0596297983
H       -2.1240033122   -4.0533693250   -0.2196405289
H        1.6127420088    2.3801297901    2.5026474678
H        1.0186549701    0.9549795478    0.5035708363
H       -2.6012636767   -5.2991634661   -2.3314917938
H       -2.8297186475    0.0363106276    2.2235005897
H       -1.9268660447   -1.6566904400   -4.5557341322
H       -0.7245554473    1.2289966003    5.9140004065
H       -1.6735236037    2.7700450951    6.1080259814
28   
torsion grid (-135,)
C       -2.0934128240   -3.5551770868   -1.1603962876
C        0.6197240102    1.8867237943    2.4395340929
C        0.2998435899    1.0841445430    1.3262355687
C       -2.3516028266   -4.2633504870   -2.3279229853
C       -1.9362034656    0.6290490668    2.2223347715
C       -1.9632921733   -2.2341627136   -3.6121835960
C       -1.7677547601   -2.1864435326   -1.1724150695
C       -0.4003138298    2.1798124109    3.3293025392
C       -1.5919732199    1.4349780367    3.2903036351
C       -0.9592432841    0.5024983942    1.2201961414
C       -1.7099417684   -1.5530315846   -2.4239701879
C       -2.2836616895   -3.5890998095   -3.5518526698
C       -1.5129536480   -1.5495176694    0.1519661699
C       -1.1699316503    1.9903541987    5.3809354973
O       -1.5588753278   -2.1567389914    1.2028419771
O       -0.3452467816    2.8134994667    4.5684970960
O       -2.2339354665    1.5362265911    4.5084759917
O       -1.2277161546   -0.2227072808    0.0494995393
F       -1.4022023294   -0.2478798817   -2.5365708651
Cl      -2.6041670302   -4.4554065581   -5.0358467836
H       -2.1379068844   -4.0504692092   -0.1960155609
H        1.6065631505    2.3263589760    2.5472310871
H        1.0355858076    0.8938850444    0.5519341695
H       -2.6017675826   -5.3182483084   -2.2970409752
H       -2.8565405097    0.0581126281    2.2017704283
H       -1.9067844308   -1.7019774993   -4.5554067716
H       -0.6071055547    1.1170435342    5.7422639668
H       -1.5966486391    2.5821778674    6.1899006683
28   
torsion grid (-120,)
C       -2.0982432684   -3.5595135579   -1.1381964797
C        0.5943334938    1.8706096623    2.4658944548
C        0.2913411629    1.0619915255    1.3530529415
C       -2.3467514185   -4.2779495396   -2.3014834354
C       -1.9726455768    0.6692214283    2.1965028473
C       -1.9480864391   -2.2599206741   -3.6011904452
C       -1.7724579920   -2.1909179492   -1.1602381026
C       -0.4521806210    2.2663493859    3.2892281806
C       -1.6314721913    1.4864562702    3.2577768782
C       -0.9816900163    0.5189007212    1.2131271949
C       -1.7047163734   -1.5685503631   -2.4168599941
C       -2.2685481023   -3.6143593358   -3.5306872483
C       -1.5282116389   -1.5419976524    0.1599578568
C       -1.1116196740    1.9234693608    5.3503495076
O       -1.5848678102   -2.1379895387    1.2165645659
O       -0.4213569852    2.8623989449    4.5568097474
O       -2.2214861279    1.4978370026    4.5054386902
O       -1.2365179460   -0.2168374834    0.0472891106
F       -1.3967686962   -0.2643436292   -2.5380726831
Cl      -2.5763269530   -4.4941639992   -5.0092351084
H       -2.1507952928   -4.0461465872   -0.1698218517
H        1.5950841236    2.2713052483    2.6011393076
H        1.0499660830    0.8329366649    0.6121468230
H       -2.5971785259   -5.3325512051   -2.2634101951
H       -2.8813667895    0.0795343592    2.1901440323
H       -1.8840183983   -1.7361956498   -4.5486724959
H       -0.4833057351    1.0498321138    5.5769285696
H       -1.5072786642    2.4096755029    6.2412678423
28   
torsion grid (-105,)
C       -2.1245177264   -3.5245782616   -1.1294783424
C        0.5498908469    1.9005914697    2.4962207363
C        0.2719343115    1.0816562332    1.3848977835
C       -2.3589331692   -4.2465419561   -2.2934672569
C       -2.0120671489    0.7203629692    2.1797840291
C       -1.9026559107   -2.2436045753   -3.5974579139
C       -1.7779503849   -2.1610972493   -1.1538056192
C       -0.5225584821    2.3783622631    3.2479528307
C       -1.6806846081    1.5485494329    3.2379530710
C       -1.0071882617    0.5593647718    1.2136130670
C       -1.6742549213   -1.5481068068   -2.4126011116
C       -2.2447044008   -3.5926764488   -3.5251061793
C       -1.5521130112   -1.5067915800    0.1666804537
C       -1.0383687105    1.8898867269    5.3118404987
O       -1.6368089596   -2.0939425894    1.2262500690
O       -0.5162738491    2.9376752715    4.5446454082
O       -2.1935809192    1.4560212668    4.5141910248
O       -1.2396426276   -0.1862677017    0.0507795620
F       -1.3442436598   -0.2494785311   -2.5351751537
Cl      -2.5339407129   -4.4778760745   -5.0040506902
H       -2.2048306165   -4.0040270696   -0.1594284469
H        1.5557021639    2.2820090235    2.6542724928
H        1.0508366436    0.8260089051    0.6746033597
H       -2.6259173951   -5.2970194857   -2.2541014563
H       -2.9004445285    0.1005396347    2.1932138674
H       -1.8105958800   -1.7272370932   -4.5466662376
H       -0.3373785320    1.0484428660    5.4043442291
H       -1.3925970483    2.2673020904    6.2705117290
28   
torsion grid (-90,)
C       -2.1284309126   -3.5388938774   -1.1156163846
C        0.5153827431    1.8669763454    2.5316612352
C        0.2546325317    1.0410894866    1.4230677606
C       -2.3504909548   -4.2684707041   -2.2772438890
C       -2.0517951757    0.7512198087    2.1576074033
C       -1.8960335595   -2.2695645431   -3.5882085730
C       -1.7888515279   -2.1737059699   -1.1443239447
C       -0.5634874992    2.4500745449    3.2128014735
C       -1.7052507971    1.5736220752    3.2185259955
C       -1.0362208875    0.5605968386    1.2114325391
C       -1.6798716295   -1.5665071510   -2.4055402364
C       -2.2308033673   -3.6202273645   -3.5113621324
C       -1.5754060152   -1.5116264776    0.1740880807
C       -0.9719785018    1.8689511646    5.2759449408
O       -1.6711825158   -2.0909630980    1.2367369857
O       -0.6065138491    2.9799660867    4.5321575227
O       -2.1509642216    1.3900814896    4.5055171872
O       -1.2573010459   -0.1921428360    0.0528372212
F       -1.3571710204   -0.2665610833   -2.5324906128
Cl      -2.5039720915   -4.5145974958   -4.9877306611
H       -2.2133244755   -4.0137437265   -0.1436997464
H        1.5321433914    2.2127736894    2.7097026257
H        1.0513316501    0.7516368264    0.7465793792
H       -2.6119383656   -5.3202039980   -2.2342919334
H       -2.9309944427    0.1189492024    2.1895294511
H       -1.8003834811   -1.7575634510   -4.5394247983
H       -0.2163356061    1.0724171064    5.2805919948
H       -1.3047208139    2.1667281961    6.2697654468
28   
torsion grid (90,)
C       -2.1437007829   -3.5544689452   -1.3648890274
C        0.4637937260    1.9780093445    2.4644073517
C        0.1075641088    1.2387890819    1.3244768170
C       -2.4293323724   -4.0998685722   -2.6106190276
C       -1.4814199666   -0.0600329280    2.6400280881
C       -1.9466997978   -1.9465776574   -3.6337557976
C       -1.7566088891   -2.2106936207   -1.2071428598
C        0.1661427365    1.4592850367    3.7351062809
C       -1.0668140684    0.7200309243    3.7080533000
C       -0.7947963215    0.1776574768    1.4406589585
C       -1.6670863405   -1.4302380089   -2.3710671131
C       -2.3271793117   -3.2829892637   -3.7417706759
C       -1.4772502883   -1.7589564231    0.1864501738
C       -1.2799532406    2.4882016632    5.0067325022
O       -1.5570411333   -2.4905944593    1.1516880395
O        0.0616952325    2.1423540644    4.9790768235
O       -1.9163310055    1.1832191338    4.6861868994
O       -1.1246805412   -0.4442923214    0.2384054245
F       -1.3028649290   -0.1345868572   -2.3235085242
Cl      -2.6804511150   -3.9426396037   -5.3210438716
H       -2.2132603252   -4.1636688959   -0.4697289139
H        1.1445079743    2.8208297766    2.3589727025
H        0.4931168023    1.5027110810    0.3460037116
H       -2.7262791559   -5.1382803984   -2.7100043625
H       -2.3934161101   -0.6412950779    2.6810872423
H       -1.8634207970   -1.3045121322   -4.5037359940
H       -1.5787202676    2.7820542322    6.0125773058
H       -1.5645294969    3.2114732723    4.2308518856
28   
torsion grid (105,)
C       -2.0436899976   -3.5941506209   -1.3506291485
C        0.5795133526    1.8588998136    2.4908550497
C        0.2300808031    1.1302231105    1.3384710128
C       -2.3720285107   -4.1652119094   -2.5742033786
C       -1.6179137409    0.0688175874    2.5341724643
C       -2.1260636771   -1.9858718693   -3.6271485620
C       -1.7500965096   -2.2242126685   -1.2194866045
C        0.0511049187    1.4531328525    3.7160567101
C       -1.2114471794    0.7985503546    3.6369300097
C       -0.8115551222    0.2055867148    1.3935180905
C       -1.8001741873   -1.4445959818   -2.3860915025
C       -2.4104893431   -3.3477629501   -3.7088896716
C       -1.4121395831   -1.7446689464    0.1516385642
C       -1.3630025336    2.5237811315    4.9897506974
O       -1.3767687988   -2.4724200976    1.1221770543
O       -0.0123622875    2.1670049457    4.9338256069
O       -2.0422292272    1.2694723751    4.6314686477
O       -1.1496060794   -0.4077689660    0.1842325751
F       -1.5328400278   -0.1252718367   -2.3616553495
Cl      -2.8213629455   -4.0395970921   -5.2603882639
H       -2.0053989891   -4.2024371235   -0.4529373593
H        1.3677347634    2.6061529245    2.4443427659
H        0.7319429644    1.3078797063    0.3935543844
H       -2.5954360851   -5.2235615470   -2.6538257618
H       -2.5726542096   -0.4423244885    2.5056271699
H       -2.1521877728   -1.3432876171   -4.5003522811
H       -1.6393546273    2.7950660958    6.0081763878
H       -1.6263089926    3.2895385446    4.2462753604
28   
torsion grid (120,)
C       -2.0677017296   -3.5933800414   -1.3542426499
C        0.6060449934    1.8650083085    2.4360889266
C        0.2475898396    1.1201593493    1.2963185184
C       -2.3834682108   -4.1796138775   -2.5739995206
C       -1.6383818289    0.1173667827    2.4899561104
C       -2.0981453774   -2.0185324882   -3.6545548774
C       -1.7613186408   -2.2249096877   -1.2383023030
C        0.0031560882    1.5403934357    3.6451375813
C       -1.2304964382    0.8520695772    3.5867854883
C       -0.8228785778    0.2308666095    1.3516712152
C       -1.7852584817   -1.4622156865   -2.4167577784
C       -2.3957997807   -3.3784353830   -3.7207609624
C       -1.4380676481   -1.7285960460    0.1306680352
C       -1.3774036268    2.4705469991    5.0699430198
O       -1.4264072764   -2.4421971810    1.1128011039
O       -0.0032479457    2.2359434755    4.8615577619
O       -2.0149873824    1.2246988345    4.6604153539
O       -1.1597633404   -0.3959339649    0.1471520109
F       -1.5040826374   -0.1455922240   -2.4074985320
Cl      -2.7902536343   -4.0887553275   -5.2682941759
H       -2.0494620543   -4.1885406192   -0.4471923549
H        1.4181229636    2.5852528985    2.3914406832
H        0.7709215863    1.2583196732    0.3562671325
H       -2.6167926586   -5.2366773723   -2.6414824031
H       -2.5774899045   -0.4218337677    2.4742864738
H       -2.1041670015   -1.3887006581   -4.5373681850
H       -1.5692695801    2.6384311795    6.1290918049
H       -1.7468817028    3.2850073706    4.4295590551
28   
torsion grid (135,)
C       -2.0596812383   -3.5717263163   -1.3080430847
C        0.6456480144    1.8617379409    2.4573354244
C        0.2794637897    1.1125600150    1.3218085127
C       -2.3732993131   -4.1752807709   -2.5199173581
C       -1.6843120174    0.2074752223    2.4790370399
C       -2.1042903551   -2.0261464980   -3.6280098336
C       -1.7626946488   -2.1998364638   -1.2100478224
C       -0.0574574396    1.6304041988    3.6279349558
C       -1.2815915597    0.9411956471    3.5777253589
C       -0.8391892440    0.2847211194    1.3584158756
C       -1.7932616131   -1.4520282187   -2.3978246183
C       -2.3929232791   -3.3887245298   -3.6766070556
C       -1.4404792871   -1.6839904398    0.1520505474
C       -1.3830780029    2.4549442787    5.1771069149
O       -1.4199018877   -2.3880599992    1.1411003670
O       -0.0108413254    2.3105703722    4.8429796039
O       -2.0230148272    1.2443538851    4.7027222117
O       -1.1767494311   -0.3486765953    0.1551820490
F       -1.5203209545   -0.1337569828   -2.4055608434
Cl      -2.7851321560   -4.1212399661   -5.2144766145
H       -2.0357848372   -4.1552246311   -0.3935542883
H        1.5000546674    2.5311290568    2.4344976250
H        0.8411502936    1.1971595469    0.3975551601
H       -2.5994509702   -5.2346823121   -2.5738120905
H       -2.6205885379   -0.3366811628    2.4584196997
H       -2.1158406694   -1.4075933626   -4.5187024364
H       -1.4938303580    2.5196630186    6.2589553352
H       -1.8195300514    3.3177102204    4.6520279903
28   
torsion grid (150,)
C       -2.0664596424   -3.5621018852   -1.2897822007
C        0.6611557555    1.8706048017    2.4397931234
C        0.2938793665    1.1104951143    1.3113040065
C       -2.3716081416   -4.1809386195   -2.4961357508
C       -1.7163930548    0.2756922901    2.4457106468
C       -2.0847436528   -2.0476622555   -3.6312396647
C       -1.7653018894   -2.1901214473   -1.2079373647
C       -0.1185321983    1.7339196985    3.5731479749
C       -1.3237361735    1.0219503701    3.5392245814
C       -0.8545285011    0.3248671708    1.3354515574
C       -1.7825413951   -1.4584989753   -2.4059469694
C       -2.3779666144   -3.4097226073   -3.6632747928
C       -1.4529253762   -1.6562714409    0.1497415881
C       -1.3777375099    2.4178742095    5.2564413718
O       -1.4424340022   -2.3457871189    1.1494884464
O       -0.0271878418    2.3887500503    4.7916742447
O       -2.0213533277    1.2489159900    4.7091229378
O       -1.1871659765   -0.3222181026    0.1364676948
F       -1.5042389457   -0.1416024610   -2.4287827575
Cl      -2.7593173187   -4.1618320001   -5.1944792761
H       -2.0527775441   -4.1331042858   -0.3672411384
H        1.5462864553    2.4983698020    2.4324399698
H        0.8854067319    1.1477307242    0.4025978293
H       -2.6012352942   -5.2401507856   -2.5378479833
H       -2.6411791602   -0.2877518097    2.4322296225
H       -2.0860525540   -1.4412336390   -4.5303274794
H       -1.3903414099    2.3604563722    6.3445844634
H       -1.8843675705    3.3181670103    4.8780262433
28   
torsion grid (165,)
C       -2.0542655693   -3.5184250336   -1.2506767781
C        0.6754460979    1.8970223069    2.4775232036
C        0.3155605884    1.1339643916    1.3484533478
C       -2.3555309341   -4.1493687256   -2.4517456828
C       -1.7475699550    0.3657091160    2.4384919809
C       -2.0585283476   -2.0291533760   -3.6076906033
C       -1.7505907986   -2.1463242665   -1.1817445995
C       -0.1781060971    1.8498018599    3.5625532157
C       -1.3696536231    1.1207182618    3.5312824555
C       -0.8607769949    0.3910933421    1.3470320628
C       -1.7603871450   -1.4273500563   -2.3874884763
C       -2.3550965619   -3.3907034571   -3.6270649871
C       -1.4450244263   -1.5985599606    0.1720956777
C       -1.3647231592    2.3737127857    5.3722584200
O       -1.4375850965   -2.2792079093    1.1780855659
O       -0.0579573177    2.4761697358    4.7886908416
O       -2.0374240875    1.2786913726    4.7275585848
O       -1.1817736022   -0.2644871011    0.1484291018
F       -1.4782896946   -0.1116380579   -2.4232772499
Cl      -2.7319342042   -4.1580064578   -5.1519633909
H       -2.0461287783   -4.0796197165   -0.3220628338
H        1.5886724195    2.4824467706    2.4977279644
H        0.9418231861    1.1277385860    0.4625347151
H       -2.5875429596   -5.2084118769   -2.4831888049
H       -2.6637003693   -0.2117053984    2.4233401460
H       -2.0542888952   -1.4322944499   -4.5131411852
H       -1.2701564511    2.1623492378    6.4381261878
H       -1.9232271691    3.3021314153    5.1848749099
28   
torsion grid (180,)
C       -2.0364542840   -3.4827290154   -1.2161333386
C        0.6832993517    1.9147866062    2.4964833004
C        0.3297765944    1.1517320964    1.3650650024
C       -2.3241383778   -4.1356807436   -2.4087513052
C       -1.8037987653    0.5001871650    2.3896991657
C       -2.0334116605   -2.0331678792   -3.5979955151
C       -1.7428517926   -2.1075742723   -1.1682295546
C       -0.2172193440    1.9400575471    3.5437068878
C       -1.4296768974    1.2519706670    3.4862799891
C       -0.8805837894    0.4683421250    1.3294489571
C       -1.7487827638   -1.4088272459   -2.3858334694
C       -2.3200329893   -3.3969398795   -3.5966942622
C       -1.4497964355   -1.5350427199    0.1782756138
C       -1.3159461886    2.2995937836    5.4743080388
O       -1.4450724600   -2.1985396577    1.1956984779
O       -0.1133299324    2.6039385293    4.7473020272
O       -2.1380459359    1.4551116339    4.6483418715
O       -1.1931826651   -0.2001735621    0.1348359917
F       -1.4760180320   -0.0919614860   -2.4415585939
Cl      -2.6795184526   -4.1926999050   -5.1112648180
H       -2.0313346241   -4.0281738817   -0.2781493740
H        1.6217635338    2.4571088600    2.5429792504
H        0.9922336298    1.0948746860    0.5077687273
H       -2.5483914273   -5.1967488554   -2.4242163153
H       -2.7413064479   -0.0411496350    2.3522492778
H       -2.0266156899   -1.4515211986   -4.5132782373
H       -1.0575868932    1.7634057432    6.3940816600
H       -1.8546668343    3.2284683224    5.6894593976
