38
0 1 C15Cl2H16N4O
C                    -5.215396716607     2.817876859648    -7.549682421067
C                    -4.229054354669     2.466205561333    -6.626080404623
C                    -4.953237696141     2.805987999301    -8.921839923187
C                    -2.679415525767     2.066116209858    -8.459668316289
C                    -0.674198325798     0.838171547010    -4.564941445105
C                    -2.967525661234     2.078239241704    -7.089647764040
C                    -3.678669573516     2.434827337155    -9.356852255888
C                     0.093210316367     1.646634910784    -5.461166637308
C                    -1.965621700393     0.909612110900    -5.079798130893
C                    -0.142984714219     0.117096809437    -3.418885161698
C                     0.987346904329    -1.565059460287    -1.401719981703
C                    -1.303273472712    -2.277275194551    -1.095054474890
C                     1.249924519844    -2.835044405550    -2.217826659397
C                    -0.987499386742    -3.537661140384    -1.903018390630
C                     1.560314841541     1.943819318850    -5.400142223005
N                    -0.659430937220     2.163409885128    -6.427838704435
N                    -0.907256901888    -0.556249927351    -2.626428667698
N                    -1.931662610166     1.718559804116    -6.187143857773
N                    -0.427348746001    -1.169103326793    -1.501378438800
O                     0.394297829702    -3.892873322169    -1.782452258358
Cl                   -3.326317837976     2.422157257783   -11.077053234330
Cl                   -3.386354389555     0.084345291020    -4.571214952065
H                    -6.196822159699     3.120539204363    -7.196001694005
H                    -4.433221389671     2.508927773251    -5.562900564468
H                    -5.716425890753     3.086057567515    -9.640517154615
H                    -1.691430999942     1.781409117781    -8.801289957279
H                     0.938031789961     0.201906755090    -3.282123216928
H                     1.186130122140    -1.768141570880    -0.344739367903
H                     1.643048750912    -0.744086897597    -1.699069207302
H                    -2.337920855558    -1.963704867075    -1.246989999373
H                    -1.138353844517    -2.468140735933    -0.029127792254
H                     1.092022622855    -2.641061851643    -3.289154262232
H                     2.274680686313    -3.188926473957    -2.074332411026
H                    -1.556270477706    -4.396480944024    -1.536207993789
H                    -1.240859968231    -3.369552536856    -2.960739286305
H                     2.156551722019     1.027109798532    -5.470661531705
H                     1.836024264712     2.598974398372    -6.229231035872
H                     1.827770137412     2.441570996899    -4.461553987331
