
  -OEChem-05262117483D

 25 26  0     0  0  0  0  0  0999 V2000
    5.8927   -1.6134   -0.4188 C   0  0  0  0  0  0  0  0  0  0  0  0
    6.3870   -2.9036   -0.6381 C   0  0  0  0  0  0  0  0  0  0  0  0
    5.0926   -1.3562    0.6961 C   0  0  0  0  0  0  0  0  0  0  0  0
    6.0796   -3.9313    0.2567 C   0  0  0  0  0  0  0  0  0  0  0  0
    6.3639   -3.6304    5.7807 C   0  0  0  0  0  0  0  0  0  0  0  0
    6.9134   -2.3466    4.0558 C   0  0  0  0  0  0  0  0  0  0  0  0
    7.4375   -3.3077    4.9012 C   0  0  0  0  0  0  0  0  0  0  0  0
    4.7874   -2.3762    1.6053 C   0  0  0  0  0  0  0  0  0  0  0  0
    5.2874   -3.6686    1.3780 C   0  0  0  0  0  0  0  0  0  0  0  0
    4.6025   -1.3966    3.7622 C   0  0  0  0  0  0  0  0  0  0  0  0
    5.2626   -2.9385    5.4944 N   0  0  0  0  0  0  0  0  0  0  0  0
    5.6092   -2.1436    4.4558 N   0  0  0  0  0  0  0  0  0  0  0  0
    8.7574   -3.8037    4.9594 N   0  0  0  0  0  0  0  0  0  0  0  0
    3.9792   -2.1244    2.6916 O   0  0  0  0  0  0  0  0  0  0  0  0
    4.9265   -4.9529    2.5021 Cl  0  0  0  0  0  0  0  0  0  0  0  0
    6.1179   -0.8137   -1.1188 H   0  0  0  0  0  0  0  0  0  0  0  0
    7.0046   -3.1153   -1.5064 H   0  0  0  0  0  0  0  0  0  0  0  0
    4.6804   -0.3657    0.8700 H   0  0  0  0  0  0  0  0  0  0  0  0
    6.4531   -4.9378    0.0955 H   0  0  0  0  0  0  0  0  0  0  0  0
    6.3639   -4.3307    6.6080 H   0  0  0  0  0  0  0  0  0  0  0  0
    7.3448   -1.8079    3.2233 H   0  0  0  0  0  0  0  0  0  0  0  0
    3.8022   -1.1716    4.4644 H   0  0  0  0  0  0  0  0  0  0  0  0
    5.0523   -0.4777    3.3722 H   0  0  0  0  0  0  0  0  0  0  0  0
    9.2305   -3.7385    4.0637 H   0  0  0  0  0  0  0  0  0  0  0  0
    8.7817   -4.7696    5.2712 H   0  0  0  0  0  0  0  0  0  0  0  0
  1  2  1  0  0  0  0
  1  3  2  0  0  0  0
  1 16  1  0  0  0  0
  2  4  2  0  0  0  0
  2 17  1  0  0  0  0
  3  8  1  0  0  0  0
  3 18  1  0  0  0  0
  4  9  1  0  0  0  0
  4 19  1  0  0  0  0
  5  7  1  0  0  0  0
  5 11  2  0  0  0  0
  5 20  1  0  0  0  0
  6  7  2  0  0  0  0
  6 12  1  0  0  0  0
  6 21  1  0  0  0  0
  7 13  1  0  0  0  0
  8  9  2  0  0  0  0
  8 14  1  0  0  0  0
  9 15  1  0  0  0  0
 10 12  1  0  0  0  0
 10 14  1  0  0  0  0
 10 22  1  0  0  0  0
 10 23  1  0  0  0  0
 11 12  1  0  0  0  0
 13 24  1  0  0  0  0
 13 25  1  0  0  0  0
M  END
$$$$
