
  -OEChem-05262117483D

 25 26  0     0  0  0  0  0  0999 V2000
    6.1383   -4.0867    0.3135 C   0  0  0  0  0  0  0  0  0  0  0  0
    6.3337   -3.1949   -0.7458 C   0  0  0  0  0  0  0  0  0  0  0  0
    5.3479   -3.7144    1.4018 C   0  0  0  0  0  0  0  0  0  0  0  0
    5.7402   -1.9304   -0.7167 C   0  0  0  0  0  0  0  0  0  0  0  0
    7.4253   -3.1421    4.6866 C   0  0  0  0  0  0  0  0  0  0  0  0
    5.2478   -3.3310    5.0787 C   0  0  0  0  0  0  0  0  0  0  0  0
    6.4603   -3.9314    5.3761 C   0  0  0  0  0  0  0  0  0  0  0  0
    4.7478   -2.4531    1.4399 C   0  0  0  0  0  0  0  0  0  0  0  0
    4.9516   -1.5632    0.3755 C   0  0  0  0  0  0  0  0  0  0  0  0
    4.5925   -1.4219    3.5713 C   0  0  0  0  0  0  0  0  0  0  0  0
    6.8558   -2.1428    4.0124 N   0  0  0  0  0  0  0  0  0  0  0  0
    5.5333   -2.2508    4.2750 N   0  0  0  0  0  0  0  0  0  0  0  0
    6.7184   -5.0109    6.2464 N   0  0  0  0  0  0  0  0  0  0  0  0
    3.9327   -2.1122    2.5025 O   0  0  0  0  0  0  0  0  0  0  0  0
    4.2115    0.0258    0.4153 Cl  0  0  0  0  0  0  0  0  0  0  0  0
    6.6028   -5.0686    0.2943 H   0  0  0  0  0  0  0  0  0  0  0  0
    6.9470   -3.4778   -1.5968 H   0  0  0  0  0  0  0  0  0  0  0  0
    5.1881   -4.3839    2.2417 H   0  0  0  0  0  0  0  0  0  0  0  0
    5.8828   -1.2289   -1.5328 H   0  0  0  0  0  0  0  0  0  0  0  0
    8.5022   -3.2637    4.6680 H   0  0  0  0  0  0  0  0  0  0  0  0
    4.2342   -3.5711    5.3701 H   0  0  0  0  0  0  0  0  0  0  0  0
    3.7867   -1.1171    4.2405 H   0  0  0  0  0  0  0  0  0  0  0  0
    5.1426   -0.5537    3.2036 H   0  0  0  0  0  0  0  0  0  0  0  0
    7.5158   -5.5620    5.9453 H   0  0  0  0  0  0  0  0  0  0  0  0
    5.9159   -5.6219    6.3580 H   0  0  0  0  0  0  0  0  0  0  0  0
  1  2  1  0  0  0  0
  1  3  2  0  0  0  0
  1 16  1  0  0  0  0
  2  4  2  0  0  0  0
  2 17  1  0  0  0  0
  3  8  1  0  0  0  0
  3 18  1  0  0  0  0
  4  9  1  0  0  0  0
  4 19  1  0  0  0  0
  5  7  1  0  0  0  0
  5 11  2  0  0  0  0
  5 20  1  0  0  0  0
  6  7  2  0  0  0  0
  6 12  1  0  0  0  0
  6 21  1  0  0  0  0
  7 13  1  0  0  0  0
  8  9  2  0  0  0  0
  8 14  1  0  0  0  0
  9 15  1  0  0  0  0
 10 12  1  0  0  0  0
 10 14  1  0  0  0  0
 10 22  1  0  0  0  0
 10 23  1  0  0  0  0
 11 12  1  0  0  0  0
 13 24  1  0  0  0  0
 13 25  1  0  0  0  0
M  END
$$$$
