21
0 1 C9F2H6O4
C                     0.620934369374    -1.121357725573    -1.588751660653
C                     0.119419643386    -1.050313102656    -0.291107437522
C                     0.848696209675    -2.361687082523    -2.217219470882
C                    -0.185139066072    -2.209417758348     0.457514016636
C                     0.547101554068    -3.484507538575    -1.474775769068
C                     0.045770505490    -3.425011530934    -0.178457759279
C                    -0.718042456904    -2.047901348172     1.839074082313
C                     0.245179729358    -5.566963777596    -0.755798324825
C                    -1.484875772313    -3.156367443751     3.775656971600
O                    -0.906511365283    -0.967047163809     2.369069332158
O                     0.673893810772    -4.814841212927    -1.845484778465
O                    -0.146876981940    -4.715593169799     0.277079119004
O                    -0.965780043686    -3.232263325205     2.431063998169
F                     1.234450139930    -6.381679931042    -0.332852412594
F                    -0.783394545938    -6.363357328876    -1.113999945093
H                     0.841702905290    -0.206098277816    -2.129066416450
H                    -0.053168831529    -0.091548117830     0.186249925457
H                     1.238791954275    -2.436791145534    -3.226950782893
H                    -1.618047731260    -4.190646741512     4.090702115963
H                    -2.437748564694    -2.622391251960     3.783908384220
H                    -0.775811023751    -2.640327697640     4.426810513599
