
  -OEChem-05262117483D

 21 22  0     0  0  0  0  0  0999 V2000
    0.6209   -1.1214   -1.5888 C   0  0  0  0  0  0  0  0  0  0  0  0
    0.1194   -1.0503   -0.2911 C   0  0  0  0  0  0  0  0  0  0  0  0
    0.8487   -2.3617   -2.2172 C   0  0  0  0  0  0  0  0  0  0  0  0
   -0.1851   -2.2094    0.4575 C   0  0  0  0  0  0  0  0  0  0  0  0
    0.5471   -3.4845   -1.4748 C   0  0  0  0  0  0  0  0  0  0  0  0
    0.0458   -3.4250   -0.1785 C   0  0  0  0  0  0  0  0  0  0  0  0
   -0.7180   -2.0479    1.8391 C   0  0  0  0  0  0  0  0  0  0  0  0
    0.2452   -5.5670   -0.7558 C   0  0  0  0  0  0  0  0  0  0  0  0
   -1.4849   -3.1564    3.7757 C   0  0  0  0  0  0  0  0  0  0  0  0
   -0.9065   -0.9670    2.3691 O   0  0  0  0  0  0  0  0  0  0  0  0
    0.6739   -4.8148   -1.8455 O   0  0  0  0  0  0  0  0  0  0  0  0
   -0.1469   -4.7156    0.2771 O   0  0  0  0  0  0  0  0  0  0  0  0
   -0.9658   -3.2323    2.4311 O   0  0  0  0  0  0  0  0  0  0  0  0
    1.2345   -6.3817   -0.3329 F   0  0  0  0  0  0  0  0  0  0  0  0
   -0.7834   -6.3634   -1.1140 F   0  0  0  0  0  0  0  0  0  0  0  0
    0.8417   -0.2061   -2.1291 H   0  0  0  0  0  0  0  0  0  0  0  0
   -0.0532   -0.0915    0.1862 H   0  0  0  0  0  0  0  0  0  0  0  0
    1.2388   -2.4368   -3.2270 H   0  0  0  0  0  0  0  0  0  0  0  0
   -1.6180   -4.1906    4.0907 H   0  0  0  0  0  0  0  0  0  0  0  0
   -2.4377   -2.6224    3.7839 H   0  0  0  0  0  0  0  0  0  0  0  0
   -0.7758   -2.6403    4.4268 H   0  0  0  0  0  0  0  0  0  0  0  0
  1  2  1  0  0  0  0
  1  3  2  0  0  0  0
  1 16  1  0  0  0  0
  2  4  2  0  0  0  0
  2 17  1  0  0  0  0
  3  5  1  0  0  0  0
  3 18  1  0  0  0  0
  4  6  1  0  0  0  0
  4  7  1  0  0  0  0
  5  6  2  0  0  0  0
  5 11  1  0  0  0  0
  6 12  1  0  0  0  0
  7 10  2  0  0  0  0
  7 13  1  0  0  0  0
  8 11  1  0  0  0  0
  8 12  1  0  0  0  0
  8 14  1  0  0  0  0
  8 15  1  0  0  0  0
  9 13  1  0  0  0  0
  9 19  1  0  0  0  0
  9 20  1  0  0  0  0
  9 21  1  0  0  0  0
M  END
$$$$
