
  -OEChem-05262117493D

 46 48  0     1  0  0  0  0  0999 V2000
    3.2406    1.7497   -2.9129 C   0  0  0  0  0  0  0  0  0  0  0  0
    2.8486    0.8204   -1.9458 C   0  0  0  0  0  0  0  0  0  0  0  0
    1.5542   -0.4820   -3.5724 C   0  0  0  0  0  0  0  0  0  0  0  0
    2.7840    1.5643   -4.2178 C   0  0  0  0  0  0  0  0  0  0  0  0
    2.0194   -0.2830   -2.2574 C   0  0  0  0  0  0  0  0  0  0  0  0
    1.9611    0.4626   -4.4957 C   0  0  0  0  0  0  0  0  0  0  0  0
    2.3151    1.6408   -6.2952 C   0  0  0  0  0  0  0  0  0  0  0  0
    0.6293   -2.0926   -1.2556 C   0  0  0  0  0  0  0  0  0  0  0  0
    1.8727   -5.7218   -0.1920 C   0  0  0  0  0  0  0  0  0  0  0  0
    0.8689    0.8918  -10.0426 C   0  0  0  0  0  0  0  0  0  0  0  0
    2.2929   -1.1446    0.0946 C   0  0  0  0  0  0  0  0  0  0  0  0
    1.7681   -2.4484    0.7144 C   0  0  2  0  0  0  0  0  0  0  0  0
    1.0253   -6.9250    0.1770 C   0  0  0  0  0  0  0  0  0  0  0  0
   -1.1456   -1.2342  -12.2162 C   0  0  0  0  0  0  0  0  0  0  0  0
    1.1075    0.7213   -8.5545 C   0  0  0  0  0  0  0  0  0  0  0  0
    2.7922   -3.5881    0.6125 C   0  0  0  0  0  0  0  0  0  0  0  0
   -0.2464   -0.0501  -11.9175 C   0  0  0  0  0  0  0  0  0  0  0  0
    2.9855    2.2932   -5.3964 N   0  0  0  0  0  0  0  0  0  0  0  0
    1.6889   -1.1975   -1.2294 N   0  0  0  0  0  0  0  0  0  0  0  0
    2.2128   -4.8929    0.8586 N   0  0  0  0  0  0  0  0  0  0  0  0
   -0.1760   -2.2905   -2.1360 O   0  0  0  0  0  0  0  0  0  0  0  0
    2.2379   -5.5061   -1.3431 O   0  0  0  0  0  0  0  0  0  0  0  0
    1.3323    1.7792  -10.7305 O   0  0  0  0  0  0  0  0  0  0  0  0
    1.6530    0.5077   -5.8448 O   0  0  0  0  0  0  0  0  0  0  0  0
    0.5950   -2.7633   -0.0577 O   0  0  0  0  0  0  0  0  0  0  0  0
    0.0652   -0.0892  -10.4943 O   0  0  0  0  0  0  0  0  0  0  0  0
    2.1997    2.0780   -7.9848 S   0  0  0  0  0  0  0  0  0  0  0  0
    3.8775    2.5900   -2.6551 H   0  0  0  0  0  0  0  0  0  0  0  0
    3.1925    0.9639   -0.9279 H   0  0  0  0  0  0  0  0  0  0  0  0
    0.9139   -1.3143   -3.8295 H   0  0  0  0  0  0  0  0  0  0  0  0
    1.9633   -0.2575    0.6500 H   0  0  0  0  0  0  0  0  0  0  0  0
    3.3855   -1.1341    0.0332 H   0  0  0  0  0  0  0  0  0  0  0  0
    1.4391   -2.3111    1.7478 H   0  0  0  0  0  0  0  0  0  0  0  0
    0.0079   -6.7522   -0.1870 H   0  0  0  0  0  0  0  0  0  0  0  0
    1.4182   -7.8047   -0.3365 H   0  0  0  0  0  0  0  0  0  0  0  0
    0.9864   -7.1190    1.2529 H   0  0  0  0  0  0  0  0  0  0  0  0
   -0.6441   -2.1769  -11.9787 H   0  0  0  0  0  0  0  0  0  0  0  0
   -2.0725   -1.1783  -11.6381 H   0  0  0  0  0  0  0  0  0  0  0  0
   -1.4023   -1.2386  -13.2803 H   0  0  0  0  0  0  0  0  0  0  0  0
    1.5668   -0.2520   -8.3697 H   0  0  0  0  0  0  0  0  0  0  0  0
    0.1514    0.7430   -8.0274 H   0  0  0  0  0  0  0  0  0  0  0  0
    3.6088   -3.3900    1.3179 H   0  0  0  0  0  0  0  0  0  0  0  0
    3.2100   -3.6192   -0.3963 H   0  0  0  0  0  0  0  0  0  0  0  0
   -0.7310    0.9047  -12.1376 H   0  0  0  0  0  0  0  0  0  0  0  0
    0.6920   -0.0906  -12.4768 H   0  0  0  0  0  0  0  0  0  0  0  0
    1.7656   -5.0574    1.7511 H   0  0  0  0  0  0  0  0  0  0  0  0
  1  2  1  0  0  0  0
  1  4  2  0  0  0  0
  1 28  1  0  0  0  0
  2  5  2  0  0  0  0
  2 29  1  0  0  0  0
  3  5  1  0  0  0  0
  3  6  2  0  0  0  0
  3 30  1  0  0  0  0
  4  6  1  0  0  0  0
  4 18  1  0  0  0  0
  5 19  1  0  0  0  0
  6 24  1  0  0  0  0
  7 18  2  0  0  0  0
  7 24  1  0  0  0  0
  7 27  1  0  0  0  0
  8 19  1  0  0  0  0
  8 21  2  0  0  0  0
  8 25  1  0  0  0  0
  9 13  1  0  0  0  0
  9 20  1  0  0  0  0
  9 22  2  0  0  0  0
 10 15  1  0  0  0  0
 10 23  2  0  0  0  0
 10 26  1  0  0  0  0
 11 12  1  0  0  0  0
 11 19  1  0  0  0  0
 11 31  1  0  0  0  0
 11 32  1  0  0  0  0
 12 16  1  0  0  0  0
 12 25  1  0  0  0  0
 12 33  1  0  0  0  0
 13 34  1  0  0  0  0
 13 35  1  0  0  0  0
 13 36  1  0  0  0  0
 14 17  1  0  0  0  0
 14 37  1  0  0  0  0
 14 38  1  0  0  0  0
 14 39  1  0  0  0  0
 15 27  1  0  0  0  0
 15 40  1  0  0  0  0
 15 41  1  0  0  0  0
 16 20  1  0  0  0  0
 16 42  1  0  0  0  0
 16 43  1  0  0  0  0
 17 26  1  0  0  0  0
 17 44  1  0  0  0  0
 17 45  1  0  0  0  0
 20 46  1  0  0  0  0
M  END
$$$$
