51
0 1 C17H26N4O3S
C                     0.387754452949    -5.887940527522    11.662737919052
C                     2.205572142889    -6.516403564573     9.620744972024
C                     4.400593915685    -6.313530166764    12.432551343549
C                     1.762855471553    -6.018725325737    11.980208219069
C                     2.681761484761    -6.335250864513    10.944285963655
C                    -0.066285695219    -6.064004918821    10.374532846790
C                     0.858667506439    -6.393887049147     9.331886786360
C                     2.328041921384    -5.853585453987    13.296695648906
C                     0.967094932636    -5.475857676198    16.734757425412
C                     2.607719850836    -3.800296346255    15.745450025353
C                    -1.820241602029    -4.823481856553     9.376361622617
C                    -3.359409474461    -5.019554051888     2.475479852334
C                     0.298547605603    -7.119186213685     5.780735590642
C                    -0.434272542960    -5.834046627963     5.375482871910
C                     1.169075925997    -6.935159372274     7.015281696859
C                    -1.349025774506    -6.055959372011     4.175211023284
C                     2.065061485592    -5.234651919523    15.697264736081
N                     4.025118009181    -6.484297795815    11.181032994864
N                     3.637701388255    -6.000353303711    13.505899837108
N                    -3.184935699898    -4.029438132552     4.891835555144
N                     1.536129347472    -5.566652272139    14.368658841197
O                    -1.173552500610    -3.601551800715     3.187314393794
O                    -1.414828526728    -5.987692982367    10.111668994030
O                     0.304853641085    -6.579223731157     8.101723003004
S                    -2.220328111823    -4.487155416738     3.763865876743
H                    -0.362909360653    -5.664428572901    12.415665002417
H                     2.940174750801    -6.766076405332     8.864834974931
H                     5.463381826030    -6.431288511215    12.642789628689
H                     0.106103121134    -4.817474472813    16.560398932104
H                     0.619373100807    -6.513005685953    16.705631056644
H                     1.341920633809    -5.264540409309    17.740518633026
H                     1.806734306101    -3.074141555085    15.561868560649
H                     3.385281858476    -3.664160169412    14.989930836214
H                     3.041670839264    -3.586572582499    16.728421306204
H                    -2.896138052107    -4.919944369054     9.219884942734
H                    -1.312821432999    -4.768703622498     8.408797928933
H                    -1.610612717365    -3.914284715838     9.954016355382
H                    -3.866394183564    -4.117416256874     2.130830264637
H                    -2.777224598474    -5.465587722400     1.667808989642
H                    -4.077346905565    -5.723548621301     2.896148635652
H                    -0.425425578431    -7.917815469887     5.979348000633
H                     0.942777588773    -7.462536856542     4.962208429927
H                     0.292660001124    -5.049393624533     5.138995031699
H                    -1.033599257420    -5.487924361255     6.222548755392
H                     1.699323672748    -7.864635938395     7.256345395912
H                     1.912070829377    -6.141569126684     6.860107290340
H                    -0.789888629834    -6.351147273837     3.282222231276
H                    -2.123192004359    -6.798083932341     4.393008509627
H                     2.892671708540    -5.924455564844    15.876134629155
H                    -2.664774790463    -3.551865357407     5.630714258883
H                     0.586084843237    -5.279033228999    14.179998111371
