
  -OEChem-05262117493D

 67 70  0     1  0  0  0  0  0999 V2000
    2.6254    0.4318    0.5053 C   0  0  0  0  0  0  0  0  0  0  0  0
    2.6838    2.8230   -0.0549 C   0  0  0  0  0  0  0  0  0  0  0  0
    0.6315    1.5161   -0.1947 C   0  0  0  0  0  0  0  0  0  0  0  0
    1.2689    0.3435    0.2141 C   0  0  0  0  0  0  0  0  0  0  0  0
   -0.7322    1.7021   -0.5436 C   0  0  0  0  0  0  0  0  0  0  0  0
    3.3311    1.6626    0.3843 C   0  0  0  0  0  0  0  0  0  0  0  0
    1.3151    2.7406   -0.3482 C   0  0  0  0  0  0  0  0  0  0  0  0
   -0.8791    3.0237   -0.9130 C   0  0  0  0  0  0  0  0  0  0  0  0
    0.3838   -5.4673   -1.7647 C   0  0  0  0  0  0  0  0  0  0  0  0
   -1.6752    0.5571   -0.3518 C   0  0  0  0  0  0  0  0  0  0  0  0
    1.2261   -2.1542   -0.2385 C   0  0  0  0  0  0  0  0  0  0  0  0
   -0.9998   -3.2665   -0.1212 C   0  0  0  0  0  0  0  0  0  0  0  0
    0.4219   -0.9232    0.2649 C   0  0  2  0  0  0  0  0  0  0  0  0
    0.3195   -3.2062   -0.8822 C   0  0  2  0  0  0  0  0  0  0  0  0
   -0.8803   -0.7495   -0.5676 C   0  0  1  0  0  0  0  0  0  0  0  0
    4.7992    1.7001    0.7446 C   0  0  0  0  0  0  0  0  0  0  0  0
   -5.0102   -2.7761    1.6532 C   0  0  0  0  0  0  0  0  0  0  0  0
   -0.4301   -8.6029   -2.1968 C   0  0  0  0  0  0  0  0  0  0  0  0
    3.5801   -6.5243   -1.8490 C   0  0  0  0  0  0  0  0  0  0  0  0
   -2.0765    4.0652   -3.1878 C   0  0  0  0  0  0  0  0  0  0  0  0
   -3.8092   -3.0698    0.7441 C   0  0  0  0  0  0  0  0  0  0  0  0
    0.5335   -7.6240   -2.8706 C   0  0  0  0  0  0  0  0  0  0  0  0
    2.2785   -6.9763   -1.1760 C   0  0  0  0  0  0  0  0  0  0  0  0
   -2.8928   -1.8488    0.6682 C   0  0  0  0  0  0  0  0  0  0  0  0
    0.3737    3.6492   -0.7993 N   0  0  0  0  0  0  0  0  0  0  0  0
    0.9310   -4.5280   -0.8671 N   0  0  0  0  0  0  0  0  0  0  0  0
    1.0758   -6.6252   -1.9362 N   0  0  0  0  0  0  0  0  0  0  0  0
   -1.7931   -1.9962   -0.3658 N   0  3  2  0  0  0  0  0  0  0  0  0
   -0.6962   -5.2213   -2.3239 O   0  0  0  0  0  0  0  0  0  0  0  0
   -2.3310    3.9015   -1.3722 S   0  0  0  0  0  0  0  0  0  0  0  0
    3.1819   -0.4447    0.8301 H   0  0  0  0  0  0  0  0  0  0  0  0
    3.2372    3.7525   -0.1595 H   0  0  0  0  0  0  0  0  0  0  0  0
   -2.0719    0.5963    0.6679 H   0  0  0  0  0  0  0  0  0  0  0  0
   -2.5265    0.6094   -1.0401 H   0  0  0  0  0  0  0  0  0  0  0  0
    1.9776   -1.8270   -0.9617 H   0  0  0  0  0  0  0  0  0  0  0  0
    1.7583   -2.5979    0.6092 H   0  0  0  0  0  0  0  0  0  0  0  0
   -1.6010   -4.1023   -0.4683 H   0  0  0  0  0  0  0  0  0  0  0  0
   -0.8284   -3.3496    0.9537 H   0  0  0  0  0  0  0  0  0  0  0  0
    0.1233   -1.0959    1.3080 H   0  0  0  0  0  0  0  0  0  0  0  0
    0.0959   -2.9284   -1.9200 H   0  0  0  0  0  0  0  0  0  0  0  0
   -0.6062   -0.7891   -1.6247 H   0  0  0  0  0  0  0  0  0  0  0  0
    5.3524    0.8983    0.2442 H   0  0  0  0  0  0  0  0  0  0  0  0
    5.2581    2.6506    0.4621 H   0  0  0  0  0  0  0  0  0  0  0  0
    4.9417    1.5697    1.8235 H   0  0  0  0  0  0  0  0  0  0  0  0
   -4.6886   -2.5244    2.6690 H   0  0  0  0  0  0  0  0  0  0  0  0
   -5.6094   -1.9438    1.2706 H   0  0  0  0  0  0  0  0  0  0  0  0
   -5.6586   -3.6532    1.7177 H   0  0  0  0  0  0  0  0  0  0  0  0
    0.0534   -9.1418   -1.3751 H   0  0  0  0  0  0  0  0  0  0  0  0
   -1.2975   -8.0682   -1.8005 H   0  0  0  0  0  0  0  0  0  0  0  0
   -0.7840   -9.3431   -2.9215 H   0  0  0  0  0  0  0  0  0  0  0  0
    3.6706   -6.9574   -2.8494 H   0  0  0  0  0  0  0  0  0  0  0  0
    3.6263   -5.4348   -1.9586 H   0  0  0  0  0  0  0  0  0  0  0  0
    4.4459   -6.8424   -1.2597 H   0  0  0  0  0  0  0  0  0  0  0  0
   -2.9511    4.5952   -3.5724 H   0  0  0  0  0  0  0  0  0  0  0  0
   -2.0101    3.0819   -3.6572 H   0  0  0  0  0  0  0  0  0  0  0  0
   -1.1810    4.6485   -3.4087 H   0  0  0  0  0  0  0  0  0  0  0  0
   -4.1632   -3.3273   -0.2626 H   0  0  0  0  0  0  0  0  0  0  0  0
   -3.2687   -3.9398    1.1253 H   0  0  0  0  0  0  0  0  0  0  0  0
    0.0277   -7.0904   -3.6759 H   0  0  0  0  0  0  0  0  0  0  0  0
    1.3844   -8.1556   -3.3078 H   0  0  0  0  0  0  0  0  0  0  0  0
    2.1977   -6.5740   -0.1616 H   0  0  0  0  0  0  0  0  0  0  0  0
    2.2842   -8.0639   -1.0632 H   0  0  0  0  0  0  0  0  0  0  0  0
   -3.4776   -0.9736    0.3908 H   0  0  0  0  0  0  0  0  0  0  0  0
   -2.4032   -1.6498    1.6242 H   0  0  0  0  0  0  0  0  0  0  0  0
    0.5112    4.6444   -0.9184 H   0  0  0  0  0  0  0  0  0  0  0  0
    1.9390   -4.5217   -0.7706 H   0  0  0  0  0  0  0  0  0  0  0  0
   -2.2666   -2.1329   -1.2641 H   0  0  0  0  0  0  0  0  0  0  0  0
  1  4  1  0  0  0  0
  1  6  2  0  0  0  0
  1 31  1  0  0  0  0
  2  6  1  0  0  0  0
  2  7  2  0  0  0  0
  2 32  1  0  0  0  0
  3  4  2  0  0  0  0
  3  5  1  0  0  0  0
  3  7  1  0  0  0  0
  4 13  1  0  0  0  0
  5  8  2  0  0  0  0
  5 10  1  0  0  0  0
  6 16  1  0  0  0  0
  7 25  1  0  0  0  0
  8 25  1  0  0  0  0
  8 30  1  0  0  0  0
  9 26  1  0  0  0  0
  9 27  1  0  0  0  0
  9 29  2  0  0  0  0
 10 15  1  0  0  0  0
 10 33  1  0  0  0  0
 10 34  1  0  0  0  0
 11 13  1  0  0  0  0
 11 14  1  0  0  0  0
 11 35  1  0  0  0  0
 11 36  1  0  0  0  0
 12 14  1  0  0  0  0
 12 28  1  0  0  0  0
 12 37  1  0  0  0  0
 12 38  1  0  0  0  0
 13 15  1  0  0  0  0
 13 39  1  0  0  0  0
 14 26  1  0  0  0  0
 14 40  1  0  0  0  0
 15 28  1  0  0  0  0
 15 41  1  0  0  0  0
 16 42  1  0  0  0  0
 16 43  1  0  0  0  0
 16 44  1  0  0  0  0
 17 21  1  0  0  0  0
 17 45  1  0  0  0  0
 17 46  1  0  0  0  0
 17 47  1  0  0  0  0
 18 22  1  0  0  0  0
 18 48  1  0  0  0  0
 18 49  1  0  0  0  0
 18 50  1  0  0  0  0
 19 23  1  0  0  0  0
 19 51  1  0  0  0  0
 19 52  1  0  0  0  0
 19 53  1  0  0  0  0
 20 30  1  0  0  0  0
 20 54  1  0  0  0  0
 20 55  1  0  0  0  0
 20 56  1  0  0  0  0
 21 24  1  0  0  0  0
 21 57  1  0  0  0  0
 21 58  1  0  0  0  0
 22 27  1  0  0  0  0
 22 59  1  0  0  0  0
 22 60  1  0  0  0  0
 23 27  1  0  0  0  0
 23 61  1  0  0  0  0
 23 62  1  0  0  0  0
 24 28  1  0  0  0  0
 24 63  1  0  0  0  0
 24 64  1  0  0  0  0
 25 65  1  0  0  0  0
 26 66  1  0  0  0  0
 28 67  1  0  0  0  0
M  CHG  1  28   1
M  END
$$$$
