
  -OEChem-05262117493D

 67 70  0     1  0  0  0  0  0999 V2000
    2.4908    1.9118    0.6394 C   0  0  0  0  0  0  0  0  0  0  0  0
    3.2619    2.5750   -1.5986 C   0  0  0  0  0  0  0  0  0  0  0  0
    1.0871    1.5341   -1.2419 C   0  0  0  0  0  0  0  0  0  0  0  0
    1.2897    1.4266    0.1380 C   0  0  0  0  0  0  0  0  0  0  0  0
   -0.0358    1.1168   -2.0083 C   0  0  0  0  0  0  0  0  0  0  0  0
    3.4704    2.4909   -0.2183 C   0  0  0  0  0  0  0  0  0  0  0  0
    2.0515    2.0845   -2.1107 C   0  0  0  0  0  0  0  0  0  0  0  0
    0.2435    1.4065   -3.3286 C   0  0  0  0  0  0  0  0  0  0  0  0
   -0.5914    0.6756    4.8459 C   0  0  0  0  0  0  0  0  0  0  0  0
   -1.2195    0.5500   -1.2873 C   0  0  0  0  0  0  0  0  0  0  0  0
    0.7013   -0.0524    2.1115 C   0  0  0  0  0  0  0  0  0  0  0  0
   -1.2628   -1.5999    1.9381 C   0  0  0  0  0  0  0  0  0  0  0  0
    0.1639    0.7819    0.9411 C   0  0  2  0  0  0  0  0  0  0  0  0
   -0.3901   -0.7927    2.8950 C   0  0  2  0  0  0  0  0  0  0  0  0
   -0.6838   -0.1124    0.0002 C   0  0  1  0  0  0  0  0  0  0  0  0
    4.7507    3.0139    0.3926 C   0  0  0  0  0  0  0  0  0  0  0  0
   -5.2992    0.4641    2.0319 C   0  0  0  0  0  0  0  0  0  0  0  0
   -0.2276    3.3440    6.6760 C   0  0  0  0  0  0  0  0  0  0  0  0
   -3.8401    0.7490    5.8111 C   0  0  0  0  0  0  0  0  0  0  0  0
    0.0737   -0.2211   -5.5689 C   0  0  0  0  0  0  0  0  0  0  0  0
   -4.1522   -0.5325    1.8165 C   0  0  0  0  0  0  0  0  0  0  0  0
   -0.8404    1.9593    6.8935 C   0  0  0  0  0  0  0  0  0  0  0  0
   -2.7915    1.7535    5.3169 C   0  0  0  0  0  0  0  0  0  0  0  0
   -2.9561    0.1716    1.1796 C   0  0  0  0  0  0  0  0  0  0  0  0
    1.5185    1.9916   -3.3852 N   0  0  0  0  0  0  0  0  0  0  0  0
   -1.2204    0.1222    3.6942 N   0  0  0  0  0  0  0  0  0  0  0  0
   -1.4165    1.3912    5.6637 N   0  0  0  0  0  0  0  0  0  0  0  0
   -1.8280   -0.7729    0.7926 N   0  3  2  0  0  0  0  0  0  0  0  0
    0.6117    0.5149    5.0523 O   0  0  0  0  0  0  0  0  0  0  0  0
   -0.7645    1.2002   -4.7534 S   0  0  0  0  0  0  0  0  0  0  0  0
    2.7131    1.8600    1.7022 H   0  0  0  0  0  0  0  0  0  0  0  0
    4.0223    3.0088   -2.2428 H   0  0  0  0  0  0  0  0  0  0  0  0
   -1.9139    1.3611   -1.0443 H   0  0  0  0  0  0  0  0  0  0  0  0
   -1.7651   -0.1782   -1.9009 H   0  0  0  0  0  0  0  0  0  0  0  0
    1.4110   -0.7933    1.7242 H   0  0  0  0  0  0  0  0  0  0  0  0
    1.2522    0.5726    2.8110 H   0  0  0  0  0  0  0  0  0  0  0  0
   -0.6510   -2.3735    1.4689 H   0  0  0  0  0  0  0  0  0  0  0  0
   -2.0990   -2.0916    2.4362 H   0  0  0  0  0  0  0  0  0  0  0  0
   -0.4787    1.5787    1.3368 H   0  0  0  0  0  0  0  0  0  0  0  0
    0.1056   -1.5213    3.5498 H   0  0  0  0  0  0  0  0  0  0  0  0
   -0.0594   -0.9602   -0.3024 H   0  0  0  0  0  0  0  0  0  0  0  0
    5.2709    2.2290    0.9523 H   0  0  0  0  0  0  0  0  0  0  0  0
    5.4355    3.3914   -0.3706 H   0  0  0  0  0  0  0  0  0  0  0  0
    4.5470    3.8311    1.0934 H   0  0  0  0  0  0  0  0  0  0  0  0
   -4.9894    1.2864    2.6847 H   0  0  0  0  0  0  0  0  0  0  0  0
   -5.6400    0.8934    1.0848 H   0  0  0  0  0  0  0  0  0  0  0  0
   -6.1514   -0.0328    2.5013 H   0  0  0  0  0  0  0  0  0  0  0  0
    0.5981    3.2845    5.9623 H   0  0  0  0  0  0  0  0  0  0  0  0
   -0.9678    4.0571    6.2971 H   0  0  0  0  0  0  0  0  0  0  0  0
    0.1620    3.7359    7.6208 H   0  0  0  0  0  0  0  0  0  0  0  0
   -3.7014   -0.2442    5.3671 H   0  0  0  0  0  0  0  0  0  0  0  0
   -3.7823    0.6279    6.8964 H   0  0  0  0  0  0  0  0  0  0  0  0
   -4.8491    1.0916    5.5595 H   0  0  0  0  0  0  0  0  0  0  0  0
   -0.5029   -0.4402   -6.4706 H   0  0  0  0  0  0  0  0  0  0  0  0
    0.0743   -1.0950   -4.9147 H   0  0  0  0  0  0  0  0  0  0  0  0
    1.0956    0.0348   -5.8537 H   0  0  0  0  0  0  0  0  0  0  0  0
   -4.4923   -1.3538    1.1722 H   0  0  0  0  0  0  0  0  0  0  0  0
   -3.8868   -0.9774    2.7800 H   0  0  0  0  0  0  0  0  0  0  0  0
   -1.6404    1.9995    7.6395 H   0  0  0  0  0  0  0  0  0  0  0  0
   -0.0827    1.2649    7.2583 H   0  0  0  0  0  0  0  0  0  0  0  0
   -2.9933    2.7330    5.7595 H   0  0  0  0  0  0  0  0  0  0  0  0
   -2.8636    1.8906    4.2337 H   0  0  0  0  0  0  0  0  0  0  0  0
   -3.2741    0.6526    0.2559 H   0  0  0  0  0  0  0  0  0  0  0  0
   -2.5286    0.9207    1.8417 H   0  0  0  0  0  0  0  0  0  0  0  0
    1.9111    2.3909   -4.2276 H   0  0  0  0  0  0  0  0  0  0  0  0
   -2.1243   -0.2762    3.9267 H   0  0  0  0  0  0  0  0  0  0  0  0
   -2.2499   -1.4469    0.1457 H   0  0  0  0  0  0  0  0  0  0  0  0
  1  4  1  0  0  0  0
  1  6  2  0  0  0  0
  1 31  1  0  0  0  0
  2  6  1  0  0  0  0
  2  7  2  0  0  0  0
  2 32  1  0  0  0  0
  3  4  2  0  0  0  0
  3  5  1  0  0  0  0
  3  7  1  0  0  0  0
  4 13  1  0  0  0  0
  5  8  2  0  0  0  0
  5 10  1  0  0  0  0
  6 16  1  0  0  0  0
  7 25  1  0  0  0  0
  8 25  1  0  0  0  0
  8 30  1  0  0  0  0
  9 26  1  0  0  0  0
  9 27  1  0  0  0  0
  9 29  2  0  0  0  0
 10 15  1  0  0  0  0
 10 33  1  0  0  0  0
 10 34  1  0  0  0  0
 11 13  1  0  0  0  0
 11 14  1  0  0  0  0
 11 35  1  0  0  0  0
 11 36  1  0  0  0  0
 12 14  1  0  0  0  0
 12 28  1  0  0  0  0
 12 37  1  0  0  0  0
 12 38  1  0  0  0  0
 13 15  1  0  0  0  0
 13 39  1  0  0  0  0
 14 26  1  0  0  0  0
 14 40  1  0  0  0  0
 15 28  1  0  0  0  0
 15 41  1  0  0  0  0
 16 42  1  0  0  0  0
 16 43  1  0  0  0  0
 16 44  1  0  0  0  0
 17 21  1  0  0  0  0
 17 45  1  0  0  0  0
 17 46  1  0  0  0  0
 17 47  1  0  0  0  0
 18 22  1  0  0  0  0
 18 48  1  0  0  0  0
 18 49  1  0  0  0  0
 18 50  1  0  0  0  0
 19 23  1  0  0  0  0
 19 51  1  0  0  0  0
 19 52  1  0  0  0  0
 19 53  1  0  0  0  0
 20 30  1  0  0  0  0
 20 54  1  0  0  0  0
 20 55  1  0  0  0  0
 20 56  1  0  0  0  0
 21 24  1  0  0  0  0
 21 57  1  0  0  0  0
 21 58  1  0  0  0  0
 22 27  1  0  0  0  0
 22 59  1  0  0  0  0
 22 60  1  0  0  0  0
 23 27  1  0  0  0  0
 23 61  1  0  0  0  0
 23 62  1  0  0  0  0
 24 28  1  0  0  0  0
 24 63  1  0  0  0  0
 24 64  1  0  0  0  0
 25 65  1  0  0  0  0
 26 66  1  0  0  0  0
 28 67  1  0  0  0  0
M  CHG  1  28   1
M  END
$$$$
