37
0 1 C12Cl2H19N3O
C                    -1.504010904920     0.062860675100    -1.372220595919
C                     0.389790218845     0.923078014587    -1.684033790467
C                     1.368035222233     2.825584272804     2.885120598457
C                     1.001635477491     1.906422254244     1.721512427740
C                     0.700686598001     1.506968201178     3.140610282118
C                     3.648353598503    -3.035689575710    -1.318115417067
C                     1.503434197012    -2.169172191027    -2.238107016156
C                     1.544305950310    -3.195040164107     0.057427983102
C                     2.070793173297     1.201874784607     0.915702485502
C                     1.558028346190    -0.123894704553     0.326083680433
C                     2.702728247863    -0.943600623380    -0.325997398089
C                     2.329326615482    -2.326495808452    -0.944204975505
N                    -0.826584174795     0.895903854634    -2.216053868116
N                    -0.782346992023    -0.419743691593    -0.364749082269
N                     0.440944986035     0.141619045424    -0.579917044717
O                     3.738116256549    -1.068430347022     0.658382589540
Cl                    1.651461525539     0.206398776386     3.911559405577
Cl                   -0.996822753638     1.504641297855     3.667085291696
H                    -2.548738939000    -0.191326121351    -1.495478737330
H                     1.238844480405     1.474918975005    -2.064899689660
H                     2.417003352215     2.901757326698     3.155601967748
H                     0.778330679872     3.721776433766     3.048388669868
H                     0.115701506718     2.193935731822     1.161764083390
H                     4.274352236117    -3.228772194977    -0.444405159397
H                     4.235841666242    -2.429914149008    -2.017650260868
H                     3.429829631228    -3.992129350581    -1.804525594508
H                     0.478163813172    -1.847993623496    -2.054565477873
H                     1.971717102179    -1.458132394361    -2.927990228563
H                     1.451089400236    -3.134621488373    -2.752760291516
H                     0.561227415821    -2.772635605453     0.283292934774
H                     2.087056910982    -3.333976408075     1.001622279811
H                     1.386154059422    -4.194422590247    -0.361061066367
H                     2.944841908587     0.987519532518     1.529949870011
H                     2.407839590458     1.865322160980     0.110144669747
H                     1.122503590030    -0.714792128766     1.133777022573
H                     3.160024412825    -0.337974345275    -1.117622036097
H                     3.406015577226    -1.633289135616     1.375449143124
