66
0 1 C24H36N4OS
C                    -1.296888600408     2.001129427728    -0.361938960776
C                    -3.049475663360     1.044924517579    -1.796514835809
C                    -1.524425905527    -0.356590116907    -0.506385733418
C                    -0.844767825609     0.744987123284     0.029101846696
C                    -1.266685334850    -1.738769960226    -0.278620924433
C                    -2.393043912067     2.155996488122    -1.257718300012
C                    -2.596821684312    -0.228212889789    -1.414308192068
C                    -2.169631463928    -2.440403981229    -1.049709247958
C                     2.433597899741     2.642662147029     3.597929958423
C                    -0.187442971353    -2.114261773796     0.688721144544
C                     1.449602999660     1.465870552712     0.822590961229
C                     3.083369442537    -0.341970273520     1.427737106268
C                     0.318264261629     0.434642421955     0.960188556191
C                     0.886418501302    -1.000934635193     0.697436349239
C                     2.679742546700     1.121804070675     1.671198766559
C                    -2.841516152876     3.554162007668    -1.623364062481
C                     2.344825988436    -2.684258941899     5.181028810526
C                     0.950771741892     4.765383183671     5.554861902254
C                     3.196804975396     0.948107165299     6.466956018317
C                    -1.329644045320    -4.508157068494    -2.688341591705
C                     2.824543217185    -2.129725961758     3.834962284942
C                     1.646068236076    -1.689388651081     2.959382502396
C                     2.333816774074     4.106375577636     5.540931836069
C                     1.976655299241     1.644007651769     5.848342599022
N                    -2.972296336666    -1.515509465323    -1.751768468141
N                     2.017316900393    -1.334841586840     1.583327821790
N                     2.421868887954     1.344814195964     3.101711603093
N                     2.321868846967     2.758327976620     4.969495750462
O                     2.518185236417     3.628051540188     2.856389064681
S                    -2.404682656805    -4.172230580815    -1.232303225652
H                    -0.812110775908     2.900416926115     0.010178570186
H                    -3.876445645384     1.176603228397    -2.490525371162
H                    -0.636025947786    -2.217684051431     1.683106253944
H                     0.281694798431    -3.073155459812     0.446887429148
H                     1.761261499834     1.508789676763    -0.229275017244
H                     1.109305825728     2.467073385499     1.091559539878
H                     3.434783608354    -0.405909856284     0.390297054194
H                     3.936826056314    -0.616323389040     2.053831694294
H                    -0.051600673074     0.464644192707     1.994526719625
H                     1.307753471102    -0.978430612294    -0.318119208864
H                     3.505810106951     1.771373578904     1.355140930477
H                    -2.008900903077     4.147725029785    -2.017470996797
H                    -3.630546330272     3.538321871049    -2.380704250945
H                    -3.230151294289     4.086560515815    -0.747134492655
H                     1.756188658923    -1.939343368665     5.728937365131
H                     1.713179638248    -3.568706766101     5.043234816734
H                     3.189908399313    -2.971256641033     5.814900197423
H                     0.580250394609     4.873187286739     4.532316394750
H                     0.229231185495     4.171006117667     6.126761525930
H                     1.004903358438     5.760086582580     6.011505464713
H                     3.851088087295     0.523949548382     5.698139844149
H                     3.792708236101     1.657540268827     7.049787739360
H                     2.884023989815     0.134525144451     7.130365823109
H                    -1.407388829614    -5.578322571715    -2.898879909740
H                    -0.292244999188    -4.256350415884    -2.459261454553
H                    -1.666350720127    -3.943032283683    -3.559865516687
H                     3.401624803405    -2.888318670346     3.293405163932
H                     3.516882997207    -1.301638119335     4.027866857244
H                     0.968627006496    -2.544942473521     2.902176117543
H                     1.088086068293    -0.890650246788     3.477998785886
H                     2.736176491579     4.032432111375     6.557660304875
H                     3.026063022024     4.712857688752     4.954939022040
H                     1.339699285465     2.034219429055     6.649189583996
H                     1.360486355861     0.925910726654     5.298770750483
H                    -3.775693103820    -1.784144858125    -2.302420198030
H                     2.789319404008     0.634222490685     3.717530776211
