
  -OEChem-05262117483D

 25 26  0     0  0  0  0  0  0999 V2000
   -0.7942   -6.3720   -4.2572 C   0  0  0  0  0  0  0  0  0  0  0  0
   -1.5027   -5.7282   -3.2399 C   0  0  0  0  0  0  0  0  0  0  0  0
    0.6035   -6.4160   -4.2355 C   0  0  0  0  0  0  0  0  0  0  0  0
   -0.8175   -5.1086   -2.1893 C   0  0  0  0  0  0  0  0  0  0  0  0
    1.2745   -5.8030   -3.1830 C   0  0  0  0  0  0  0  0  0  0  0  0
    0.5799   -5.1516   -2.1660 C   0  0  0  0  0  0  0  0  0  0  0  0
   -0.8765   -1.2968   -3.6517 C   0  0  0  0  0  0  0  0  0  0  0  0
   -1.4775   -0.1894   -2.7914 C   0  0  0  0  0  0  0  0  0  0  0  0
   -1.1694   -2.0996   -1.5269 C   0  0  0  0  0  0  0  0  0  0  0  0
   -2.1470   -3.2720   -1.4478 C   0  0  0  0  0  0  0  0  0  0  0  0
   -0.3206   -2.1727   -2.6655 O   0  0  0  0  0  0  0  0  0  0  0  0
   -1.9397   -0.9024   -1.6355 O   0  0  0  0  0  0  0  0  0  0  0  0
   -1.4743   -4.5020   -1.1447 O   0  0  0  0  0  0  0  0  0  0  0  0
    2.6248   -5.8207   -3.1367 F   0  0  0  0  0  0  0  0  0  0  0  0
    1.2585   -4.5482   -1.1749 F   0  0  0  0  0  0  0  0  0  0  0  0
   -1.3325   -6.8560   -5.0666 H   0  0  0  0  0  0  0  0  0  0  0  0
   -2.5887   -5.7103   -3.2416 H   0  0  0  0  0  0  0  0  0  0  0  0
    1.1767   -6.9157   -5.0099 H   0  0  0  0  0  0  0  0  0  0  0  0
   -1.6439   -1.8111   -4.2461 H   0  0  0  0  0  0  0  0  0  0  0  0
   -0.0669   -0.9679   -4.3060 H   0  0  0  0  0  0  0  0  0  0  0  0
   -0.7199    0.5500   -2.5027 H   0  0  0  0  0  0  0  0  0  0  0  0
   -2.3321    0.3153   -3.2481 H   0  0  0  0  0  0  0  0  0  0  0  0
   -0.5227   -2.0788   -0.6423 H   0  0  0  0  0  0  0  0  0  0  0  0
   -2.7108   -3.3492   -2.3846 H   0  0  0  0  0  0  0  0  0  0  0  0
   -2.8454   -3.1006   -0.6258 H   0  0  0  0  0  0  0  0  0  0  0  0
  1  2  1  0  0  0  0
  1  3  2  0  0  0  0
  1 16  1  0  0  0  0
  2  4  2  0  0  0  0
  2 17  1  0  0  0  0
  3  5  1  0  0  0  0
  3 18  1  0  0  0  0
  4  6  1  0  0  0  0
  4 13  1  0  0  0  0
  5  6  2  0  0  0  0
  5 14  1  0  0  0  0
  6 15  1  0  0  0  0
  7  8  1  0  0  0  0
  7 11  1  0  0  0  0
  7 19  1  0  0  0  0
  7 20  1  0  0  0  0
  8 12  1  0  0  0  0
  8 21  1  0  0  0  0
  8 22  1  0  0  0  0
  9 10  1  0  0  0  0
  9 11  1  0  0  0  0
  9 12  1  0  0  0  0
  9 23  1  0  0  0  0
 10 13  1  0  0  0  0
 10 24  1  0  0  0  0
 10 25  1  0  0  0  0
M  END
$$$$
