25
0 1 C10F2H10O3
C                    -2.272099407505    -1.623815069634    -5.653330033426
C                    -1.320027651835    -1.187742773814    -4.731492516056
C                    -2.625595287676    -0.829815489596    -6.749890245027
C                    -0.686937621548     0.051804496261    -4.893703974040
C                    -1.994936620293     0.398272553817    -6.906682790787
C                    -1.028080357163     0.837684270051    -6.003101474427
C                     0.712094341011    -0.064884359881    -0.572529841983
C                     1.955894470742    -0.145076694610    -1.454850876517
C                     0.756603679622     1.721528377141    -2.039523022981
C                     0.240160128966     1.752770729778    -3.472192971037
O                    -0.096650433912     0.916070073160    -1.233489265242
O                     2.072671207343     1.199242154442    -1.941073095505
O                     0.276083001114     0.414906006451    -3.998019563904
F                    -2.297365534357     1.191351741224    -7.957621481450
F                    -0.413502834868     2.022938704451    -6.220033861866
H                    -2.754644892650    -2.586289803670    -5.512546003181
H                    -1.049583245572    -1.787363155167    -3.868250441968
H                    -3.369938164165    -1.141949307325    -7.475207412173
H                     0.147780753114    -0.999544528995    -0.523005210483
H                     0.957050127865     0.272170174858     0.443107098282
H                     2.869156369782    -0.385265991824    -0.906028538704
H                     1.820293572523    -0.841720167050    -2.288804304355
H                     0.782511746056     2.751640822418    -1.655275654954
H                     0.872512544431     2.410899959853    -4.074735103815
H                    -0.785471672325     2.136530757346    -3.470269004410
