
  -OEChem-05262117483D

 22 23  0     0  0  0  0  0  0999 V2000
   -0.7757   -2.6600    2.0616 C   0  0  0  0  0  0  0  0  0  0  0  0
   -0.7068   -1.3472    1.6188 C   0  0  0  0  0  0  0  0  0  0  0  0
    0.4703   -2.0622   -0.3844 C   0  0  0  0  0  0  0  0  0  0  0  0
    0.2704   -6.0542    0.9429 C   0  0  0  0  0  0  0  0  0  0  0  0
   -0.2233   -3.7055    1.2919 C   0  0  0  0  0  0  0  0  0  0  0  0
    0.4019   -3.3918    0.0613 C   0  0  0  0  0  0  0  0  0  0  0  0
   -0.2781   -5.0870    1.7249 C   0  0  0  0  0  0  0  0  0  0  0  0
   -0.0815   -1.0569    0.3935 C   0  0  0  0  0  0  0  0  0  0  0  0
    0.9983   -4.4443   -0.7875 C   0  0  0  0  0  0  0  0  0  0  0  0
   -0.9750   -6.6430    3.3898 C   0  0  0  0  0  0  0  0  0  0  0  0
    0.8791   -5.7205   -0.2629 N   0  0  0  0  0  0  0  0  0  0  0  0
    1.5588   -4.2476   -1.8688 O   0  0  0  0  0  0  0  0  0  0  0  0
   -0.9005   -5.3000    2.9267 O   0  0  0  0  0  0  0  0  0  0  0  0
   -0.0045    0.6101   -0.1495 Cl  0  0  0  0  0  0  0  0  0  0  0  0
   -1.2561   -2.8931    3.0053 H   0  0  0  0  0  0  0  0  0  0  0  0
   -1.1316   -0.5420    2.2102 H   0  0  0  0  0  0  0  0  0  0  0  0
    0.9560   -1.8542   -1.3318 H   0  0  0  0  0  0  0  0  0  0  0  0
    0.2725   -7.1069    1.1913 H   0  0  0  0  0  0  0  0  0  0  0  0
   -1.4964   -6.6048    4.3467 H   0  0  0  0  0  0  0  0  0  0  0  0
    0.0269   -7.0673    3.5368 H   0  0  0  0  0  0  0  0  0  0  0  0
   -1.5410   -7.2722    2.6905 H   0  0  0  0  0  0  0  0  0  0  0  0
    1.2845   -6.4530   -0.8346 H   0  0  0  0  0  0  0  0  0  0  0  0
  1  2  1  0  0  0  0
  1  5  2  0  0  0  0
  1 15  1  0  0  0  0
  2  8  2  0  0  0  0
  2 16  1  0  0  0  0
  3  6  2  0  0  0  0
  3  8  1  0  0  0  0
  3 17  1  0  0  0  0
  4  7  2  0  0  0  0
  4 11  1  0  0  0  0
  4 18  1  0  0  0  0
  5  6  1  0  0  0  0
  5  7  1  0  0  0  0
  6  9  1  0  0  0  0
  7 13  1  0  0  0  0
  8 14  1  0  0  0  0
  9 11  1  0  0  0  0
  9 12  2  0  0  0  0
 10 13  1  0  0  0  0
 10 19  1  0  0  0  0
 10 20  1  0  0  0  0
 10 21  1  0  0  0  0
 11 22  1  0  0  0  0
M  END
$$$$
