
  -OEChem-05262117483D

 42 45  0     0  0  0  0  0  0999 V2000
   -3.3687   -9.9797    0.0758 C   0  0  0  0  0  0  0  0  0  0  0  0
   -2.4273   -9.2299    0.7860 C   0  0  0  0  0  0  0  0  0  0  0  0
   -4.3652   -9.3263   -0.6660 C   0  0  0  0  0  0  0  0  0  0  0  0
   -2.4444   -7.8279    0.7642 C   0  0  0  0  0  0  0  0  0  0  0  0
   -0.1086   -5.5659    2.4017 C   0  0  0  0  0  0  0  0  0  0  0  0
   -1.9710   -4.0732    2.7286 C   0  0  0  0  0  0  0  0  0  0  0  0
   -4.3886   -7.9379   -0.6995 C   0  0  0  0  0  0  0  0  0  0  0  0
   -1.1772   -4.8405    1.8687 C   0  0  0  0  0  0  0  0  0  0  0  0
   -3.4178   -7.1896   -0.0084 C   0  0  0  0  0  0  0  0  0  0  0  0
    0.1692   -5.5517    3.7706 C   0  0  0  0  0  0  0  0  0  0  0  0
   -0.6534   -4.8180    4.6532 C   0  0  0  0  0  0  0  0  0  0  0  0
   -1.7082   -4.0759    4.0972 C   0  0  0  0  0  0  0  0  0  0  0  0
   -2.8968   -4.6929   -0.0005 C   0  0  0  0  0  0  0  0  0  0  0  0
   -5.3430   -7.0024   -1.4077 C   0  0  0  0  0  0  0  0  0  0  0  0
    1.4438   -6.1724    6.6333 C   0  0  0  0  0  0  0  0  0  0  0  0
   -5.0402   -5.6419   -0.7479 C   0  0  0  0  0  0  0  0  0  0  0  0
    2.0200   -5.7686    5.2766 C   0  0  0  0  0  0  0  0  0  0  0  0
   -0.0762   -6.0076    6.6385 C   0  0  0  0  0  0  0  0  0  0  0  0
   -1.4301   -4.8583    0.3693 C   0  0  0  0  0  0  0  0  0  0  0  0
   -3.6764   -5.8078   -0.1914 N   0  0  0  0  0  0  0  0  0  0  0  0
   -3.3764   -3.5663   -0.1546 O   0  0  0  0  0  0  0  0  0  0  0  0
    1.2417   -6.3077    4.1897 O   0  0  0  0  0  0  0  0  0  0  0  0
   -0.4693   -4.7719    6.0108 O   0  0  0  0  0  0  0  0  0  0  0  0
   -2.7349   -3.1422    5.1656 Cl  0  0  0  0  0  0  0  0  0  0  0  0
   -3.3415  -11.0651    0.1142 H   0  0  0  0  0  0  0  0  0  0  0  0
   -1.6751   -9.7352    1.3862 H   0  0  0  0  0  0  0  0  0  0  0  0
   -5.1165   -9.9002   -1.2036 H   0  0  0  0  0  0  0  0  0  0  0  0
   -1.7417   -7.2764    1.3738 H   0  0  0  0  0  0  0  0  0  0  0  0
    0.5485   -6.1504    1.7631 H   0  0  0  0  0  0  0  0  0  0  0  0
   -2.7922   -3.4799    2.3413 H   0  0  0  0  0  0  0  0  0  0  0  0
   -5.1258   -6.9739   -2.4826 H   0  0  0  0  0  0  0  0  0  0  0  0
   -6.3902   -7.2917   -1.2888 H   0  0  0  0  0  0  0  0  0  0  0  0
    1.6853   -7.2165    6.8622 H   0  0  0  0  0  0  0  0  0  0  0  0
    1.9035   -5.5477    7.4074 H   0  0  0  0  0  0  0  0  0  0  0  0
   -5.0508   -4.7955   -1.4332 H   0  0  0  0  0  0  0  0  0  0  0  0
   -5.7367   -5.4257    0.0700 H   0  0  0  0  0  0  0  0  0  0  0  0
    2.0647   -4.6792    5.1810 H   0  0  0  0  0  0  0  0  0  0  0  0
    3.0279   -6.1673    5.1394 H   0  0  0  0  0  0  0  0  0  0  0  0
   -0.5622   -6.8426    6.1243 H   0  0  0  0  0  0  0  0  0  0  0  0
   -0.4685   -5.9554    7.6566 H   0  0  0  0  0  0  0  0  0  0  0  0
   -0.9286   -4.0005   -0.0895 H   0  0  0  0  0  0  0  0  0  0  0  0
   -1.0065   -5.7641   -0.0712 H   0  0  0  0  0  0  0  0  0  0  0  0
  1  2  1  0  0  0  0
  1  3  2  0  0  0  0
  1 25  1  0  0  0  0
  2  4  2  0  0  0  0
  2 26  1  0  0  0  0
  3  7  1  0  0  0  0
  3 27  1  0  0  0  0
  4  9  1  0  0  0  0
  4 28  1  0  0  0  0
  5  8  1  0  0  0  0
  5 10  2  0  0  0  0
  5 29  1  0  0  0  0
  6  8  2  0  0  0  0
  6 12  1  0  0  0  0
  6 30  1  0  0  0  0
  7  9  2  0  0  0  0
  7 14  1  0  0  0  0
  8 19  1  0  0  0  0
  9 20  1  0  0  0  0
 10 11  1  0  0  0  0
 10 22  1  0  0  0  0
 11 12  2  0  0  0  0
 11 23  1  0  0  0  0
 12 24  1  0  0  0  0
 13 19  1  0  0  0  0
 13 20  1  0  0  0  0
 13 21  2  0  0  0  0
 14 16  1  0  0  0  0
 14 31  1  0  0  0  0
 14 32  1  0  0  0  0
 15 17  1  0  0  0  0
 15 18  1  0  0  0  0
 15 33  1  0  0  0  0
 15 34  1  0  0  0  0
 16 20  1  0  0  0  0
 16 35  1  0  0  0  0
 16 36  1  0  0  0  0
 17 22  1  0  0  0  0
 17 37  1  0  0  0  0
 17 38  1  0  0  0  0
 18 23  1  0  0  0  0
 18 39  1  0  0  0  0
 18 40  1  0  0  0  0
 19 41  1  0  0  0  0
 19 42  1  0  0  0  0
M  END
$$$$
