42
0 1 C19ClH18NO3
C                    -1.791485038172    -2.585505123826    -4.925004488545
C                    -0.802817323400    -3.045749329737    -4.052456764413
C                    -3.144140465625    -2.722869764397    -4.577100609171
C                    -1.130777312761    -3.638887348469    -2.824512143900
C                    -0.602840863897    -5.576052168643     2.361894821621
C                    -0.857894669582    -3.183551419941     2.435424280799
C                    -3.480635067373    -3.305152030158    -3.362402696560
C                    -0.859108930193    -4.373337923768     1.701807059063
C                    -2.480998673215    -3.749745629560    -2.475494282997
C                    -0.356555789182    -5.608745890324     3.734775036933
C                    -0.394708248963    -4.416597282306     4.493655903679
C                    -0.634476866170    -3.214504815362     3.811132016950
C                    -2.593461758281    -4.701997876993    -0.105503505145
C                    -4.844983739526    -3.555889072747    -2.760896639843
C                     0.190742094923    -6.626097692842     6.714720810099
C                    -4.537864722552    -4.520609830660    -1.598815002501
C                     0.845464704370    -6.895868223679     5.360026171806
C                    -0.767827300715    -5.439255747978     6.615131209540
C                    -1.139639438217    -4.345838595003     0.219250225955
N                    -3.092995731635    -4.319526348307    -1.332001413374
O                    -3.314962351215    -5.289713681435     0.697218778028
O                    -0.116003412900    -6.847054970394     4.289450460995
O                    -0.188059489263    -4.365635929387     5.848446301880
Cl                   -0.671696762245    -1.715411877060     4.718845635814
H                    -1.514538266389    -2.135085346837    -5.873930359782
H                     0.244704041380    -2.958057707249    -4.328393008811
H                    -3.923844847202    -2.381142208588    -5.253962119825
H                    -0.337082057246    -4.012965158199    -2.192232066960
H                    -0.588523069569    -6.519006534355     1.823530401351
H                    -1.045490731902    -2.230213004532     1.950832927765
H                    -5.276679930318    -2.618554113920    -2.389337904140
H                    -5.552624641551    -3.985554826457    -3.474518562000
H                    -0.369914460399    -7.503782420622     7.055658124412
H                     0.978330999976    -6.427801042893     7.450600306745
H                    -5.104188421834    -4.322541711181    -0.689777313463
H                    -4.708404837153    -5.565287979205    -1.881677827330
H                     1.643077093644    -6.172469821347     5.162790236409
H                     1.275260355209    -7.899778739834     5.321558232447
H                    -1.714847663026    -5.738526003271     6.155789335442
H                    -0.980776565996    -5.014003279287     7.598614120086
H                    -0.902478955561    -3.360818223573    -0.190101504742
H                    -0.496129527644    -5.067721751309    -0.297239659458
