
  -OEChem-05262117483D

 21 22  0     0  0  0  0  0  0999 V2000
    1.7985   -1.2394    0.1553 C   0  0  0  0  0  0  0  0  0  0  0  0
    0.7159   -0.5870    0.7365 C   0  0  0  0  0  0  0  0  0  0  0  0
    1.7339   -0.9003    2.9251 C   0  0  0  0  0  0  0  0  0  0  0  0
    2.8803   -1.7203    0.9155 C   0  0  0  0  0  0  0  0  0  0  0  0
    2.8038   -1.5358    2.3011 C   0  0  0  0  0  0  0  0  0  0  0  0
    0.6972   -0.4229    2.1254 C   0  0  0  0  0  0  0  0  0  0  0  0
    3.9971   -2.4051    0.1757 C   0  0  0  0  0  0  0  0  0  0  0  0
    6.5328   -2.5480   -0.2065 C   0  0  0  0  0  0  0  0  0  0  0  0
    6.1473   -3.7552    0.5821 C   0  0  0  0  0  0  0  0  0  0  0  0
    5.3601   -2.4527    0.7667 C   0  0  0  0  0  0  0  0  0  0  0  0
    3.7657   -2.8862   -0.9322 O   0  0  0  0  0  0  0  0  0  0  0  0
    3.7801   -2.0134    3.1135 F   0  0  0  0  0  0  0  0  0  0  0  0
   -0.7805    0.4634    2.9522 Br  0  0  0  0  0  0  0  0  0  0  0  0
    1.8347   -1.3952   -0.9182 H   0  0  0  0  0  0  0  0  0  0  0  0
   -0.1005   -0.2145    0.1273 H   0  0  0  0  0  0  0  0  0  0  0  0
    1.7244   -0.7984    4.0046 H   0  0  0  0  0  0  0  0  0  0  0  0
    7.4312   -2.0059    0.0720 H   0  0  0  0  0  0  0  0  0  0  0  0
    6.2720   -2.5336   -1.2594 H   0  0  0  0  0  0  0  0  0  0  0  0
    5.6232   -4.5486    0.0592 H   0  0  0  0  0  0  0  0  0  0  0  0
    6.7690   -4.0654    1.4160 H   0  0  0  0  0  0  0  0  0  0  0  0
    5.5253   -1.9133    1.6892 H   0  0  0  0  0  0  0  0  0  0  0  0
  1  2  1  0  0  0  0
  1  4  2  0  0  0  0
  1 14  1  0  0  0  0
  2  6  2  0  0  0  0
  2 15  1  0  0  0  0
  3  5  2  0  0  0  0
  3  6  1  0  0  0  0
  3 16  1  0  0  0  0
  4  5  1  0  0  0  0
  4  7  1  0  0  0  0
  5 12  1  0  0  0  0
  6 13  1  0  0  0  0
  7 10  1  0  0  0  0
  7 11  2  0  0  0  0
  8  9  1  0  0  0  0
  8 10  1  0  0  0  0
  8 17  1  0  0  0  0
  8 18  1  0  0  0  0
  9 10  1  0  0  0  0
  9 19  1  0  0  0  0
  9 20  1  0  0  0  0
 10 21  1  0  0  0  0
M  END
$$$$
