
  -OEChem-05262117483D

 25 26  0     0  0  0  0  0  0999 V2000
   -0.4712   -7.3300   -2.5899 C   0  0  0  0  0  0  0  0  0  0  0  0
   -0.5683   -6.3811   -1.5724 C   0  0  0  0  0  0  0  0  0  0  0  0
   -1.4300   -7.3896   -3.6057 C   0  0  0  0  0  0  0  0  0  0  0  0
   -1.6304   -5.4649   -1.5360 C   0  0  0  0  0  0  0  0  0  0  0  0
   -2.4889   -6.4909   -3.5579 C   0  0  0  0  0  0  0  0  0  0  0  0
   -2.6099   -5.5520   -2.5351 C   0  0  0  0  0  0  0  0  0  0  0  0
    1.0108   -3.0696   -1.5868 C   0  0  0  0  0  0  0  0  0  0  0  0
    0.3961   -3.0334   -2.9852 C   0  0  0  0  0  0  0  0  0  0  0  0
   -1.1726   -2.3663   -1.4151 C   0  0  0  0  0  0  0  0  0  0  0  0
   -2.1281   -3.2529   -0.6180 C   0  0  0  0  0  0  0  0  0  0  0  0
    0.1127   -2.2551   -0.8238 O   0  0  0  0  0  0  0  0  0  0  0  0
   -1.0066   -2.8928   -2.7261 O   0  0  0  0  0  0  0  0  0  0  0  0
   -1.6634   -4.6044   -0.4730 O   0  0  0  0  0  0  0  0  0  0  0  0
   -3.4469   -6.5200   -4.5104 F   0  0  0  0  0  0  0  0  0  0  0  0
   -3.6862   -4.7335   -2.5401 F   0  0  0  0  0  0  0  0  0  0  0  0
    0.3609   -8.0277   -2.5946 H   0  0  0  0  0  0  0  0  0  0  0  0
    0.1697   -6.3301   -0.7781 H   0  0  0  0  0  0  0  0  0  0  0  0
   -1.3778   -8.1106   -4.4148 H   0  0  0  0  0  0  0  0  0  0  0  0
    1.0433   -4.0872   -1.1837 H   0  0  0  0  0  0  0  0  0  0  0  0
    2.0045   -2.6190   -1.5345 H   0  0  0  0  0  0  0  0  0  0  0  0
    0.7555   -2.1762   -3.5679 H   0  0  0  0  0  0  0  0  0  0  0  0
    0.5473   -3.9567   -3.5498 H   0  0  0  0  0  0  0  0  0  0  0  0
   -1.6000   -1.3535   -1.4612 H   0  0  0  0  0  0  0  0  0  0  0  0
   -3.1205   -3.2136   -1.0698 H   0  0  0  0  0  0  0  0  0  0  0  0
   -2.1830   -2.8711    0.4036 H   0  0  0  0  0  0  0  0  0  0  0  0
  1  2  1  0  0  0  0
  1  3  2  0  0  0  0
  1 16  1  0  0  0  0
  2  4  2  0  0  0  0
  2 17  1  0  0  0  0
  3  5  1  0  0  0  0
  3 18  1  0  0  0  0
  4  6  1  0  0  0  0
  4 13  1  0  0  0  0
  5  6  2  0  0  0  0
  5 14  1  0  0  0  0
  6 15  1  0  0  0  0
  7  8  1  0  0  0  0
  7 11  1  0  0  0  0
  7 19  1  0  0  0  0
  7 20  1  0  0  0  0
  8 12  1  0  0  0  0
  8 21  1  0  0  0  0
  8 22  1  0  0  0  0
  9 10  1  0  0  0  0
  9 11  1  0  0  0  0
  9 12  1  0  0  0  0
  9 23  1  0  0  0  0
 10 13  1  0  0  0  0
 10 24  1  0  0  0  0
 10 25  1  0  0  0  0
M  END
$$$$
