15   
torsion grid (-75,)
C        3.2210347539   -0.7238366428   -0.7636191084
C        2.0130423383   -0.6396194822   -0.1139093968
C        3.9985135490   -1.8837116341    0.0255823456
C        0.8550054855    0.2952437433   -0.1521799260
N        1.9910762551   -1.9122879554    0.5705906275
N        3.3351723156   -1.6227663997    1.2819265552
N       -0.4054521404   -0.4622038111   -0.1866046559
O        4.8929391353   -2.6432817916   -0.2371299971
H        3.6773454580   -0.0142334393   -1.4435574878
H        1.0010058969    1.0081887739   -0.9771925728
H        0.8621854918    0.8772455852    0.7805696538
H        1.2870122854   -1.8629549753    1.3191092012
H        3.5060434162   -2.4623825627    1.8623463735
H       -0.5035637963   -0.9326998421   -1.0847986364
H       -1.1949995997    0.1728407470   -0.0903599300
15   
torsion grid (-60,)
C        3.2850440833   -0.6713424234   -0.6354458200
C        2.0485947469   -0.6298579849   -0.0487355462
C        4.0254454653   -1.8188213045    0.0420465920
C        0.8781261577    0.2874636764   -0.2055221756
N        1.9332257686   -1.8648827442    0.6645304816
N        3.2935246687   -1.8373890502    1.2845194622
N       -0.3789944148   -0.4667487541   -0.1047897267
O        5.0065876193   -2.4699245841   -0.2471926121
H        3.6998810643   -0.0047455621   -1.3800559869
H        1.0040829715    0.8727402954   -1.1286956017
H        0.8995929215    1.0025083417    0.6283850611
H        1.2573823166   -1.7382248713    1.4259665782
H        3.4393605357   -2.7661201168    1.7010612983
H       -0.4965064199   -1.0626972165   -0.9224138723
H       -1.1685216178    0.1747382829   -0.0823196630
15   
torsion grid (-45,)
C        3.3174041759   -0.5867905584   -0.5625364605
C        2.0477141868   -0.6122612416   -0.0616622815
C        4.0474820183   -1.7114096378    0.0734562140
C        0.8680339388    0.2862067236   -0.2941652174
N        1.8864322354   -1.8032591482    0.6763900714
N        3.2253101039   -1.9781980506    1.2231411582
N       -0.3870905873   -0.4242396354   -0.0149419131
O        5.1112960458   -2.2559685305   -0.1733118465
H        3.7281894059    0.0840906190   -1.3046507824
H        0.9438387127    0.7212437018   -1.3018638478
H        0.9400188610    1.1212099562    0.4143310827
H        1.2163870659   -1.6640825945    1.4371876430
H        3.3431040778   -2.9574602218    1.4957259685
H       -0.5744269365   -1.1087883607   -0.7454126560
H       -1.1646080729    0.2317718525   -0.0103753190
15   
torsion grid (-30,)
C        3.3298414130   -0.5455030371   -0.5219136976
C        2.0410752079   -0.6211354597   -0.0827896996
C        4.0779288039   -1.6417192522    0.1071668037
C        0.8548544673    0.2638954785   -0.3486903592
N        1.8722161967   -1.7699676678    0.6885498528
N        3.1901988975   -2.1018388918    1.1287994285
N       -0.3898263699   -0.3968384534    0.0673353511
O        5.2024015680   -2.0902953515   -0.0804175345
H        3.7427825447    0.1442218935   -1.2451312672
H        0.8798303505    0.5827246609   -1.4014312957
H        0.9695472988    1.1710661067    0.2561792006
H        1.2196044882   -1.6373532862    1.4624989197
H        3.2873945902   -3.1015952440    1.3019560498
H       -0.6283686323   -1.1411433354   -0.5857109736
H       -1.1579968140    0.2699494164    0.0552297489
15   
torsion grid (-15,)
C        3.3317773628   -0.5228176905   -0.5100586394
C        2.0337488360   -0.6329962607   -0.1147078663
C        4.0908275275   -1.5817247952    0.1490092731
C        0.8450463777    0.2464297291   -0.3981637694
N        1.8601263752   -1.7408937731    0.7030052518
N        3.1576028955   -2.1948029253    1.0375096346
N       -0.3891767161   -0.3626560212    0.1165250638
O        5.2538296318   -1.9544433583    0.0284951039
H        3.7503630508    0.1805043766   -1.2164022746
H        0.8299802361    0.4782031262   -1.4739451659
H        0.9928854340    1.1980220453    0.1244438776
H        1.2429817308   -1.5928267994    1.5004322297
H        3.2307823354   -3.2064828367    1.1029673694
H       -0.6655521822   -1.1478123176   -0.4703354869
H       -1.1480697145    0.3141739259    0.0874169651
15   
torsion grid (0,)
C        3.3467340786   -0.5657814105   -0.4644773969
C        2.0320968854   -0.6736747849   -0.1233161913
C        4.0877696582   -1.6064827750    0.2476693633
C        0.8633929008    0.2262188577   -0.4284699425
N        1.8374167464   -1.7378333634    0.7433657099
N        3.0935026303   -2.3139661697    0.9748670306
N       -0.3751260567   -0.3153046418    0.1491848657
O        5.2710157806   -1.9322663197    0.2182066807
H        3.7949446086    0.1365316144   -1.1534886656
H        0.8276338800    0.3921864797   -1.5161947432
H        1.0497938219    1.2029875700    0.0304740678
H        1.2513184791   -1.5709167698    1.5578797799
H        3.1307084762   -3.3261173974    1.0065609462
H       -0.6872167087   -1.1235266804   -0.3862610854
H       -1.1138883991    0.3821014910    0.0943937022
15   
torsion grid (15,)
C        3.3359012531   -0.3963350825   -0.5545296128
C        2.0218402928   -0.6168859855   -0.2708205634
C        4.1237833899   -1.4721119129    0.0650107696
C        0.7955580958    0.2178683549   -0.5275332267
N        1.8626888216   -1.8194739386    0.4111158418
N        3.1369813524   -2.4230026291    0.4179509973
N       -0.3396607557   -0.2769888339    0.2688885940
O        5.3320963910   -1.6366032012    0.1975763397
H        3.7634822716    0.4399295844   -1.0903451621
H        0.6013734507    0.2394465774   -1.6113037241
H        1.0097325903    1.2471554855   -0.2259200665
H        1.3680452190   -1.7619005247    1.2996284272
H        3.3208590150   -3.0800195564    1.1685242611
H       -0.7416137424   -1.1000040730   -0.1761925094
H       -1.0718862024    0.4284582232    0.2995305290
15   
torsion grid (30,)
C        3.3413214941   -0.3774614138   -0.4289193442
C        2.0187928127   -0.6443206304   -0.2850426862
C        4.0915096815   -1.5043673662    0.1809553640
C        0.7969753999    0.1666763069   -0.6062425003
N        1.8295484053   -1.8824599746    0.3797295377
N        3.1016019973   -2.5218664091    0.2351844605
N       -0.2842885392   -0.1458858803    0.3438991970
O        5.2736279646   -1.6405132793    0.4583027970
H        3.8003927144    0.4958536919   -0.8725536997
H        0.5250747757   -0.0189330840   -1.6586965682
H        1.0465260878    1.2278150413   -0.5240130986
H        1.5299861043   -1.7526457931    1.3474861295
H        3.2584175546   -3.2566311895    0.9220269817
H       -0.6964349511   -1.0455536307    0.1030169250
H       -1.0237063525    0.5480173084    0.2598469050
15   
torsion grid (45,)
C        3.3384703898   -0.3364103845   -0.3233440320
C        2.0228334249   -0.6488218738   -0.2780527365
C        4.0905543878   -1.5311718519    0.2184703920
C        0.7881358277    0.0997543105   -0.6650959684
N        1.8636910394   -1.9180136394    0.4077871300
N        3.1174615021   -2.5535991708    0.0252881293
N       -0.2353402841   -0.0482745589    0.3838622748
O        5.2405849143   -1.6645075811    0.5912771981
H        3.8064198833    0.5567182271   -0.7178100467
H        0.4636221114   -0.2733754071   -1.6522464417
H        1.0337778814    1.1585909732   -0.7834390076
H        1.8353021925   -1.7423561434    1.4152519997
H        3.2865926466   -3.3823232800    0.5981393676
H       -0.5717259523   -1.0102790217    0.3788727452
H       -1.0341175522    0.5428504463    0.1626152093
15   
torsion grid (60,)
C        3.3156160051   -0.2780550242   -0.1893705933
C        2.0010140262   -0.6048206350   -0.2099097715
C        4.0535576592   -1.5654988566    0.2655444940
C        0.7618173281    0.0607946573   -0.6975071383
N        1.8976814115   -1.8800624225    0.5195008336
N        3.0613637525   -2.5189041801   -0.1457755811
N       -0.2622434359    0.0550048410    0.3607141012
O        5.1528035757   -1.7627778238    0.7309540474
H        3.8096254188    0.6061082895   -0.5756277431
H        0.4488753970   -0.4661924641   -1.6172183905
H        0.9948692025    1.0926068496   -0.9755750686
H        2.1202857319   -1.7012048342    1.5009495617
H        3.2252930230   -3.4256365471    0.3067160642
H       -0.5146352413   -0.9131460274    0.5571421753
H       -1.1040036014    0.5132331858    0.0160237224
