35
0 1 C18H13N3O
C                     7.751197701440    -1.339410709256     3.892940236627
C                     6.930319231750    -7.835700438556     4.876332689621
C                     0.588200922359    -1.763898548628     0.825245758627
C                     6.323764903819    -7.109144367015     3.843707758573
C                     7.811793344617    -7.194659938728     5.753060172868
C                     0.657129651366    -0.438989824411     0.384109924831
C                     1.628392653594    -2.280716222281     1.592692998977
C                     6.572939476608    -5.746786327235     3.700167313031
C                     8.079406806265    -5.835306567151     5.597823021808
C                     1.759216388668     0.348927662648     0.721302151480
C                     2.743723241242    -1.490350909615     1.928185111542
C                     7.443833252076    -5.083512393984     4.588042194685
C                     2.821206458533    -0.145875947994     1.493815469856
C                     3.797315983162    -2.116010265261     2.745185479585
C                     5.679316052954    -2.584543841673     3.570476234150
C                     7.789598271249    -3.668487987020     4.480474538578
C                     7.083958659225    -2.610929987966     3.987753732396
C                     3.969764130864     0.776196539932     1.834282213334
N                     8.309866550739    -0.318945614330     3.828510297092
N                     5.127827392264    -1.731496736971     2.751064934735
N                     3.544906550084    -3.146441788521     3.535093577849
O                     4.797873113917    -3.461433708239     4.091305743115
H                     6.727174186111    -8.897491543081     4.987025872713
H                    -0.263738439812    -2.388151409457     0.570320384251
H                     5.657101008438    -7.608858742172     3.146458748650
H                     8.296741130253    -7.754699563382     6.547709466102
H                    -0.144154783241    -0.019132730142    -0.218675719425
H                     1.593650767394    -3.309277553902     1.938025410488
H                     6.111509733826    -5.206278781597     2.882010332942
H                     8.774667263481    -5.341233242227     6.272486277411
H                     1.799496717640     1.380961026491     0.381629618326
H                     8.783935834077    -3.418166957095     4.845179376340
H                     4.192284677273     0.772790459065     2.904700409256
H                     4.890602630453     0.473772324962     1.329618322015
H                     3.729283923771     1.800182748268     1.536870655951
