
  -OEChem-05262117483D

 35 37  0     0  0  0  0  0  0999 V2000
    7.9870   -2.2746    2.4202 C   0  0  0  0  0  0  0  0  0  0  0  0
    6.6903   -1.8602    8.8997 C   0  0  0  0  0  0  0  0  0  0  0  0
    0.4222   -0.4913    1.6878 C   0  0  0  0  0  0  0  0  0  0  0  0
    6.0069   -1.1447    7.9081 C   0  0  0  0  0  0  0  0  0  0  0  0
    7.7560   -2.6943    8.5462 C   0  0  0  0  0  0  0  0  0  0  0  0
    0.5493   -0.3520    0.3025 C   0  0  0  0  0  0  0  0  0  0  0  0
    1.5150   -0.9285    2.4313 C   0  0  0  0  0  0  0  0  0  0  0  0
    6.3655   -1.2786    6.5693 C   0  0  0  0  0  0  0  0  0  0  0  0
    8.1305   -2.8130    7.2085 C   0  0  0  0  0  0  0  0  0  0  0  0
    1.7621   -0.6570   -0.3180 C   0  0  0  0  0  0  0  0  0  0  0  0
    2.7408   -1.2301    1.8089 C   0  0  0  0  0  0  0  0  0  0  0  0
    7.4247   -2.1304    6.1963 C   0  0  0  0  0  0  0  0  0  0  0  0
    2.8793   -1.1001    0.4066 C   0  0  0  0  0  0  0  0  0  0  0  0
    3.8442   -1.6882    2.6700 C   0  0  0  0  0  0  0  0  0  0  0  0
    5.7783   -2.0432    3.4288 C   0  0  0  0  0  0  0  0  0  0  0  0
    7.8882   -2.2939    4.8209 C   0  0  0  0  0  0  0  0  0  0  0  0
    7.2218   -2.1899    3.6360 C   0  0  0  0  0  0  0  0  0  0  0  0
    4.1514   -1.4303   -0.3403 C   0  0  0  0  0  0  0  0  0  0  0  0
    8.6254   -2.3497    1.4484 N   0  0  0  0  0  0  0  0  0  0  0  0
    5.1901   -1.5455    2.3756 N   0  0  0  0  0  0  0  0  0  0  0  0
    3.6207   -2.2596    3.8418 N   0  0  0  0  0  0  0  0  0  0  0  0
    4.9090   -2.5018    4.3514 O   0  0  0  0  0  0  0  0  0  0  0  0
    6.4019   -1.7562    9.9422 H   0  0  0  0  0  0  0  0  0  0  0  0
   -0.5160   -0.2575    2.1834 H   0  0  0  0  0  0  0  0  0  0  0  0
    5.1942   -0.4776    8.1816 H   0  0  0  0  0  0  0  0  0  0  0  0
    8.2996   -3.2415    9.3113 H   0  0  0  0  0  0  0  0  0  0  0  0
   -0.2924   -0.0089   -0.2938 H   0  0  0  0  0  0  0  0  0  0  0  0
    1.4351   -1.0360    3.5085 H   0  0  0  0  0  0  0  0  0  0  0  0
    5.8396   -0.7002    5.8187 H   0  0  0  0  0  0  0  0  0  0  0  0
    8.9673   -3.4522    6.9366 H   0  0  0  0  0  0  0  0  0  0  0  0
    1.8486   -0.5547   -1.3970 H   0  0  0  0  0  0  0  0  0  0  0  0
    8.9472   -2.5264    4.7259 H   0  0  0  0  0  0  0  0  0  0  0  0
    4.9475   -0.7172   -0.1124 H   0  0  0  0  0  0  0  0  0  0  0  0
    4.5382   -2.4168   -0.0712 H   0  0  0  0  0  0  0  0  0  0  0  0
    3.9681   -1.4156   -1.4178 H   0  0  0  0  0  0  0  0  0  0  0  0
  1 17  1  0  0  0  0
  1 19  3  0  0  0  0
  2  4  1  0  0  0  0
  2  5  2  0  0  0  0
  2 23  1  0  0  0  0
  3  6  1  0  0  0  0
  3  7  2  0  0  0  0
  3 24  1  0  0  0  0
  4  8  2  0  0  0  0
  4 25  1  0  0  0  0
  5  9  1  0  0  0  0
  5 26  1  0  0  0  0
  6 10  2  0  0  0  0
  6 27  1  0  0  0  0
  7 11  1  0  0  0  0
  7 28  1  0  0  0  0
  8 12  1  0  0  0  0
  8 29  1  0  0  0  0
  9 12  2  0  0  0  0
  9 30  1  0  0  0  0
 10 13  1  0  0  0  0
 10 31  1  0  0  0  0
 11 13  2  0  0  0  0
 11 14  1  0  0  0  0
 12 16  1  0  0  0  0
 13 18  1  0  0  0  0
 14 20  1  0  0  0  0
 14 21  2  0  0  0  0
 15 17  1  0  0  0  0
 15 20  2  0  0  0  0
 15 22  1  0  0  0  0
 16 17  2  0  0  0  0
 16 32  1  0  0  0  0
 18 33  1  0  0  0  0
 18 34  1  0  0  0  0
 18 35  1  0  0  0  0
 21 22  1  0  0  0  0
M  END
$$$$
