
  -OEChem-05262117483D

 35 37  0     0  0  0  0  0  0999 V2000
    7.7512   -1.3394    3.8929 C   0  0  0  0  0  0  0  0  0  0  0  0
    6.9303   -7.8357    4.8763 C   0  0  0  0  0  0  0  0  0  0  0  0
    0.5882   -1.7639    0.8252 C   0  0  0  0  0  0  0  0  0  0  0  0
    6.3238   -7.1091    3.8437 C   0  0  0  0  0  0  0  0  0  0  0  0
    7.8118   -7.1947    5.7531 C   0  0  0  0  0  0  0  0  0  0  0  0
    0.6571   -0.4390    0.3841 C   0  0  0  0  0  0  0  0  0  0  0  0
    1.6284   -2.2807    1.5927 C   0  0  0  0  0  0  0  0  0  0  0  0
    6.5729   -5.7468    3.7002 C   0  0  0  0  0  0  0  0  0  0  0  0
    8.0794   -5.8353    5.5978 C   0  0  0  0  0  0  0  0  0  0  0  0
    1.7592    0.3489    0.7213 C   0  0  0  0  0  0  0  0  0  0  0  0
    2.7437   -1.4904    1.9282 C   0  0  0  0  0  0  0  0  0  0  0  0
    7.4438   -5.0835    4.5880 C   0  0  0  0  0  0  0  0  0  0  0  0
    2.8212   -0.1459    1.4938 C   0  0  0  0  0  0  0  0  0  0  0  0
    3.7973   -2.1160    2.7452 C   0  0  0  0  0  0  0  0  0  0  0  0
    5.6793   -2.5845    3.5705 C   0  0  0  0  0  0  0  0  0  0  0  0
    7.7896   -3.6685    4.4805 C   0  0  0  0  0  0  0  0  0  0  0  0
    7.0840   -2.6109    3.9878 C   0  0  0  0  0  0  0  0  0  0  0  0
    3.9698    0.7762    1.8343 C   0  0  0  0  0  0  0  0  0  0  0  0
    8.3099   -0.3189    3.8285 N   0  0  0  0  0  0  0  0  0  0  0  0
    5.1278   -1.7315    2.7511 N   0  0  0  0  0  0  0  0  0  0  0  0
    3.5449   -3.1464    3.5351 N   0  0  0  0  0  0  0  0  0  0  0  0
    4.7979   -3.4614    4.0913 O   0  0  0  0  0  0  0  0  0  0  0  0
    6.7272   -8.8975    4.9870 H   0  0  0  0  0  0  0  0  0  0  0  0
   -0.2637   -2.3882    0.5703 H   0  0  0  0  0  0  0  0  0  0  0  0
    5.6571   -7.6089    3.1465 H   0  0  0  0  0  0  0  0  0  0  0  0
    8.2967   -7.7547    6.5477 H   0  0  0  0  0  0  0  0  0  0  0  0
   -0.1442   -0.0191   -0.2187 H   0  0  0  0  0  0  0  0  0  0  0  0
    1.5937   -3.3093    1.9380 H   0  0  0  0  0  0  0  0  0  0  0  0
    6.1115   -5.2063    2.8820 H   0  0  0  0  0  0  0  0  0  0  0  0
    8.7747   -5.3412    6.2725 H   0  0  0  0  0  0  0  0  0  0  0  0
    1.7995    1.3810    0.3816 H   0  0  0  0  0  0  0  0  0  0  0  0
    8.7839   -3.4182    4.8452 H   0  0  0  0  0  0  0  0  0  0  0  0
    4.1923    0.7728    2.9047 H   0  0  0  0  0  0  0  0  0  0  0  0
    4.8906    0.4738    1.3296 H   0  0  0  0  0  0  0  0  0  0  0  0
    3.7293    1.8002    1.5369 H   0  0  0  0  0  0  0  0  0  0  0  0
  1 17  1  0  0  0  0
  1 19  3  0  0  0  0
  2  4  1  0  0  0  0
  2  5  2  0  0  0  0
  2 23  1  0  0  0  0
  3  6  1  0  0  0  0
  3  7  2  0  0  0  0
  3 24  1  0  0  0  0
  4  8  2  0  0  0  0
  4 25  1  0  0  0  0
  5  9  1  0  0  0  0
  5 26  1  0  0  0  0
  6 10  2  0  0  0  0
  6 27  1  0  0  0  0
  7 11  1  0  0  0  0
  7 28  1  0  0  0  0
  8 12  1  0  0  0  0
  8 29  1  0  0  0  0
  9 12  2  0  0  0  0
  9 30  1  0  0  0  0
 10 13  1  0  0  0  0
 10 31  1  0  0  0  0
 11 13  2  0  0  0  0
 11 14  1  0  0  0  0
 12 16  1  0  0  0  0
 13 18  1  0  0  0  0
 14 20  1  0  0  0  0
 14 21  2  0  0  0  0
 15 17  1  0  0  0  0
 15 20  2  0  0  0  0
 15 22  1  0  0  0  0
 16 17  2  0  0  0  0
 16 32  1  0  0  0  0
 18 33  1  0  0  0  0
 18 34  1  0  0  0  0
 18 35  1  0  0  0  0
 21 22  1  0  0  0  0
M  END
$$$$
