41
0 1 C15H20N2O3S
C                     0.485745340361    -6.078233732000     2.789981341197
C                     0.200008739313    -4.795181067735     3.271084093470
C                     0.271397592006    -6.373127178459     1.440436438556
C                    -0.297172951379    -3.813873165485     2.410458435556
C                    -0.225766836925    -5.388195274875     0.580638408507
C                    -0.514986323621    -4.103973748112     1.055988438280
C                     0.044576131359    -2.076740072083    -0.347577144196
C                     0.464526323775     1.216074540666    -1.932014248422
C                    -2.136216124451     0.668269958798    -0.594397947336
C                     0.699621062645    -0.294226799593    -1.896016868123
C                    -1.703309551917    -0.600668501487    -1.389574639745
C                     1.435375075498     1.608657005397     0.431935161928
C                     0.257272968527     1.881196323694    -0.565356876643
C                    -1.065995454506     1.487638691199     0.145135189859
C                    -1.046016099037    -3.038986847159     0.126709429887
N                     1.108297520887     0.507218494303     1.348471540754
N                    -0.331901343560    -1.021282758385    -1.149759200939
O                     1.231539490642    -2.239056450032    -0.046959693685
O                    -1.134600030722    -0.621469139987     1.957380590854
O                    -0.633843710929     1.731281356555     2.771934556777
S                    -0.521182136783     0.696809327162     1.740235923977
H                     0.871336024738    -6.841232751052     3.461687845595
H                     0.365131523931    -4.558781081525     4.319400827473
H                     0.490391399852    -7.366846741682     1.057416862201
H                    -0.513119852098    -2.816003556447     2.781544510174
H                    -0.386375597058    -5.621996625266    -0.470228478100
H                     1.337700027504     1.672260856972    -2.413645114260
H                    -0.387616305946     1.454918362487    -2.578303275994
H                    -2.643273711840     1.354489264618    -1.282333549478
H                    -2.884239349064     0.382306266642     0.150931643563
H                     0.729680164456    -0.673665391429    -2.927384447659
H                     1.659828484003    -0.533819481252    -1.441783575564
H                    -2.381779517870    -1.416863996285    -1.152808912705
H                    -1.815861681633    -0.414424740945    -2.463121426589
H                     2.355664410853     1.355265906259    -0.098050022966
H                     1.628572637347     2.500448803847     1.032884455427
H                     0.224917528669     2.960191460889    -0.742747502451
H                    -1.556923683471     2.390349590423     0.514140920693
H                    -1.495386189528    -3.500286840982    -0.761236096925
H                    -1.827743096457    -2.466075484283     0.628090977846
H                     1.282967858325    -0.429131173600     0.966327271132
