
  -OEChem-05262117483D

 23 24  0     0  0  0  0  0  0999 V2000
   -4.2953    4.3661    3.1255 C   0  0  0  0  0  0  0  0  0  0  0  0
   -3.1248    3.8429    3.7770 C   0  0  0  0  0  0  0  0  0  0  0  0
   -4.6625    5.5821    3.6207 C   0  0  0  0  0  0  0  0  0  0  0  0
   -2.6514    4.6897    4.7534 C   0  0  0  0  0  0  0  0  0  0  0  0
   -2.5062    2.5303    3.4613 C   0  0  0  0  0  0  0  0  0  0  0  0
   -0.6851    1.2147    0.7579 C   0  0  0  0  0  0  0  0  0  0  0  0
   -1.8567    0.8981    1.6974 C   0  0  0  0  0  0  0  0  0  0  0  0
   -1.1953    2.2872   -0.1996 C   0  0  0  0  0  0  0  0  0  0  0  0
   -2.4405    2.1911    2.0969 N   0  0  0  0  0  0  0  0  0  0  0  0
   -2.1192    1.7505    4.3195 O   0  0  0  0  0  0  0  0  0  0  0  0
   -3.5277    3.6037    0.1596 O   0  0  0  0  0  0  0  0  0  0  0  0
   -1.4725    4.5114    1.3426 O   0  0  0  0  0  0  0  0  0  0  0  0
   -3.5962    6.1439    4.8852 S   0  0  0  0  0  0  0  0  0  0  0  0
   -2.2432    3.3811    0.8238 S   0  0  0  0  0  0  0  0  0  0  0  0
   -6.0144    6.5416    3.1337 Cl  0  0  0  0  0  0  0  0  0  0  0  0
   -1.2541    4.4975    5.7408 Cl  0  0  0  0  0  0  0  0  0  0  0  0
   -4.8276    3.8585    2.3306 H   0  0  0  0  0  0  0  0  0  0  0  0
    0.1617    1.5939    1.3367 H   0  0  0  0  0  0  0  0  0  0  0  0
   -0.3610    0.3254    0.2112 H   0  0  0  0  0  0  0  0  0  0  0  0
   -2.6204    0.2998    1.1883 H   0  0  0  0  0  0  0  0  0  0  0  0
   -1.5409    0.3802    2.6017 H   0  0  0  0  0  0  0  0  0  0  0  0
   -0.4242    2.9233   -0.6365 H   0  0  0  0  0  0  0  0  0  0  0  0
   -1.8483    1.8873   -0.9779 H   0  0  0  0  0  0  0  0  0  0  0  0
  1  2  1  0  0  0  0
  1  3  2  0  0  0  0
  1 17  1  0  0  0  0
  2  4  2  0  0  0  0
  2  5  1  0  0  0  0
  3 13  1  0  0  0  0
  3 15  1  0  0  0  0
  4 13  1  0  0  0  0
  4 16  1  0  0  0  0
  5  9  1  0  0  0  0
  5 10  2  0  0  0  0
  6  7  1  0  0  0  0
  6  8  1  0  0  0  0
  6 18  1  0  0  0  0
  6 19  1  0  0  0  0
  7  9  1  0  0  0  0
  7 20  1  0  0  0  0
  7 21  1  0  0  0  0
  8 14  1  0  0  0  0
  8 22  1  0  0  0  0
  8 23  1  0  0  0  0
  9 14  1  0  0  0  0
 11 14  2  0  0  0  0
 12 14  2  0  0  0  0
M  END
$$$$
