
  -OEChem-05262117483D

 35 37  0     0  0  0  0  0  0999 V2000
    7.9105   -2.0988    2.1265 C   0  0  0  0  0  0  0  0  0  0  0  0
    6.9035   -8.4064    3.8796 C   0  0  0  0  0  0  0  0  0  0  0  0
    0.2816   -1.0227    2.2323 C   0  0  0  0  0  0  0  0  0  0  0  0
    6.0866   -7.6996    2.9881 C   0  0  0  0  0  0  0  0  0  0  0  0
    8.0362   -7.7908    4.4226 C   0  0  0  0  0  0  0  0  0  0  0  0
    0.2757   -0.2570    1.0625 C   0  0  0  0  0  0  0  0  0  0  0  0
    1.4293   -1.7307    2.5771 C   0  0  0  0  0  0  0  0  0  0  0  0
    6.3802   -6.3788    2.6589 C   0  0  0  0  0  0  0  0  0  0  0  0
    8.3444   -6.4760    4.0768 C   0  0  0  0  0  0  0  0  0  0  0  0
    1.4137   -0.2146    0.2550 C   0  0  0  0  0  0  0  0  0  0  0  0
    2.5799   -1.6867    1.7667 C   0  0  0  0  0  0  0  0  0  0  0  0
    7.5073   -5.7391    3.2129 C   0  0  0  0  0  0  0  0  0  0  0  0
    2.5840   -0.9186    0.5781 C   0  0  0  0  0  0  0  0  0  0  0  0
    3.7471   -2.4693    2.2077 C   0  0  0  0  0  0  0  0  0  0  0  0
    5.7305   -3.1261    2.4932 C   0  0  0  0  0  0  0  0  0  0  0  0
    7.9130   -4.3746    2.8859 C   0  0  0  0  0  0  0  0  0  0  0  0
    7.1865   -3.2817    2.5131 C   0  0  0  0  0  0  0  0  0  0  0  0
    3.7682   -0.8315   -0.3576 C   0  0  0  0  0  0  0  0  0  0  0  0
    8.5237   -1.1577    1.8173 N   0  0  0  0  0  0  0  0  0  0  0  0
    5.0588   -2.2120    1.8466 N   0  0  0  0  0  0  0  0  0  0  0  0
    3.6222   -3.4943    3.0350 N   0  0  0  0  0  0  0  0  0  0  0  0
    4.9449   -3.9260    3.2413 O   0  0  0  0  0  0  0  0  0  0  0  0
    6.6655   -9.4349    4.1375 H   0  0  0  0  0  0  0  0  0  0  0  0
   -0.5960   -1.0627    2.8717 H   0  0  0  0  0  0  0  0  0  0  0  0
    5.2192   -8.1820    2.5463 H   0  0  0  0  0  0  0  0  0  0  0  0
    8.6825   -8.3373    5.1037 H   0  0  0  0  0  0  0  0  0  0  0  0
   -0.6102    0.3056    0.7792 H   0  0  0  0  0  0  0  0  0  0  0  0
    1.4532   -2.3224    3.4867 H   0  0  0  0  0  0  0  0  0  0  0  0
    5.7475   -5.8553    1.9522 H   0  0  0  0  0  0  0  0  0  0  0  0
    9.2329   -6.0035    4.4890 H   0  0  0  0  0  0  0  0  0  0  0  0
    1.3980    0.3788   -0.6559 H   0  0  0  0  0  0  0  0  0  0  0  0
    8.9861   -4.2018    2.9408 H   0  0  0  0  0  0  0  0  0  0  0  0
    4.6058   -0.3024    0.1033 H   0  0  0  0  0  0  0  0  0  0  0  0
    4.1437   -1.8212   -0.6318 H   0  0  0  0  0  0  0  0  0  0  0  0
    3.4840   -0.3061   -1.2731 H   0  0  0  0  0  0  0  0  0  0  0  0
  1 17  1  0  0  0  0
  1 19  3  0  0  0  0
  2  4  1  0  0  0  0
  2  5  2  0  0  0  0
  2 23  1  0  0  0  0
  3  6  1  0  0  0  0
  3  7  2  0  0  0  0
  3 24  1  0  0  0  0
  4  8  2  0  0  0  0
  4 25  1  0  0  0  0
  5  9  1  0  0  0  0
  5 26  1  0  0  0  0
  6 10  2  0  0  0  0
  6 27  1  0  0  0  0
  7 11  1  0  0  0  0
  7 28  1  0  0  0  0
  8 12  1  0  0  0  0
  8 29  1  0  0  0  0
  9 12  2  0  0  0  0
  9 30  1  0  0  0  0
 10 13  1  0  0  0  0
 10 31  1  0  0  0  0
 11 13  2  0  0  0  0
 11 14  1  0  0  0  0
 12 16  1  0  0  0  0
 13 18  1  0  0  0  0
 14 20  1  0  0  0  0
 14 21  2  0  0  0  0
 15 17  1  0  0  0  0
 15 20  2  0  0  0  0
 15 22  1  0  0  0  0
 16 17  2  0  0  0  0
 16 32  1  0  0  0  0
 18 33  1  0  0  0  0
 18 34  1  0  0  0  0
 18 35  1  0  0  0  0
 21 22  1  0  0  0  0
M  END
$$$$
