
  -OEChem-05262117483D

 20 20  0     0  0  0  0  0  0999 V2000
    2.1502    0.0255    2.4819 C   0  0  0  0  0  0  0  0  0  0  0  0
    0.7886   -0.2120    2.2571 C   0  0  0  0  0  0  0  0  0  0  0  0
    2.8245   -0.6623    3.4844 C   0  0  0  0  0  0  0  0  0  0  0  0
    0.1335   -1.1443    3.0911 C   0  0  0  0  0  0  0  0  0  0  0  0
    2.0879   -1.5898    4.2437 C   0  0  0  0  0  0  0  0  0  0  0  0
    0.0871    0.5049    1.1477 C   0  0  0  0  0  0  0  0  0  0  0  0
    0.1974    2.3135   -0.3670 C   0  0  0  0  0  0  0  0  0  0  0  0
   -1.3317   -1.4514    3.0306 C   0  0  0  0  0  0  0  0  0  0  0  0
    0.8001   -1.8039    4.0505 N   0  0  0  0  0  0  0  0  0  0  0  0
   -0.9798    0.1770    0.6616 O   0  0  0  0  0  0  0  0  0  0  0  0
    0.7969    1.5724    0.7196 O   0  0  0  0  0  0  0  0  0  0  0  0
    4.5157   -0.3607    3.7546 Cl  0  0  0  0  0  0  0  0  0  0  0  0
    2.8567   -2.5201    5.5023 Cl  0  0  0  0  0  0  0  0  0  0  0  0
   -2.3418   -0.0405    4.0150 Br  0  0  0  0  0  0  0  0  0  0  0  0
    2.6822    0.7443    1.8702 H   0  0  0  0  0  0  0  0  0  0  0  0
    0.8850    3.1338   -0.5695 H   0  0  0  0  0  0  0  0  0  0  0  0
   -0.7821    2.6921   -0.0682 H   0  0  0  0  0  0  0  0  0  0  0  0
    0.0866    1.6735   -1.2450 H   0  0  0  0  0  0  0  0  0  0  0  0
   -1.5378   -2.3780    3.5590 H   0  0  0  0  0  0  0  0  0  0  0  0
   -1.7371   -1.4379    2.0255 H   0  0  0  0  0  0  0  0  0  0  0  0
  1  2  1  0  0  0  0
  1  3  2  0  0  0  0
  1 15  1  0  0  0  0
  2  4  2  0  0  0  0
  2  6  1  0  0  0  0
  3  5  1  0  0  0  0
  3 12  1  0  0  0  0
  4  8  1  0  0  0  0
  4  9  1  0  0  0  0
  5  9  2  0  0  0  0
  5 13  1  0  0  0  0
  6 10  2  0  0  0  0
  6 11  1  0  0  0  0
  7 11  1  0  0  0  0
  7 16  1  0  0  0  0
  7 17  1  0  0  0  0
  7 18  1  0  0  0  0
  8 14  1  0  0  0  0
  8 19  1  0  0  0  0
  8 20  1  0  0  0  0
M  END
$$$$
