31
0 1 BrC13H14NO2
C                     4.135248417602     1.575371070916    -1.206715623645
C                     4.438581012880     0.443533985538    -1.957315872481
C                     3.205932710769     2.521431706854    -1.673322651045
C                     3.868850068540    -0.786529031893    -4.177995416181
C                     2.974561701971    -0.494088184220    -5.160223012548
C                     3.750008514214     0.232442539732    -3.160091978171
C                     2.746986248466     1.146994752732    -3.594519554178
C                     2.530854675484     2.334074176453    -2.880577204637
C                     0.970651426833     0.915768579736    -5.355749536218
C                    -0.812033955253     2.005934150422    -7.534186598892
C                     0.106722226720     0.011249450232    -8.769431213735
C                    -1.355431030716    -0.354775922801    -6.749714595235
C                    -0.322444735135     0.561632485100    -7.409096805818
N                     2.258798982824     0.674109683323    -4.826198991026
O                     0.056148496108     1.380627401427    -4.711892538313
O                     0.947082635885     0.527975200511    -6.641403752070
Br                    1.495596712098     3.800447188219    -3.546124043968
H                     4.646269076622     1.761783416734    -0.266235944575
H                     5.200274260705    -0.258082419156    -1.628631270182
H                     3.033342119145     3.433099872305    -1.111084194537
H                     4.548487002537    -1.628967244793    -4.169229849691
H                     2.733681839080    -1.014034655173    -6.074679846646
H                    -1.122381228384     2.407494720378    -6.569397450116
H                    -0.021556531103     2.641066540153    -7.945621700267
H                    -1.665724184893     2.037048749097    -8.218889642666
H                     0.493704594243    -1.007449854427    -8.671116856169
H                     0.887042671114     0.638307437120    -9.210052750783
H                    -0.749406589093    -0.008012520860    -9.449790765672
H                    -0.942439470994    -1.359185098517    -6.611573752240
H                    -1.677860991223     0.033087371317    -5.783044459605
H                    -2.230857415372    -0.435496455763    -7.401916183284
