
  -OEChem-05262117483D

 44 46  0     0  0  0  0  0  0999 V2000
   -2.6693    6.2288   -3.6396 C   0  0  0  0  0  0  0  0  0  0  0  0
   -1.9663    4.0130   -2.9311 C   0  0  0  0  0  0  0  0  0  0  0  0
   -1.7449    5.1397   -3.6944 C   0  0  0  0  0  0  0  0  0  0  0  0
   -3.7873    6.1497   -2.8532 C   0  0  0  0  0  0  0  0  0  0  0  0
   -3.1381    3.8946   -2.0868 C   0  0  0  0  0  0  0  0  0  0  0  0
    1.6455    0.0735    1.6681 C   0  0  0  0  0  0  0  0  0  0  0  0
   -1.0817    2.7997   -3.0787 C   0  0  0  0  0  0  0  0  0  0  0  0
   -0.0882    0.2188   -1.0556 C   0  0  0  0  0  0  0  0  0  0  0  0
   -0.8407    2.1669    0.3583 C   0  0  0  0  0  0  0  0  0  0  0  0
    0.4817    1.2117   -2.0744 C   0  0  0  0  0  0  0  0  0  0  0  0
   -0.2828    3.1084   -0.7172 C   0  0  0  0  0  0  0  0  0  0  0  0
   -0.6583   -0.1689    1.4044 C   0  0  0  0  0  0  0  0  0  0  0  0
   -0.1196    0.8228    0.3544 C   0  0  0  0  0  0  0  0  0  0  0  0
   -0.5563    5.2409   -4.6181 C   0  0  0  0  0  0  0  0  0  0  0  0
   -4.8272    7.2264   -2.7325 C   0  0  0  0  0  0  0  0  0  0  0  0
    0.5775   -1.6901    3.0197 C   0  0  0  0  0  0  0  0  0  0  0  0
   -3.9857    5.0122   -2.1173 N   0  0  0  0  0  0  0  0  0  0  0  0
    0.5684   -0.7451    1.9213 N   0  0  0  0  0  0  0  0  0  0  0  0
   -0.2799    2.4610   -2.0275 N   0  0  0  0  0  0  0  0  0  0  0  0
   -3.4332    2.9284   -1.3678 O   0  0  0  0  0  0  0  0  0  0  0  0
    2.7688   -0.0128    2.1213 O   0  0  0  0  0  0  0  0  0  0  0  0
   -1.0834    2.1799   -4.1476 O   0  0  0  0  0  0  0  0  0  0  0  0
    1.2637    1.0452    0.7802 O   0  0  0  0  0  0  0  0  0  0  0  0
   -2.4939    7.1234   -4.2269 H   0  0  0  0  0  0  0  0  0  0  0  0
   -1.1108   -0.0441   -1.3478 H   0  0  0  0  0  0  0  0  0  0  0  0
    0.5104   -0.6987   -1.0462 H   0  0  0  0  0  0  0  0  0  0  0  0
   -0.7323    2.6298    1.3454 H   0  0  0  0  0  0  0  0  0  0  0  0
   -1.9043    2.0053    0.1625 H   0  0  0  0  0  0  0  0  0  0  0  0
    1.5305    1.4271   -1.8422 H   0  0  0  0  0  0  0  0  0  0  0  0
    0.4188    0.8158   -3.0869 H   0  0  0  0  0  0  0  0  0  0  0  0
   -0.8676    4.0259   -0.7614 H   0  0  0  0  0  0  0  0  0  0  0  0
    0.7493    3.3833   -0.4681 H   0  0  0  0  0  0  0  0  0  0  0  0
   -1.2271    0.3432    2.1960 H   0  0  0  0  0  0  0  0  0  0  0  0
   -1.3047   -0.9284    0.9530 H   0  0  0  0  0  0  0  0  0  0  0  0
   -0.3019    6.2850   -4.8193 H   0  0  0  0  0  0  0  0  0  0  0  0
   -0.7884    4.7510   -5.5695 H   0  0  0  0  0  0  0  0  0  0  0  0
    0.3212    4.7360   -4.2081 H   0  0  0  0  0  0  0  0  0  0  0  0
   -5.8093    6.8600   -3.0531 H   0  0  0  0  0  0  0  0  0  0  0  0
   -4.5641    8.0844   -3.3531 H   0  0  0  0  0  0  0  0  0  0  0  0
   -4.9207    7.5689   -1.6954 H   0  0  0  0  0  0  0  0  0  0  0  0
    0.0798   -1.2779    3.9089 H   0  0  0  0  0  0  0  0  0  0  0  0
    1.6153   -1.9156    3.2686 H   0  0  0  0  0  0  0  0  0  0  0  0
    0.0674   -2.6140    2.7281 H   0  0  0  0  0  0  0  0  0  0  0  0
   -4.8091    4.9224   -1.5290 H   0  0  0  0  0  0  0  0  0  0  0  0
  1  3  1  0  0  0  0
  1  4  2  0  0  0  0
  1 24  1  0  0  0  0
  2  3  2  0  0  0  0
  2  5  1  0  0  0  0
  2  7  1  0  0  0  0
  3 14  1  0  0  0  0
  4 15  1  0  0  0  0
  4 17  1  0  0  0  0
  5 17  1  0  0  0  0
  5 20  2  0  0  0  0
  6 18  1  0  0  0  0
  6 21  2  0  0  0  0
  6 23  1  0  0  0  0
  7 19  1  0  0  0  0
  7 22  2  0  0  0  0
  8 10  1  0  0  0  0
  8 13  1  0  0  0  0
  8 25  1  0  0  0  0
  8 26  1  0  0  0  0
  9 11  1  0  0  0  0
  9 13  1  0  0  0  0
  9 27  1  0  0  0  0
  9 28  1  0  0  0  0
 10 19  1  0  0  0  0
 10 29  1  0  0  0  0
 10 30  1  0  0  0  0
 11 19  1  0  0  0  0
 11 31  1  0  0  0  0
 11 32  1  0  0  0  0
 12 13  1  0  0  0  0
 12 18  1  0  0  0  0
 12 33  1  0  0  0  0
 12 34  1  0  0  0  0
 13 23  1  0  0  0  0
 14 35  1  0  0  0  0
 14 36  1  0  0  0  0
 14 37  1  0  0  0  0
 15 38  1  0  0  0  0
 15 39  1  0  0  0  0
 15 40  1  0  0  0  0
 16 18  1  0  0  0  0
 16 41  1  0  0  0  0
 16 42  1  0  0  0  0
 16 43  1  0  0  0  0
 17 44  1  0  0  0  0
M  END
$$$$
