
  -OEChem-05262117483D

 36 38  0     0  0  0  0  0  0999 V2000
   -3.1294    8.3343    2.4575 C   0  0  0  0  0  0  0  0  0  0  0  0
    0.0705    2.3203   -0.5453 C   0  0  0  0  0  0  0  0  0  0  0  0
   -0.6455    1.1137   -0.3448 C   0  0  0  0  0  0  0  0  0  0  0  0
   -0.5842    3.4619   -0.9621 C   0  0  0  0  0  0  0  0  0  0  0  0
   -2.0054    1.0710   -0.5678 C   0  0  0  0  0  0  0  0  0  0  0  0
   -4.1090    4.4407   -1.7867 C   0  0  0  0  0  0  0  0  0  0  0  0
   -3.1274    7.9477    1.0965 C   0  0  0  0  0  0  0  0  0  0  0  0
   -1.9902    3.4546   -1.1936 C   0  0  0  0  0  0  0  0  0  0  0  0
   -2.7528    4.5924   -1.6036 C   0  0  0  0  0  0  0  0  0  0  0  0
   -2.7100    2.2293   -0.9937 C   0  0  0  0  0  0  0  0  0  0  0  0
   -4.7348    3.1800   -1.5725 C   0  0  0  0  0  0  0  0  0  0  0  0
   -3.9321    8.4357    0.0174 C   0  0  0  0  0  0  0  0  0  0  0  0
   -2.3210    6.9498    0.5309 C   0  0  0  0  0  0  0  0  0  0  0  0
   -6.2214    3.0375   -1.7816 C   0  0  0  0  0  0  0  0  0  0  0  0
   -4.9684    9.5123    0.0734 C   0  0  0  0  0  0  0  0  0  0  0  0
   -2.1456    5.9742   -1.7820 C   0  0  0  0  0  0  0  0  0  0  0  0
   -3.1147    8.6320    3.5876 N   0  0  0  0  0  0  0  0  0  0  0  0
   -4.0571    2.1127   -1.1875 N   0  0  0  0  0  0  0  0  0  0  0  0
   -3.6485    7.7942   -1.1082 N   0  0  0  0  0  0  0  0  0  0  0  0
   -2.6401    6.9103   -0.7842 N   0  0  0  0  0  0  0  0  0  0  0  0
   -1.3165    6.1779    1.0913 N   0  0  0  0  0  0  0  0  0  0  0  0
    1.1432    2.3456   -0.3738 H   0  0  0  0  0  0  0  0  0  0  0  0
   -0.1173    0.2223   -0.0172 H   0  0  0  0  0  0  0  0  0  0  0  0
   -0.0060    4.3663   -1.1209 H   0  0  0  0  0  0  0  0  0  0  0  0
   -2.5798    0.1605   -0.4252 H   0  0  0  0  0  0  0  0  0  0  0  0
   -4.7135    5.2962   -2.0787 H   0  0  0  0  0  0  0  0  0  0  0  0
   -6.4954    3.2841   -2.8137 H   0  0  0  0  0  0  0  0  0  0  0  0
   -6.5319    2.0140   -1.5668 H   0  0  0  0  0  0  0  0  0  0  0  0
   -6.7736    3.7227   -1.1284 H   0  0  0  0  0  0  0  0  0  0  0  0
   -4.5222   10.4684    0.3665 H   0  0  0  0  0  0  0  0  0  0  0  0
   -5.4370    9.6282   -0.9059 H   0  0  0  0  0  0  0  0  0  0  0  0
   -5.7410    9.2736    0.8115 H   0  0  0  0  0  0  0  0  0  0  0  0
   -1.0563    5.9612   -1.7305 H   0  0  0  0  0  0  0  0  0  0  0  0
   -2.4297    6.3933   -2.7483 H   0  0  0  0  0  0  0  0  0  0  0  0
   -1.2577    6.2960    2.0984 H   0  0  0  0  0  0  0  0  0  0  0  0
   -1.3426    5.1922    0.8431 H   0  0  0  0  0  0  0  0  0  0  0  0
  1  7  1  0  0  0  0
  1 17  3  0  0  0  0
  2  3  1  0  0  0  0
  2  4  2  0  0  0  0
  2 22  1  0  0  0  0
  3  5  2  0  0  0  0
  3 23  1  0  0  0  0
  4  8  1  0  0  0  0
  4 24  1  0  0  0  0
  5 10  1  0  0  0  0
  5 25  1  0  0  0  0
  6  9  1  0  0  0  0
  6 11  2  0  0  0  0
  6 26  1  0  0  0  0
  7 12  1  0  0  0  0
  7 13  2  0  0  0  0
  8  9  2  0  0  0  0
  8 10  1  0  0  0  0
  9 16  1  0  0  0  0
 10 18  2  0  0  0  0
 11 14  1  0  0  0  0
 11 18  1  0  0  0  0
 12 15  1  0  0  0  0
 12 19  2  0  0  0  0
 13 20  1  0  0  0  0
 13 21  1  0  0  0  0
 14 27  1  0  0  0  0
 14 28  1  0  0  0  0
 14 29  1  0  0  0  0
 15 30  1  0  0  0  0
 15 31  1  0  0  0  0
 15 32  1  0  0  0  0
 16 20  1  0  0  0  0
 16 33  1  0  0  0  0
 16 34  1  0  0  0  0
 19 20  1  0  0  0  0
 21 35  1  0  0  0  0
 21 36  1  0  0  0  0
M  END
$$$$
