
  -OEChem-05262117483D

 27 28  0     0  0  0  0  0  0999 V2000
    0.3447   -7.1712    2.2875 C   0  0  0  0  0  0  0  0  0  0  0  0
    2.9891   -1.3451    2.0923 C   0  0  0  0  0  0  0  0  0  0  0  0
    1.4121   -1.7986    0.3154 C   0  0  0  0  0  0  0  0  0  0  0  0
    1.9446   -0.9859    2.9441 C   0  0  0  0  0  0  0  0  0  0  0  0
    0.3616   -1.4187    1.1468 C   0  0  0  0  0  0  0  0  0  0  0  0
    1.0095   -6.3624    1.3185 C   0  0  0  0  0  0  0  0  0  0  0  0
    2.7389   -1.7842    0.7829 C   0  0  0  0  0  0  0  0  0  0  0  0
    0.7397   -6.4925   -0.0683 C   0  0  0  0  0  0  0  0  0  0  0  0
    1.3886   -5.6671   -0.9781 C   0  0  0  0  0  0  0  0  0  0  0  0
    0.6354   -1.0333    2.4632 C   0  0  0  0  0  0  0  0  0  0  0  0
    2.3165   -4.7092   -0.4834 C   0  0  0  0  0  0  0  0  0  0  0  0
    1.9632   -5.3923    1.6779 C   0  0  0  0  0  0  0  0  0  0  0  0
    3.8919   -2.1776   -0.0456 C   0  0  0  0  0  0  0  0  0  0  0  0
   -0.1988   -7.8320    3.0786 N   0  0  0  0  0  0  0  0  0  0  0  0
    2.5907   -4.6165    0.8219 N   0  0  0  0  0  0  0  0  0  0  0  0
    4.0197   -3.0241   -1.0095 N   0  0  0  0  0  0  0  0  0  0  0  0
    2.9223   -3.8274   -1.3502 N   0  0  0  0  0  0  0  0  0  0  0  0
   -0.4090   -7.6708   -0.5961 Cl  0  0  0  0  0  0  0  0  0  0  0  0
    1.0850   -5.7659   -2.6915 Cl  0  0  0  0  0  0  0  0  0  0  0  0
    2.3628   -5.1647    3.3602 Cl  0  0  0  0  0  0  0  0  0  0  0  0
   -0.8114   -0.5617    3.6220 Br  0  0  0  0  0  0  0  0  0  0  0  0
    4.0106   -1.3144    2.4629 H   0  0  0  0  0  0  0  0  0  0  0  0
    1.1982   -2.1026   -0.7033 H   0  0  0  0  0  0  0  0  0  0  0  0
    2.1453   -0.6760    3.9643 H   0  0  0  0  0  0  0  0  0  0  0  0
   -0.6600   -1.4294    0.7812 H   0  0  0  0  0  0  0  0  0  0  0  0
    4.8255   -1.6551    0.1673 H   0  0  0  0  0  0  0  0  0  0  0  0
    3.0137   -4.1644   -2.3021 H   0  0  0  0  0  0  0  0  0  0  0  0
  1  6  1  0  0  0  0
  1 14  3  0  0  0  0
  2  4  1  0  0  0  0
  2  7  2  0  0  0  0
  2 22  1  0  0  0  0
  3  5  2  0  0  0  0
  3  7  1  0  0  0  0
  3 23  1  0  0  0  0
  4 10  2  0  0  0  0
  4 24  1  0  0  0  0
  5 10  1  0  0  0  0
  5 25  1  0  0  0  0
  6  8  1  0  0  0  0
  6 12  2  0  0  0  0
  7 13  1  0  0  0  0
  8  9  2  0  0  0  0
  8 18  1  0  0  0  0
  9 11  1  0  0  0  0
  9 19  1  0  0  0  0
 10 21  1  0  0  0  0
 11 15  2  0  0  0  0
 11 17  1  0  0  0  0
 12 15  1  0  0  0  0
 12 20  1  0  0  0  0
 13 16  2  0  0  0  0
 13 26  1  0  0  0  0
 16 17  1  0  0  0  0
 17 27  1  0  0  0  0
M  END
$$$$
