43
1 1 C15H24NO3
C                     5.395265765048    -0.195313799724     5.215582653604
C                     5.159099770417     0.573074693423     4.066632792166
C                     3.012390707474    -0.338713584671     5.595582316161
C                     4.330487968471    -0.664454236561     5.984414009866
C                     3.858850381419     0.887484872758     3.668374261546
C                     2.760875097039     0.420052355369     4.447578115566
C                    -0.957940505565     0.263067485443     2.551353169673
C                    -0.385230113609    -1.174770465462     2.717309747070
C                    -0.831309404488     0.924130283470     3.940783217037
C                     0.164239265055    -1.254681505462     4.164889622878
C                     0.347016422732     0.206764755345     4.595459962695
C                     5.623641519707    -2.551373024402     7.143696596103
C                     4.584392713469     2.084201158539     1.732413684659
C                     5.015460950832    -0.452103348994     8.378151509211
C                     4.580626019499    -1.440397141856     7.281568897539
N                     3.870877547522     0.518757155756     8.571431400450
O                     3.356577101067    -1.964573612010     7.832584722516
O                     1.540450851996     0.779200716000     4.000800077931
O                     3.529278036723     1.611274818600     2.575614669465
H                     6.423189644510    -0.425863398489     5.479531277312
H                     6.005047354283     0.913649748892     3.481171351434
H                     2.178833797412    -0.720643394645     6.170895889570
H                    -0.369365999970     0.822007765609     1.820071333970
H                    -1.992950628805     0.260084635217     2.201165827134
H                    -1.144485902409    -1.942215742565     2.547508755447
H                     0.415093668565    -1.352807475941     1.994887967740
H                    -0.676039465608     2.005078396787     3.899328114657
H                    -1.723690484096     0.734376993208     4.547494885227
H                    -0.568635785643    -1.716993227902     4.836115110482
H                     1.086010926320    -1.838347283873     4.237285997229
H                     0.381601185635     0.355318837452     5.681672140400
H                     5.717461506430    -3.099238234102     8.085409506787
H                     6.605150662759    -2.159583494678     6.867617981868
H                     5.316482486353    -3.247684475185     6.358254562993
H                     4.092510028736     2.622165780134     0.922841895715
H                     5.162845223213     1.249900971458     1.320054063070
H                     5.247699058824     2.767030168847     2.275555014068
H                     5.175262535798    -0.954845395685     9.333697583149
H                     5.895689152999     0.120159168538     8.088347117653
H                     3.033943174496    -0.024294324655     8.827936067169
H                     3.660214084369     0.977333532685     7.669571582225
H                     4.055362000218     1.229393830515     9.287280380774
H                     3.036227468470    -2.692724745374     7.274531729654
