24
0 1 C8H12O3S
C                     0.242418805471     0.997986170902    -0.282889082602
C                     0.287071064263    -0.352238745622    -0.115971720477
C                     1.326618702164     1.863627973682    -0.728009409124
C                    -2.078159198359     0.046925572338     0.208686314216
C                    -0.957103807602    -0.970911919607     0.476489618188
C                    -1.274626056946    -2.371464261211    -0.056097594552
C                     4.718114259991     0.930646042465    -1.816670910007
C                     3.602309667149     1.911034388184    -1.505908100472
O                     1.288352543367     3.077802307777    -0.801373500424
O                     1.322415812712    -1.178005997806    -0.360181854307
O                     2.454010169795     1.137200968463    -1.064056427496
S                    -1.315249477962     1.728069658353     0.210095179747
H                    -2.520191849941    -0.131401416668    -0.777154514729
H                    -2.865418732933     0.009515982109     0.963558319626
H                    -0.780974131710    -1.033097533923     1.561752219140
H                    -1.439105833043    -2.348201085977    -1.138371196238
H                    -2.179368049432    -2.762806567399     0.419933872591
H                    -0.452094448233    -3.061814043873     0.147276812365
H                     4.992681057269     0.351829464092    -0.929238981429
H                     4.423352779745     0.237293237342    -2.610428820105
H                     5.603895584306     1.478374666235    -2.153515879987
H                     3.308624147049     2.493366809362    -2.382768491868
H                     3.875381200133     2.609015737032    -0.710500480420
H                     2.065407117687    -0.626569233525    -0.689455706014
