55
0 1 C20ClH30NO2S
C                    -6.729964860341     8.419327036687     4.057914422992
C                    -6.497576868196     9.579769806915     6.174336165868
C                    -7.514337902568     9.474711699645     3.575951921797
C                    -7.276793496554    10.628015133745     5.694263123654
C                    -6.217536812195     8.468102967102     5.362071828025
C                    -7.783994379840    10.569872359234     4.391651773343
C                     0.923598444498     1.096697358459     0.262247615315
C                     0.342310042331     0.306320758443     1.440778890296
C                     0.900060912048     2.598454508222     0.570764353347
C                    -1.037502479109     0.840130079493     1.831743739671
C                    -0.501623609490     3.043654883380     0.993098266843
C                    -1.344453910952     3.566289214723     4.915885754476
C                    -2.028959026574     3.971777851238     3.610387991195
C                    -3.920799839821     4.138860835247     5.122659389415
C                    -5.139969315737     3.292745544539     4.731915217521
C                    -5.024861323595     4.988189676277     7.273557419158
C                    -2.983661549704     6.153892229850     6.387321812083
C                    -2.246864613237     2.780300234632     2.665188210159
C                    -5.147462274536     6.332323805441     5.149513434198
C                    -4.265259622236     5.394511592271     5.998090213868
N                    -0.978369640496     2.272269310432     2.147157545921
O                    -3.269887126370     4.610948334055     3.936493828278
O                    -5.444906529779     7.497166758261     5.929427793292
S                    -2.705813134039     2.994021437170     5.985328396336
Cl                   -8.769897746947    11.894214234115     3.782018655359
H                    -6.528709247225     7.577240959470     3.406525264840
H                    -6.094472005677     9.604246882920     7.182433950164
H                    -7.910871278439     9.437818544039     2.566069926575
H                    -7.491203343855    11.485416430247     6.324535856805
H                     0.322921978894     0.902070409588    -0.636909409139
H                     1.943702254267     0.763810972688     0.039962129423
H                     0.263081328719    -0.758460525412     1.192971288077
H                     1.009494298830     0.392784499299     2.307129928123
H                     1.600307171108     2.819757513121     1.385436706796
H                     1.218335323296     3.179595370490    -0.302382796270
H                    -1.754684276906     0.641848108919     1.009908755713
H                    -1.405724445576     0.309869293815     2.716103212446
H                    -0.489019391514     4.105952865588     1.255395344352
H                    -1.197888730808     2.933382401461     0.137333853040
H                    -0.642832865374     2.748548728849     4.741274960058
H                    -0.821436333598     4.407450861686     5.375812782151
H                    -1.435411461723     4.739118959807     3.104164683429
H                    -4.823079814167     2.481369171347     4.075699492239
H                    -5.880537581766     3.891621511143     4.195333616441
H                    -5.618642022757     2.850975978699     5.608920545263
H                    -5.192027621263     5.867596023902     7.899694034438
H                    -6.003782689543     4.553276077461     7.050463027690
H                    -4.446800881246     4.262535343871     7.853505563619
H                    -3.245143524972     7.070446240861     6.920279882796
H                    -2.406248682675     6.430726689062     5.501065471845
H                    -2.356805454505     5.543358843844     7.041794718680
H                    -2.940693175131     3.088741400866     1.864399249466
H                    -2.736947920825     1.982129272353     3.229444165366
H                    -6.090563434006     5.846782182430     4.875395246900
H                    -4.616848839874     6.619916500847     4.236099073912
