
  -OEChem-05262117483D

 55 57  0     1  0  0  0  0  0999 V2000
   -1.0118    8.3682    6.8771 C   0  0  0  0  0  0  0  0  0  0  0  0
   -2.7007    9.9198    7.6630 C   0  0  0  0  0  0  0  0  0  0  0  0
   -0.0139    9.2661    7.2756 C   0  0  0  0  0  0  0  0  0  0  0  0
   -1.7084   10.8116    8.0585 C   0  0  0  0  0  0  0  0  0  0  0  0
   -2.3624    8.6918    7.0700 C   0  0  0  0  0  0  0  0  0  0  0  0
   -0.3637   10.4790    7.8621 C   0  0  0  0  0  0  0  0  0  0  0  0
    0.6128    0.6619    0.7539 C   0  0  0  0  0  0  0  0  0  0  0  0
   -0.0047    0.0530    2.0186 C   0  0  0  0  0  0  0  0  0  0  0  0
    0.6642    2.1895    0.8743 C   0  0  0  0  0  0  0  0  0  0  0  0
   -1.3555    0.6984    2.3355 C   0  0  0  0  0  0  0  0  0  0  0  0
   -0.7129    2.7519    1.2327 C   0  0  0  0  0  0  0  0  0  0  0  0
   -1.5548    3.7761    5.0778 C   0  0  0  0  0  0  0  0  0  0  0  0
   -2.1815    4.0664    3.7134 C   0  0  1  0  0  0  0  0  0  0  0  0
   -4.0999    4.5352    5.1227 C   0  0  2  0  0  0  0  0  0  0  0  0
   -5.3461    3.7145    4.7750 C   0  0  0  0  0  0  0  0  0  0  0  0
   -5.2797    6.7769    4.8722 C   0  0  0  0  0  0  0  0  0  0  0  0
   -5.1984    5.6775    7.1380 C   0  0  0  0  0  0  0  0  0  0  0  0
   -2.4666    2.7853    2.9150 C   0  0  0  0  0  0  0  0  0  0  0  0
   -3.1119    6.6263    6.1151 C   0  0  0  0  0  0  0  0  0  0  0  0
   -4.4353    5.8979    5.8200 C   0  0  0  0  0  0  0  0  0  0  0  0
   -1.2252    2.1540    2.4717 N   0  0  0  0  0  0  0  0  0  0  0  0
   -3.3697    4.8363    3.9271 O   0  0  0  0  0  0  0  0  0  0  0  0
   -3.4094    7.8908    6.7200 O   0  0  0  0  0  0  0  0  0  0  0  0
   -2.9757    3.4402    6.1706 S   0  0  0  0  0  0  0  0  0  0  0  0
    0.8935   11.6043    8.3626 Cl  0  0  0  0  0  0  0  0  0  0  0  0
   -0.7194    7.4288    6.4236 H   0  0  0  0  0  0  0  0  0  0  0  0
   -3.7504   10.1581    7.8069 H   0  0  0  0  0  0  0  0  0  0  0  0
    1.0319    9.0153    7.1273 H   0  0  0  0  0  0  0  0  0  0  0  0
   -1.9737   11.7592    8.5168 H   0  0  0  0  0  0  0  0  0  0  0  0
    0.0019    0.3874   -0.1171 H   0  0  0  0  0  0  0  0  0  0  0  0
    1.6148    0.2542    0.5790 H   0  0  0  0  0  0  0  0  0  0  0  0
   -0.1372   -1.0290    1.9037 H   0  0  0  0  0  0  0  0  0  0  0  0
    0.6681    0.2124    2.8702 H   0  0  0  0  0  0  0  0  0  0  0  0
    1.3766    2.4751    1.6580 H   0  0  0  0  0  0  0  0  0  0  0  0
    1.0087    2.6419   -0.0628 H   0  0  0  0  0  0  0  0  0  0  0  0
   -2.0836    0.4358    1.5419 H   0  0  0  0  0  0  0  0  0  0  0  0
   -1.7474    0.3002    3.2772 H   0  0  0  0  0  0  0  0  0  0  0  0
   -0.6480    3.8367    1.3610 H   0  0  0  0  0  0  0  0  0  0  0  0
   -1.4156    2.5704    0.3946 H   0  0  0  0  0  0  0  0  0  0  0  0
   -0.9103    2.8967    5.0257 H   0  0  0  0  0  0  0  0  0  0  0  0
   -0.9756    4.6276    5.4448 H   0  0  0  0  0  0  0  0  0  0  0  0
   -1.5209    4.7175    3.1329 H   0  0  0  0  0  0  0  0  0  0  0  0
   -5.0526    2.8152    4.2325 H   0  0  0  0  0  0  0  0  0  0  0  0
   -6.0215    4.2927    4.1401 H   0  0  0  0  0  0  0  0  0  0  0  0
   -5.8851    3.4053    5.6736 H   0  0  0  0  0  0  0  0  0  0  0  0
   -5.3828    7.7777    5.2981 H   0  0  0  0  0  0  0  0  0  0  0  0
   -4.8064    6.8652    3.8909 H   0  0  0  0  0  0  0  0  0  0  0  0
   -6.2850    6.3694    4.7376 H   0  0  0  0  0  0  0  0  0  0  0  0
   -5.3503    6.6367    7.6384 H   0  0  0  0  0  0  0  0  0  0  0  0
   -4.6427    5.0257    7.8195 H   0  0  0  0  0  0  0  0  0  0  0  0
   -6.1825    5.2352    6.9610 H   0  0  0  0  0  0  0  0  0  0  0  0
   -3.1401    3.0349    2.0776 H   0  0  0  0  0  0  0  0  0  0  0  0
   -3.0006    2.0861    3.5643 H   0  0  0  0  0  0  0  0  0  0  0  0
   -2.5594    6.7887    5.1839 H   0  0  0  0  0  0  0  0  0  0  0  0
   -2.5007    6.0329    6.8032 H   0  0  0  0  0  0  0  0  0  0  0  0
  1  3  1  0  0  0  0
  1  5  2  0  0  0  0
  1 26  1  0  0  0  0
  2  4  2  0  0  0  0
  2  5  1  0  0  0  0
  2 27  1  0  0  0  0
  3  6  2  0  0  0  0
  3 28  1  0  0  0  0
  4  6  1  0  0  0  0
  4 29  1  0  0  0  0
  5 23  1  0  0  0  0
  6 25  1  0  0  0  0
  7  8  1  0  0  0  0
  7  9  1  0  0  0  0
  7 30  1  0  0  0  0
  7 31  1  0  0  0  0
  8 10  1  0  0  0  0
  8 32  1  0  0  0  0
  8 33  1  0  0  0  0
  9 11  1  0  0  0  0
  9 34  1  0  0  0  0
  9 35  1  0  0  0  0
 10 21  1  0  0  0  0
 10 36  1  0  0  0  0
 10 37  1  0  0  0  0
 11 21  1  0  0  0  0
 11 38  1  0  0  0  0
 11 39  1  0  0  0  0
 12 13  1  0  0  0  0
 12 24  1  0  0  0  0
 12 40  1  0  0  0  0
 12 41  1  0  0  0  0
 13 18  1  0  0  0  0
 13 22  1  0  0  0  0
 13 42  1  0  0  0  0
 14 15  1  0  0  0  0
 14 20  1  0  0  0  0
 14 22  1  0  0  0  0
 14 24  1  0  0  0  0
 15 43  1  0  0  0  0
 15 44  1  0  0  0  0
 15 45  1  0  0  0  0
 16 20  1  0  0  0  0
 16 46  1  0  0  0  0
 16 47  1  0  0  0  0
 16 48  1  0  0  0  0
 17 20  1  0  0  0  0
 17 49  1  0  0  0  0
 17 50  1  0  0  0  0
 17 51  1  0  0  0  0
 18 21  1  0  0  0  0
 18 52  1  0  0  0  0
 18 53  1  0  0  0  0
 19 20  1  0  0  0  0
 19 23  1  0  0  0  0
 19 54  1  0  0  0  0
 19 55  1  0  0  0  0
M  END
$$$$
