
  -OEChem-05262117483D

 55 57  0     1  0  0  0  0  0999 V2000
   -6.6539    5.5234   10.5020 C   0  0  0  0  0  0  0  0  0  0  0  0
   -6.2963    7.8870   10.9082 C   0  0  0  0  0  0  0  0  0  0  0  0
   -7.5031    5.4697   11.6141 C   0  0  0  0  0  0  0  0  0  0  0  0
   -7.1405    7.8328   12.0133 C   0  0  0  0  0  0  0  0  0  0  0  0
   -6.0459    6.7350   10.1444 C   0  0  0  0  0  0  0  0  0  0  0  0
   -7.7424    6.6190   12.3621 C   0  0  0  0  0  0  0  0  0  0  0  0
   -3.6250    4.1956    0.1001 C   0  0  0  0  0  0  0  0  0  0  0  0
   -3.2065    5.3622    1.0015 C   0  0  0  0  0  0  0  0  0  0  0  0
   -4.1441    3.0340    0.9552 C   0  0  0  0  0  0  0  0  0  0  0  0
   -2.2245    4.9036    2.0823 C   0  0  0  0  0  0  0  0  0  0  0  0
   -3.1248    2.6547    2.0310 C   0  0  0  0  0  0  0  0  0  0  0  0
   -1.1869    3.9263    6.3431 C   0  0  0  0  0  0  0  0  0  0  0  0
   -1.6216    4.5141    4.9951 C   0  0  1  0  0  0  0  0  0  0  0  0
   -3.6374    4.9457    6.2455 C   0  0  2  0  0  0  0  0  0  0  0  0
   -4.8676    4.3258    5.5723 C   0  0  0  0  0  0  0  0  0  0  0  0
   -2.6636    6.7363    7.7865 C   0  0  0  0  0  0  0  0  0  0  0  0
   -4.5993    7.3021    6.3029 C   0  0  0  0  0  0  0  0  0  0  0  0
   -1.9303    3.3989    3.9769 C   0  0  0  0  0  0  0  0  0  0  0  0
   -4.9273    5.7578    8.2625 C   0  0  0  0  0  0  0  0  0  0  0  0
   -3.9543    6.1853    7.1528 C   0  0  0  0  0  0  0  0  0  0  0  0
   -2.7855    3.8050    2.8728 N   0  0  0  0  0  0  0  0  0  0  0  0
   -2.7115    5.3958    5.2596 O   0  0  0  0  0  0  0  0  0  0  0  0
   -5.2031    6.8973    9.0833 O   0  0  0  0  0  0  0  0  0  0  0  0
   -2.7576    3.5679    7.1988 S   0  0  0  0  0  0  0  0  0  0  0  0
   -8.8103    6.5475   13.7591 Cl  0  0  0  0  0  0  0  0  0  0  0  0
   -6.4781    4.6173    9.9345 H   0  0  0  0  0  0  0  0  0  0  0  0
   -5.8187    8.8186   10.6198 H   0  0  0  0  0  0  0  0  0  0  0  0
   -7.9734    4.5316   11.8922 H   0  0  0  0  0  0  0  0  0  0  0  0
   -7.3318    8.7248   12.6016 H   0  0  0  0  0  0  0  0  0  0  0  0
   -2.7583    3.8574   -0.4848 H   0  0  0  0  0  0  0  0  0  0  0  0
   -4.3869    4.5169   -0.6192 H   0  0  0  0  0  0  0  0  0  0  0  0
   -2.7465    6.1639    0.4123 H   0  0  0  0  0  0  0  0  0  0  0  0
   -4.0912    5.7836    1.4939 H   0  0  0  0  0  0  0  0  0  0  0  0
   -5.0804    3.3270    1.4455 H   0  0  0  0  0  0  0  0  0  0  0  0
   -4.3591    2.1574    0.3331 H   0  0  0  0  0  0  0  0  0  0  0  0
   -1.2660    4.6022    1.6103 H   0  0  0  0  0  0  0  0  0  0  0  0
   -2.0119    5.7408    2.7510 H   0  0  0  0  0  0  0  0  0  0  0  0
   -3.5350    1.8687    2.6753 H   0  0  0  0  0  0  0  0  0  0  0  0
   -2.2194    2.2338    1.5466 H   0  0  0  0  0  0  0  0  0  0  0  0
   -0.6236    2.9972    6.2246 H   0  0  0  0  0  0  0  0  0  0  0  0
   -0.5905    4.6423    6.9130 H   0  0  0  0  0  0  0  0  0  0  0  0
   -0.8324    5.1628    4.6035 H   0  0  0  0  0  0  0  0  0  0  0  0
   -4.5462    3.5920    4.8349 H   0  0  0  0  0  0  0  0  0  0  0  0
   -5.4444    5.0901    5.0463 H   0  0  0  0  0  0  0  0  0  0  0  0
   -5.5166    3.8305    6.2998 H   0  0  0  0  0  0  0  0  0  0  0  0
   -2.8975    7.6028    8.4086 H   0  0  0  0  0  0  0  0  0  0  0  0
   -2.1771    5.9882    8.4185 H   0  0  0  0  0  0  0  0  0  0  0  0
   -1.9642    7.0487    7.0076 H   0  0  0  0  0  0  0  0  0  0  0  0
   -4.6998    8.2085    6.9046 H   0  0  0  0  0  0  0  0  0  0  0  0
   -5.5992    7.0314    5.9521 H   0  0  0  0  0  0  0  0  0  0  0  0
   -3.9762    7.5270    5.4342 H   0  0  0  0  0  0  0  0  0  0  0  0
   -2.4263    2.5721    4.4961 H   0  0  0  0  0  0  0  0  0  0  0  0
   -0.9501    3.0135    3.6259 H   0  0  0  0  0  0  0  0  0  0  0  0
   -4.4804    4.9644    8.8741 H   0  0  0  0  0  0  0  0  0  0  0  0
   -5.8690    5.3909    7.8378 H   0  0  0  0  0  0  0  0  0  0  0  0
  1  3  1  0  0  0  0
  1  5  2  0  0  0  0
  1 26  1  0  0  0  0
  2  4  2  0  0  0  0
  2  5  1  0  0  0  0
  2 27  1  0  0  0  0
  3  6  2  0  0  0  0
  3 28  1  0  0  0  0
  4  6  1  0  0  0  0
  4 29  1  0  0  0  0
  5 23  1  0  0  0  0
  6 25  1  0  0  0  0
  7  8  1  0  0  0  0
  7  9  1  0  0  0  0
  7 30  1  0  0  0  0
  7 31  1  0  0  0  0
  8 10  1  0  0  0  0
  8 32  1  0  0  0  0
  8 33  1  0  0  0  0
  9 11  1  0  0  0  0
  9 34  1  0  0  0  0
  9 35  1  0  0  0  0
 10 21  1  0  0  0  0
 10 36  1  0  0  0  0
 10 37  1  0  0  0  0
 11 21  1  0  0  0  0
 11 38  1  0  0  0  0
 11 39  1  0  0  0  0
 12 13  1  0  0  0  0
 12 24  1  0  0  0  0
 12 40  1  0  0  0  0
 12 41  1  0  0  0  0
 13 18  1  0  0  0  0
 13 22  1  0  0  0  0
 13 42  1  0  0  0  0
 14 15  1  0  0  0  0
 14 20  1  0  0  0  0
 14 22  1  0  0  0  0
 14 24  1  0  0  0  0
 15 43  1  0  0  0  0
 15 44  1  0  0  0  0
 15 45  1  0  0  0  0
 16 20  1  0  0  0  0
 16 46  1  0  0  0  0
 16 47  1  0  0  0  0
 16 48  1  0  0  0  0
 17 20  1  0  0  0  0
 17 49  1  0  0  0  0
 17 50  1  0  0  0  0
 17 51  1  0  0  0  0
 18 21  1  0  0  0  0
 18 52  1  0  0  0  0
 18 53  1  0  0  0  0
 19 20  1  0  0  0  0
 19 23  1  0  0  0  0
 19 54  1  0  0  0  0
 19 55  1  0  0  0  0
M  END
$$$$
