26
0 1 C7H14N2O3
C                    -1.585857505819     1.894509067621     2.206091011728
C                     0.313895432787     0.942452610464    -0.017698808070
C                    -2.214649400048     1.856094083025     3.590957376618
C                    -2.002705248668     1.430451928236    -0.892271894474
C                     2.596510660407     0.289451536194     0.589550879882
C                     0.792195837181    -0.783841076252     2.906745779719
C                    -1.186041776004     0.610873668120     0.109592277532
N                    -1.691681597102     0.741875354906     1.476312039304
N                     1.171966027333     0.350986500670     0.901663154806
O                    -1.023594802412     2.897907186775     1.773864998129
O                     0.750776179091     1.666553347373    -0.901105910036
O                     0.689622407419    -0.852027173837     1.479328397030
H                    -1.480602031325     2.210081362445     4.319013787261
H                    -3.057682757389     2.552884455059     3.610585453671
H                    -2.570905928933     0.865325084927     3.888502053820
H                    -1.913433016186     2.494816336869    -0.672276698134
H                    -3.054191172068     1.133093161572    -0.831584174463
H                    -1.640506102041     1.259166589245    -1.908218720915
H                     3.152829444297     0.061276953544     1.501135779299
H                     2.900738036138     1.266459503183     0.216704338519
H                     2.806380310118    -0.472062817983    -0.171097586917
H                     0.347886940411    -1.712542429510     3.273274934748
H                     0.248362455108     0.081153595716     3.295790440793
H                     1.839040950528    -0.734356932100     3.227609523852
H                    -1.273626208357    -0.453110008093    -0.134052287571
H                    -2.114682771310    -0.069410015681     1.902884402960
