26
0 1 C10H13NO2
C                     1.500316152592    -1.265161664324     0.048685435821
C                     1.835410069890    -0.064339778321     0.685222177201
C                     1.341544870364    -2.427063571918     0.810739328499
C                     1.998866163257    -0.031558551896     2.073031809861
C                     1.506873991759    -2.390414853849     2.199640341530
C                     1.830455410126    -1.191430583336     2.843471235123
C                    -1.138627831310    -1.969645029434     4.464397198274
C                    -2.445247439695    -2.198741518162     3.732448631037
C                     0.701265750707    -0.368992109812     4.940389305216
C                     1.931071783810    -1.116828989962     4.361412195645
N                    -0.586753516852    -0.732799515943     4.346110920179
O                    -0.612021961500    -2.870472586966     5.133022869994
O                     2.126100859735    -2.375343765178     4.981365682141
H                     1.375801707441    -1.295744794451    -1.030748087651
H                     1.977000529161     0.841554740963     0.100780810211
H                     1.094128864572    -3.366551472351     0.322263507815
H                     2.271156794723     0.904938364857     2.558308563802
H                     1.399837089811    -3.294311797955     2.791025259664
H                    -2.277175867989    -2.943274887864     2.949178891544
H                    -3.171126402535    -2.614991899317     4.434996588709
H                    -2.857996927302    -1.293071497018     3.280596048540
H                     0.820835542835     0.705940126470     4.787010312306
H                     0.662631004107    -0.554183633222     6.018104574410
H                     2.811083753585    -0.515970206933     4.622832791648
H                    -0.972160407400    -0.112358657236     3.647565124460
H                     1.240778480232    -2.756040412331     5.164889090812
