
  -OEChem-05262117483D

 26 26  0     1  0  0  0  0  0999 V2000
    1.5602   -1.2520   -0.0035 C   0  0  0  0  0  0  0  0  0  0  0  0
    1.5296    0.0198    0.5816 C   0  0  0  0  0  0  0  0  0  0  0  0
    1.7166   -2.3784    0.8083 C   0  0  0  0  0  0  0  0  0  0  0  0
    1.6440    0.1556    1.9668 C   0  0  0  0  0  0  0  0  0  0  0  0
    1.8342   -2.2386    2.1967 C   0  0  0  0  0  0  0  0  0  0  0  0
    1.7917   -0.9721    2.7902 C   0  0  0  0  0  0  0  0  0  0  0  0
   -1.4623   -1.5667    5.5624 C   0  0  0  0  0  0  0  0  0  0  0  0
   -2.6093   -2.4292    5.0615 C   0  0  0  0  0  0  0  0  0  0  0  0
    0.5388   -0.2565    4.8651 C   0  0  0  0  0  0  0  0  0  0  0  0
    1.8647   -0.8029    4.3054 C   0  0  1  0  0  0  0  0  0  0  0  0
   -0.5454   -1.1965    4.6045 N   0  0  0  0  0  0  0  0  0  0  0  0
   -1.3626   -1.2369    6.7410 O   0  0  0  0  0  0  0  0  0  0  0  0
    2.2261   -2.0038    4.9772 O   0  0  0  0  0  0  0  0  0  0  0  0
    1.4721   -1.3604   -1.0814 H   0  0  0  0  0  0  0  0  0  0  0  0
    1.4203    0.9039   -0.0414 H   0  0  0  0  0  0  0  0  0  0  0  0
    1.7549   -3.3690    0.3618 H   0  0  0  0  0  0  0  0  0  0  0  0
    1.6258    1.1502    2.4089 H   0  0  0  0  0  0  0  0  0  0  0  0
    1.9852   -3.1114    2.8239 H   0  0  0  0  0  0  0  0  0  0  0  0
   -2.7135   -3.2927    5.7224 H   0  0  0  0  0  0  0  0  0  0  0  0
   -3.5358   -1.8512    5.1286 H   0  0  0  0  0  0  0  0  0  0  0  0
   -2.4820   -2.7751    4.0317 H   0  0  0  0  0  0  0  0  0  0  0  0
    0.3141    0.7222    4.4258 H   0  0  0  0  0  0  0  0  0  0  0  0
    0.6114   -0.1412    5.9475 H   0  0  0  0  0  0  0  0  0  0  0  0
    2.6510   -0.0781    4.5430 H   0  0  0  0  0  0  0  0  0  0  0  0
   -0.7526   -1.4048    3.6351 H   0  0  0  0  0  0  0  0  0  0  0  0
    1.4049   -2.4973    5.1450 H   0  0  0  0  0  0  0  0  0  0  0  0
  1  2  1  0  0  0  0
  1  3  2  0  0  0  0
  1 14  1  0  0  0  0
  2  4  2  0  0  0  0
  2 15  1  0  0  0  0
  3  5  1  0  0  0  0
  3 16  1  0  0  0  0
  4  6  1  0  0  0  0
  4 17  1  0  0  0  0
  5  6  2  0  0  0  0
  5 18  1  0  0  0  0
  6 10  1  0  0  0  0
  7  8  1  0  0  0  0
  7 11  1  0  0  0  0
  7 12  2  0  0  0  0
  8 19  1  0  0  0  0
  8 20  1  0  0  0  0
  8 21  1  0  0  0  0
  9 10  1  0  0  0  0
  9 11  1  0  0  0  0
  9 22  1  0  0  0  0
  9 23  1  0  0  0  0
 10 13  1  0  0  0  0
 10 24  1  0  0  0  0
 11 25  1  0  0  0  0
 13 26  1  0  0  0  0
M  END
$$$$
