30
0 1 C11H15NO3
C                     5.514658520941    -2.079184045280    -1.185034190845
C                     5.290863615265    -2.705580856994     0.045612175669
C                     4.879054883028    -0.864492541005    -1.469207231988
C                     4.442104433502    -2.115883903035     0.987761054289
C                     4.032175201131    -0.276463040311    -0.525101212621
C                     3.811701395754    -0.894835228883     0.713957642763
C                     5.559583824590    -0.429915758191     3.632083129685
C                     7.019734432039    -0.812432081727     3.479985174257
C                     2.936133905994     1.350751283804     3.779711855478
C                     2.952809978561    -0.227416149997     1.768816128946
C                     3.712799667359     0.888886144596     2.526696856055
N                     5.119598374424     0.543029080339     2.786663553548
O                     4.836235424213    -0.990691754101     4.466213016955
O                     2.417363520808     0.306645313410     4.581683421402
O                     1.816622712547     0.442412029308     1.207465531254
H                     6.170968365680    -2.537511502540    -1.920382356528
H                     5.771031628913    -3.655172110364     0.268905400182
H                     5.040878496450    -0.379040174314    -2.428561460930
H                     4.270827100961    -2.603913119319     1.944976978666
H                     3.525330454108     0.659005552828    -0.746746685136
H                     7.404532604750    -1.136542608511     4.447760575868
H                     7.086631311061    -1.653587018724     2.781861609034
H                     7.635956414850     0.004158734906     3.093424068836
H                     2.074953077685     1.927267952184     3.435626841655
H                     3.591885664572     2.020117131563     4.356687251707
H                     2.627740217539    -0.972463879947     2.502257870227
H                     3.755687686373     1.748617302520     1.849594088219
H                     5.769325450458     0.811663668791     2.058925210158
H                     3.174155291178    -0.276996710237     4.800979601106
H                     1.176614462829    -0.232806661279     0.934576950706
