30
0 1 C11H15NO3
C                     5.710543789717    -1.911105954110    -1.414287257818
C                     5.237592641951    -0.600572789205    -1.554077175754
C                     5.314248797596    -2.678643286880    -0.315362751232
C                     4.376081231346    -0.058867916626    -0.599792940750
C                     4.447336874259    -2.133508070659     0.638015569430
C                     3.974597741342    -0.822208493108     0.506315321099
C                     6.195916139522     0.845325075671     2.384457244516
C                     7.393205947563     0.132461607334     2.988675853032
C                     2.804701760006     1.492501014832     3.444655991314
C                     3.062090994058    -0.229206763967     1.556753436579
C                     3.714556408696     0.933976593869     2.335260094333
N                     4.975857444804     0.484109150885     2.905785545336
O                     6.315836030001     1.672646494864     1.485080960777
O                     1.687529053570     2.220065041956     2.960430548445
O                     1.847517776765     0.294968981214     0.982650991053
H                     6.385203240537    -2.329537905358    -2.156773891779
H                     5.552516033220     0.003342357347    -2.400843841274
H                     5.675012307618    -3.697778104384    -0.202010135150
H                     4.026175464001     0.963954361143    -0.701476590783
H                     4.137062728127    -2.734075250586     1.491334882888
H                     7.728057898581    -0.635056384009     2.283612472656
H                     8.206221611210     0.850088067450     3.113855897280
H                     7.178301764079    -0.344829513241     3.949508624268
H                     3.392700706007     2.187166174145     4.050389311385
H                     2.483983788319     0.664216789455     4.102221420113
H                     2.802766019185    -1.017372810853     2.282077170815
H                     3.957626895902     1.738585552551     1.638929180412
H                     4.952641509220    -0.254235194999     3.597029965574
H                     1.281182350915     1.686674956260     2.254153796476
H                     1.472446267485    -0.380968787118     0.395629726408
