
  -OEChem-05262117483D

 26 25  0     1  0  0  0  0  0999 V2000
   -1.8287    1.0774    1.7884 C   0  0  0  0  0  0  0  0  0  0  0  0
   -0.3477    0.8799   -0.8221 C   0  0  0  0  0  0  0  0  0  0  0  0
   -2.5677    0.8745    3.1010 C   0  0  0  0  0  0  0  0  0  0  0  0
   -2.7121    1.6034   -1.3137 C   0  0  0  0  0  0  0  0  0  0  0  0
    0.3829   -1.1125    0.5793 C   0  0  0  0  0  0  0  0  0  0  0  0
    2.5036    0.1465   -1.7102 C   0  0  0  0  0  0  0  0  0  0  0  0
   -1.8491    0.5264   -0.6511 C   0  0  2  0  0  0  0  0  0  0  0  0
   -2.2569    0.2982    0.7412 N   0  0  0  0  0  0  0  0  0  0  0  0
    0.5683   -0.0790   -0.4264 N   0  0  0  0  0  0  0  0  0  0  0  0
   -0.8970    1.8682    1.6773 O   0  0  0  0  0  0  0  0  0  0  0  0
   -0.0119    1.8709   -1.4541 O   0  0  0  0  0  0  0  0  0  0  0  0
    1.9065    0.3599   -0.4230 O   0  0  0  0  0  0  0  0  0  0  0  0
   -1.8365    0.8173    3.9100 H   0  0  0  0  0  0  0  0  0  0  0  0
   -3.1976    1.7502    3.2865 H   0  0  0  0  0  0  0  0  0  0  0  0
   -3.1967   -0.0204    3.1166 H   0  0  0  0  0  0  0  0  0  0  0  0
   -2.5485    2.5658   -0.8250 H   0  0  0  0  0  0  0  0  0  0  0  0
   -3.7697    1.3300   -1.2326 H   0  0  0  0  0  0  0  0  0  0  0  0
   -2.4535    1.7124   -2.3689 H   0  0  0  0  0  0  0  0  0  0  0  0
    1.1255   -1.8940    0.4014 H   0  0  0  0  0  0  0  0  0  0  0  0
   -0.6124   -1.5452    0.4883 H   0  0  0  0  0  0  0  0  0  0  0  0
    0.5137   -0.7132    1.5917 H   0  0  0  0  0  0  0  0  0  0  0  0
    3.5478    0.4439   -1.5891 H   0  0  0  0  0  0  0  0  0  0  0  0
    2.0214    0.7721   -2.4654 H   0  0  0  0  0  0  0  0  0  0  0  0
    2.4487   -0.9119   -1.9945 H   0  0  0  0  0  0  0  0  0  0  0  0
   -2.0022   -0.4285   -1.1697 H   0  0  0  0  0  0  0  0  0  0  0  0
   -3.1140   -0.2241    0.8709 H   0  0  0  0  0  0  0  0  0  0  0  0
  1  3  1  0  0  0  0
  1  8  1  0  0  0  0
  1 10  2  0  0  0  0
  2  7  1  0  0  0  0
  2  9  1  0  0  0  0
  2 11  2  0  0  0  0
  3 13  1  0  0  0  0
  3 14  1  0  0  0  0
  3 15  1  0  0  0  0
  4  7  1  0  0  0  0
  4 16  1  0  0  0  0
  4 17  1  0  0  0  0
  4 18  1  0  0  0  0
  5  9  1  0  0  0  0
  5 19  1  0  0  0  0
  5 20  1  0  0  0  0
  5 21  1  0  0  0  0
  6 12  1  0  0  0  0
  6 22  1  0  0  0  0
  6 23  1  0  0  0  0
  6 24  1  0  0  0  0
  7  8  1  0  0  0  0
  7 25  1  0  0  0  0
  8 26  1  0  0  0  0
  9 12  1  0  0  0  0
M  END
$$$$
