
  -OEChem-05262117483D

 26 26  0     1  0  0  0  0  0999 V2000
    1.8649   -0.6266    0.3580 C   0  0  0  0  0  0  0  0  0  0  0  0
    2.5712    0.2187    1.2195 C   0  0  0  0  0  0  0  0  0  0  0  0
    1.1585   -1.7150    0.8831 C   0  0  0  0  0  0  0  0  0  0  0  0
    2.5654   -0.0228    2.5975 C   0  0  0  0  0  0  0  0  0  0  0  0
    1.1485   -1.9513    2.2605 C   0  0  0  0  0  0  0  0  0  0  0  0
    1.8516   -1.1052    3.1296 C   0  0  0  0  0  0  0  0  0  0  0  0
    1.2947    1.6963    5.7849 C   0  0  0  0  0  0  0  0  0  0  0  0
    1.3396    3.1515    5.3512 C   0  0  0  0  0  0  0  0  0  0  0  0
    0.5406   -0.5763    5.2147 C   0  0  0  0  0  0  0  0  0  0  0  0
    1.7756   -1.2996    4.6260 C   0  0  1  0  0  0  0  0  0  0  0  0
    0.5563    0.8596    4.9891 N   0  0  0  0  0  0  0  0  0  0  0  0
    1.8689    1.3009    6.7999 O   0  0  0  0  0  0  0  0  0  0  0  0
    1.6789   -2.7004    4.9049 O   0  0  0  0  0  0  0  0  0  0  0  0
    1.8726   -0.4451   -0.7137 H   0  0  0  0  0  0  0  0  0  0  0  0
    3.1339    1.0585    0.8196 H   0  0  0  0  0  0  0  0  0  0  0  0
    0.6173   -2.3824    0.2170 H   0  0  0  0  0  0  0  0  0  0  0  0
    3.1308    0.6268    3.2620 H   0  0  0  0  0  0  0  0  0  0  0  0
    0.6119   -2.8023    2.6689 H   0  0  0  0  0  0  0  0  0  0  0  0
    0.9105    3.7669    6.1466 H   0  0  0  0  0  0  0  0  0  0  0  0
    2.3846    3.4505    5.2338 H   0  0  0  0  0  0  0  0  0  0  0  0
    0.8022    3.3489    4.4195 H   0  0  0  0  0  0  0  0  0  0  0  0
    0.5097   -0.7391    6.2954 H   0  0  0  0  0  0  0  0  0  0  0  0
   -0.3642   -0.9996    4.7697 H   0  0  0  0  0  0  0  0  0  0  0  0
    2.6722   -0.8748    5.0943 H   0  0  0  0  0  0  0  0  0  0  0  0
    0.2607    1.1955    4.0822 H   0  0  0  0  0  0  0  0  0  0  0  0
    1.7227   -2.8155    5.8675 H   0  0  0  0  0  0  0  0  0  0  0  0
  1  2  1  0  0  0  0
  1  3  2  0  0  0  0
  1 14  1  0  0  0  0
  2  4  2  0  0  0  0
  2 15  1  0  0  0  0
  3  5  1  0  0  0  0
  3 16  1  0  0  0  0
  4  6  1  0  0  0  0
  4 17  1  0  0  0  0
  5  6  2  0  0  0  0
  5 18  1  0  0  0  0
  6 10  1  0  0  0  0
  7  8  1  0  0  0  0
  7 11  1  0  0  0  0
  7 12  2  0  0  0  0
  8 19  1  0  0  0  0
  8 20  1  0  0  0  0
  8 21  1  0  0  0  0
  9 10  1  0  0  0  0
  9 11  1  0  0  0  0
  9 22  1  0  0  0  0
  9 23  1  0  0  0  0
 10 13  1  0  0  0  0
 10 24  1  0  0  0  0
 11 25  1  0  0  0  0
 13 26  1  0  0  0  0
M  END
$$$$
