26
0 1 C10H13NO2
C                     1.864919361871    -0.626603862882     0.358030791280
C                     2.571164273248     0.218686440555     1.219548144545
C                     1.158488836296    -1.714973903541     0.883102449354
C                     2.565369465285    -0.022787915889     2.597467735602
C                     1.148516581721    -1.951326766521     2.260478998757
C                     1.851622678473    -1.105177111045     3.129601581058
C                     1.294712883015     1.696252412885     5.784882143888
C                     1.339610129688     3.151465410660     5.351223044318
C                     0.540642750416    -0.576323603367     5.214691423929
C                     1.775563148965    -1.299601628466     4.625965679488
N                     0.556302977367     0.859636747418     4.989138591560
O                     1.868940796458     1.300874738875     6.799923574580
O                     1.678939073370    -2.700373144687     4.904947243482
H                     1.872597209896    -0.445059238304    -0.713695721211
H                     3.133860536836     1.058545290268     0.819610926226
H                     0.617263953906    -2.382389294062     0.217001577359
H                     3.130822646888     0.626777681720     3.262031506553
H                     0.611933615364    -2.802322071256     2.668882740232
H                     0.910519946155     3.766938575967     6.146575899820
H                     2.384623681333     3.450480803625     5.233828895499
H                     0.802225264062     3.348884123866     4.419494352906
H                     0.509703648071    -0.739125554324     6.295418108334
H                    -0.364227498751    -0.999642209816     4.769698290442
H                     2.672162093741    -0.874843951051     5.094252310063
H                     0.260749181250     1.195537585878     4.082235402303
H                     1.722691196435    -2.815453243899     5.867505185342
