
  -OEChem-05262117483D

 30 30  0     1  0  0  0  0  0999 V2000
    5.7105   -1.9111   -1.4143 C   0  0  0  0  0  0  0  0  0  0  0  0
    5.2376   -0.6006   -1.5541 C   0  0  0  0  0  0  0  0  0  0  0  0
    5.3142   -2.6786   -0.3154 C   0  0  0  0  0  0  0  0  0  0  0  0
    4.3761   -0.0589   -0.5998 C   0  0  0  0  0  0  0  0  0  0  0  0
    4.4473   -2.1335    0.6380 C   0  0  0  0  0  0  0  0  0  0  0  0
    3.9746   -0.8222    0.5063 C   0  0  0  0  0  0  0  0  0  0  0  0
    6.1959    0.8453    2.3845 C   0  0  0  0  0  0  0  0  0  0  0  0
    7.3932    0.1325    2.9887 C   0  0  0  0  0  0  0  0  0  0  0  0
    2.8047    1.4925    3.4447 C   0  0  0  0  0  0  0  0  0  0  0  0
    3.0621   -0.2292    1.5568 C   0  0  1  0  0  0  0  0  0  0  0  0
    3.7146    0.9340    2.3353 C   0  0  2  0  0  0  0  0  0  0  0  0
    4.9759    0.4841    2.9058 N   0  0  0  0  0  0  0  0  0  0  0  0
    6.3158    1.6726    1.4851 O   0  0  0  0  0  0  0  0  0  0  0  0
    1.6875    2.2201    2.9604 O   0  0  0  0  0  0  0  0  0  0  0  0
    1.8475    0.2950    0.9827 O   0  0  0  0  0  0  0  0  0  0  0  0
    6.3852   -2.3295   -2.1568 H   0  0  0  0  0  0  0  0  0  0  0  0
    5.5525    0.0033   -2.4008 H   0  0  0  0  0  0  0  0  0  0  0  0
    5.6750   -3.6978   -0.2020 H   0  0  0  0  0  0  0  0  0  0  0  0
    4.0262    0.9640   -0.7015 H   0  0  0  0  0  0  0  0  0  0  0  0
    4.1371   -2.7341    1.4913 H   0  0  0  0  0  0  0  0  0  0  0  0
    7.7281   -0.6351    2.2836 H   0  0  0  0  0  0  0  0  0  0  0  0
    8.2062    0.8501    3.1139 H   0  0  0  0  0  0  0  0  0  0  0  0
    7.1783   -0.3448    3.9495 H   0  0  0  0  0  0  0  0  0  0  0  0
    3.3927    2.1872    4.0504 H   0  0  0  0  0  0  0  0  0  0  0  0
    2.4840    0.6642    4.1022 H   0  0  0  0  0  0  0  0  0  0  0  0
    2.8028   -1.0174    2.2821 H   0  0  0  0  0  0  0  0  0  0  0  0
    3.9576    1.7386    1.6389 H   0  0  0  0  0  0  0  0  0  0  0  0
    4.9526   -0.2542    3.5970 H   0  0  0  0  0  0  0  0  0  0  0  0
    1.2812    1.6867    2.2542 H   0  0  0  0  0  0  0  0  0  0  0  0
    1.4724   -0.3810    0.3956 H   0  0  0  0  0  0  0  0  0  0  0  0
  1  2  1  0  0  0  0
  1  3  2  0  0  0  0
  1 16  1  0  0  0  0
  2  4  2  0  0  0  0
  2 17  1  0  0  0  0
  3  5  1  0  0  0  0
  3 18  1  0  0  0  0
  4  6  1  0  0  0  0
  4 19  1  0  0  0  0
  5  6  2  0  0  0  0
  5 20  1  0  0  0  0
  6 10  1  0  0  0  0
  7  8  1  0  0  0  0
  7 12  1  0  0  0  0
  7 13  2  0  0  0  0
  8 21  1  0  0  0  0
  8 22  1  0  0  0  0
  8 23  1  0  0  0  0
  9 11  1  0  0  0  0
  9 14  1  0  0  0  0
  9 24  1  0  0  0  0
  9 25  1  0  0  0  0
 10 11  1  0  0  0  0
 10 15  1  0  0  0  0
 10 26  1  0  0  0  0
 11 12  1  0  0  0  0
 11 27  1  0  0  0  0
 12 28  1  0  0  0  0
 14 29  1  0  0  0  0
 15 30  1  0  0  0  0
M  END
$$$$
