26
0 1 C7H14N2O3
C                    -1.645256726949     1.377188596241     1.462931285522
C                     0.338811217866     0.730117190747    -0.906114064325
C                    -1.928020611514     0.966249265119     2.902443611331
C                    -1.964032094387     1.495257567715    -1.630798700660
C                     2.525011289053    -0.067178866974    -0.045720207196
C                     0.673577537428    -2.591853652239    -0.639168011559
C                    -1.177359449090     0.455904762279    -0.834769498473
N                    -1.614465958267     0.334801790311     0.563825538339
N                     1.166567493724    -0.317131626603    -0.510699739501
O                    -1.486392378324     2.553435598416     1.152733076319
O                     0.820733517469     1.775009962985    -1.318215669689
O                     0.549804384881    -1.403124597940     0.157067395112
H                    -1.088303105034     1.285123985578     3.526241480302
H                    -2.815354271885     1.502666667802     3.248369849632
H                    -2.087174716413    -0.107497301997     3.036057941259
H                    -1.751228299920     2.500994480803    -1.274682858828
H                    -3.034373930037     1.293617311560    -1.528840719869
H                    -1.690184443646     1.429401495598    -2.687637182753
H                     2.537353786564     0.113955131963     1.035344187521
H                     2.893558117410     0.813903109705    -0.569832318818
H                     3.162385717958    -0.923935530381    -0.279946042378
H                     0.198572869870    -3.384003646799    -0.055897745486
H                     1.725899063395    -2.842400355077    -0.810278150560
H                     0.163365926862    -2.472011646062    -1.601190785922
H                    -1.357493461852    -0.529328634729    -1.274834737979
H                    -1.485129131778    -0.586267668672     0.961006283151
