
  -OEChem-05262117483D

 27 28  0     0  0  0  0  0  0999 V2000
    1.9719   -0.9585   -0.1820 C   0  0  0  0  0  0  0  0  0  0  0  0
    1.6484    0.2337    0.4739 C   0  0  0  0  0  0  0  0  0  0  0  0
    2.3070   -2.0953    0.5627 C   0  0  0  0  0  0  0  0  0  0  0  0
   -0.7053    0.8907    7.8057 C   0  0  0  0  0  0  0  0  0  0  0  0
    0.2631    0.7354    8.8054 C   0  0  0  0  0  0  0  0  0  0  0  0
    1.6436    0.2856    1.8698 C   0  0  0  0  0  0  0  0  0  0  0  0
    2.3133   -2.0429    1.9566 C   0  0  0  0  0  0  0  0  0  0  0  0
   -0.3652    0.6185    6.4832 C   0  0  0  0  0  0  0  0  0  0  0  0
    1.5456    0.3090    8.4710 C   0  0  0  0  0  0  0  0  0  0  0  0
    1.9664   -0.8566    2.6208 C   0  0  0  0  0  0  0  0  0  0  0  0
    0.9297    0.2040    6.1309 C   0  0  0  0  0  0  0  0  0  0  0  0
    1.9073    0.0450    7.1397 C   0  0  0  0  0  0  0  0  0  0  0  0
    1.9840   -0.8768    4.1168 C   0  0  0  0  0  0  0  0  0  0  0  0
    1.1950    0.0481    4.7380 N   0  0  0  0  0  0  0  0  0  0  0  0
    2.6750   -1.7029    4.7374 O   0  0  0  0  0  0  0  0  0  0  0  0
    3.1987   -0.2961    6.8977 O   0  0  0  0  0  0  0  0  0  0  0  0
    1.9733   -0.9981   -1.2681 H   0  0  0  0  0  0  0  0  0  0  0  0
    1.4114    1.1252   -0.1003 H   0  0  0  0  0  0  0  0  0  0  0  0
    2.5675   -3.0204    0.0556 H   0  0  0  0  0  0  0  0  0  0  0  0
   -1.7126    1.2130    8.0522 H   0  0  0  0  0  0  0  0  0  0  0  0
    0.0174    0.9417    9.8436 H   0  0  0  0  0  0  0  0  0  0  0  0
    1.4323    1.2331    2.3596 H   0  0  0  0  0  0  0  0  0  0  0  0
    2.5844   -2.9100    2.5503 H   0  0  0  0  0  0  0  0  0  0  0  0
   -1.1122    0.7274    5.6988 H   0  0  0  0  0  0  0  0  0  0  0  0
    2.3134    0.1805    9.2282 H   0  0  0  0  0  0  0  0  0  0  0  0
    0.5574    0.5543    4.1373 H   0  0  0  0  0  0  0  0  0  0  0  0
    3.2180   -0.9105    6.1197 H   0  0  0  0  0  0  0  0  0  0  0  0
  1  2  1  0  0  0  0
  1  3  2  0  0  0  0
  1 17  1  0  0  0  0
  2  6  2  0  0  0  0
  2 18  1  0  0  0  0
  3  7  1  0  0  0  0
  3 19  1  0  0  0  0
  4  5  1  0  0  0  0
  4  8  2  0  0  0  0
  4 20  1  0  0  0  0
  5  9  2  0  0  0  0
  5 21  1  0  0  0  0
  6 10  1  0  0  0  0
  6 22  1  0  0  0  0
  7 10  2  0  0  0  0
  7 23  1  0  0  0  0
  8 11  1  0  0  0  0
  8 24  1  0  0  0  0
  9 12  1  0  0  0  0
  9 25  1  0  0  0  0
 10 13  1  0  0  0  0
 11 12  2  0  0  0  0
 11 14  1  0  0  0  0
 12 16  1  0  0  0  0
 13 14  1  0  0  0  0
 13 15  2  0  0  0  0
 14 26  1  0  0  0  0
 16 27  1  0  0  0  0
M  END
$$$$
