26
0 1 C7H14N2O3
C                    -2.330169076185     0.228943291926     0.970525106941
C                    -0.124552577661     1.384518309163    -1.239055156436
C                    -2.920700383852     0.424939333368     2.358803537693
C                    -2.249245624929     2.499726360536    -1.962839551208
C                     1.997875786940     2.452569453088    -0.625684819653
C                     0.071724647384     3.003700855660     1.771532062186
C                    -1.658177186517     1.355288211078    -1.128493950140
N                    -2.212329159066     1.365277542202     0.214556540516
N                     0.616562704142     2.100162905373    -0.309584855773
O                    -1.996531761493    -0.879092661958     0.557345869230
O                     0.434987159740     0.785031222257    -2.150165606149
O                    -0.072502029873     3.148508341947     0.351284829615
H                    -3.844259790947    -0.156161708316     2.429890722333
H                    -2.223460470486     0.020521153556     3.097401724592
H                    -3.139716903984     1.468568610347     2.603490528982
H                    -1.999155490897     3.473548606632    -1.529706257990
H                    -3.337928673909     2.401306596161    -2.008529859892
H                    -1.852875960611     2.462455224231    -2.980460196916
H                     2.040873186883     3.296655026395    -1.323908103029
H                     2.470728449536     1.582891292925    -1.079453065986
H                     2.522731800009     2.711472202756     0.296312032975
H                    -0.527883562894     3.806893095822     2.207165500762
H                     1.116102535487     3.128324364234     2.077884613596
H                    -0.294630900478     2.027297971060     2.101280686395
H                    -1.924756180803     0.396549251188    -1.576271465940
H                    -2.417767891574     2.261750521634     0.631633686977
