
  -OEChem-05262117483D

 30 30  0     1  0  0  0  0  0999 V2000
    5.6227   -2.4930   -0.4946 C   0  0  0  0  0  0  0  0  0  0  0  0
    5.1216   -2.9853    0.7147 C   0  0  0  0  0  0  0  0  0  0  0  0
    5.1439   -1.2777   -0.9993 C   0  0  0  0  0  0  0  0  0  0  0  0
    4.1510   -2.2642    1.4182 C   0  0  0  0  0  0  0  0  0  0  0  0
    4.1758   -0.5579   -0.2943 C   0  0  0  0  0  0  0  0  0  0  0  0
    3.6754   -1.0430    0.9234 C   0  0  0  0  0  0  0  0  0  0  0  0
    4.7205   -0.3306    4.0055 C   0  0  0  0  0  0  0  0  0  0  0  0
    6.1544   -0.6895    4.3559 C   0  0  0  0  0  0  0  0  0  0  0  0
    2.3406    1.6842    3.3626 C   0  0  0  0  0  0  0  0  0  0  0  0
    2.6634   -0.2349    1.7108 C   0  0  1  0  0  0  0  0  0  0  0  0
    3.3130    0.9866    2.4007 C   0  0  2  0  0  0  0  0  0  0  0  0
    4.5806    0.6625    3.0690 N   0  0  0  0  0  0  0  0  0  0  0  0
    3.7592   -0.9062    4.5157 O   0  0  0  0  0  0  0  0  0  0  0  0
    2.9116    2.8697    3.9151 O   0  0  0  0  0  0  0  0  0  0  0  0
    1.6452    0.3296    0.8688 O   0  0  0  0  0  0  0  0  0  0  0  0
    6.3744   -3.0541   -1.0439 H   0  0  0  0  0  0  0  0  0  0  0  0
    5.4813   -3.9330    1.1077 H   0  0  0  0  0  0  0  0  0  0  0  0
    5.5232   -0.8948   -1.9436 H   0  0  0  0  0  0  0  0  0  0  0  0
    3.7673   -2.6440    2.3619 H   0  0  0  0  0  0  0  0  0  0  0  0
    3.7931    0.3794   -0.6899 H   0  0  0  0  0  0  0  0  0  0  0  0
    6.1963   -1.0092    5.3981 H   0  0  0  0  0  0  0  0  0  0  0  0
    6.4615   -1.5320    3.7268 H   0  0  0  0  0  0  0  0  0  0  0  0
    6.8564    0.1340    4.1951 H   0  0  0  0  0  0  0  0  0  0  0  0
    2.0338    0.9864    4.1497 H   0  0  0  0  0  0  0  0  0  0  0  0
    1.4588    1.9968    2.8024 H   0  0  0  0  0  0  0  0  0  0  0  0
    2.2115   -0.8732    2.4776 H   0  0  0  0  0  0  0  0  0  0  0  0
    3.5668    1.7015    1.6122 H   0  0  0  0  0  0  0  0  0  0  0  0
    5.4236    0.9501    2.5901 H   0  0  0  0  0  0  0  0  0  0  0  0
    3.6867    2.5951    4.4312 H   0  0  0  0  0  0  0  0  0  0  0  0
    1.1857   -0.4043    0.4310 H   0  0  0  0  0  0  0  0  0  0  0  0
  1  2  1  0  0  0  0
  1  3  2  0  0  0  0
  1 16  1  0  0  0  0
  2  4  2  0  0  0  0
  2 17  1  0  0  0  0
  3  5  1  0  0  0  0
  3 18  1  0  0  0  0
  4  6  1  0  0  0  0
  4 19  1  0  0  0  0
  5  6  2  0  0  0  0
  5 20  1  0  0  0  0
  6 10  1  0  0  0  0
  7  8  1  0  0  0  0
  7 12  1  0  0  0  0
  7 13  2  0  0  0  0
  8 21  1  0  0  0  0
  8 22  1  0  0  0  0
  8 23  1  0  0  0  0
  9 11  1  0  0  0  0
  9 14  1  0  0  0  0
  9 24  1  0  0  0  0
  9 25  1  0  0  0  0
 10 11  1  0  0  0  0
 10 15  1  0  0  0  0
 10 26  1  0  0  0  0
 11 12  1  0  0  0  0
 11 27  1  0  0  0  0
 12 28  1  0  0  0  0
 14 29  1  0  0  0  0
 15 30  1  0  0  0  0
M  END
$$$$
