30
0 1 C14FH12NO2
C                     1.968579298283     6.117471380780     2.083675696152
C                     2.830046019872     6.332849717628     3.164801073251
C                     1.528836957419     4.826171378559     1.786809741640
C                     3.268832497356     5.256709973036     3.941696698613
C                     1.956150656013     3.740103824986     2.556918462896
C                     2.835584610813     3.976743517889     3.617829011251
C                     1.175959320275     0.368050936392     1.240676052691
C                     0.626939673448     0.286128065181     2.464982352335
C                     1.768836756273     1.730810161291     1.063850672813
C                     0.817451856748     1.591344877698     3.172226948256
C                     1.191806881251    -0.735412942266     0.232322294795
C                    -0.077014181071    -0.913801321121     3.010952472608
C                     0.813978506873    -2.064961624561     0.913651579846
C                    -0.382503580949    -1.902100538050     1.868754833002
N                     1.526264394160     2.420984971508     2.272277644973
O                     2.344517425204     2.180948553591     0.091650063820
O                     0.433414609115     1.912798580336     4.278761912148
F                     3.289538111505     2.925622700306     4.337028508835
H                     1.633379455582     6.953495770090     1.477094549520
H                     3.165889045721     7.337813582188     3.404358294746
H                     0.856815947130     4.644624055178     0.954086116348
H                     3.945039013626     5.391471141106     4.780187196603
H                     0.484447273955    -0.496711522032    -0.573185915889
H                     2.176425448425    -0.794875828706    -0.243689968507
H                     0.557863642672    -1.384215085330     3.773626116468
H                    -0.990575477992    -0.607850335837     3.531994451515
H                     0.588952597420    -2.819589335311     0.153196178060
H                     1.677944357800    -2.433431007832     1.480873880241
H                    -0.665955872148    -2.873634558386     2.286049391921
H                    -1.247319936072    -1.536084542037     1.301064581199
