
  -OEChem-05262117483D

 26 25  0     1  0  0  0  0  0999 V2000
   -2.6133    1.5736    1.9375 C   0  0  0  0  0  0  0  0  0  0  0  0
   -0.1270    0.9693    0.0467 C   0  0  0  0  0  0  0  0  0  0  0  0
   -2.8205    1.1848    3.3939 C   0  0  0  0  0  0  0  0  0  0  0  0
   -2.2888    1.6629   -1.1153 C   0  0  0  0  0  0  0  0  0  0  0  0
    2.0577    1.2595   -1.0892 C   0  0  0  0  0  0  0  0  0  0  0  0
    0.4457   -1.0816   -2.5214 C   0  0  0  0  0  0  0  0  0  0  0  0
   -1.6195    0.6416   -0.1789 C   0  0  2  0  0  0  0  0  0  0  0  0
   -2.2865    0.5083    1.1138 N   0  0  0  0  0  0  0  0  0  0  0  0
    0.7470    0.6332   -0.9715 N   0  0  0  0  0  0  0  0  0  0  0  0
   -2.7511    2.7271    1.5497 O   0  0  0  0  0  0  0  0  0  0  0  0
    0.2903    1.4524    1.0935 O   0  0  0  0  0  0  0  0  0  0  0  0
    0.1782    0.2949   -2.2181 O   0  0  0  0  0  0  0  0  0  0  0  0
   -1.8577    1.2612    3.9108 H   0  0  0  0  0  0  0  0  0  0  0  0
   -3.5150    1.8889    3.8539 H   0  0  0  0  0  0  0  0  0  0  0  0
   -3.1985    0.1646    3.5150 H   0  0  0  0  0  0  0  0  0  0  0  0
   -2.1496    2.6796   -0.7526 H   0  0  0  0  0  0  0  0  0  0  0  0
   -3.3631    1.4625   -1.1532 H   0  0  0  0  0  0  0  0  0  0  0  0
   -1.8702    1.5606   -2.1178 H   0  0  0  0  0  0  0  0  0  0  0  0
    2.7688    0.5532   -1.5260 H   0  0  0  0  0  0  0  0  0  0  0  0
    2.3844    1.5320   -0.0864 H   0  0  0  0  0  0  0  0  0  0  0  0
    2.0009    2.1559   -1.7171 H   0  0  0  0  0  0  0  0  0  0  0  0
   -0.0186   -1.2580   -3.4940 H   0  0  0  0  0  0  0  0  0  0  0  0
    0.0030   -1.7421   -1.7674 H   0  0  0  0  0  0  0  0  0  0  0  0
    1.5229   -1.2705   -2.5879 H   0  0  0  0  0  0  0  0  0  0  0  0
   -1.6861   -0.3394   -0.6591 H   0  0  0  0  0  0  0  0  0  0  0  0
   -2.0204   -0.3276    1.6203 H   0  0  0  0  0  0  0  0  0  0  0  0
  1  3  1  0  0  0  0
  1  8  1  0  0  0  0
  1 10  2  0  0  0  0
  2  7  1  0  0  0  0
  2  9  1  0  0  0  0
  2 11  2  0  0  0  0
  3 13  1  0  0  0  0
  3 14  1  0  0  0  0
  3 15  1  0  0  0  0
  4  7  1  0  0  0  0
  4 16  1  0  0  0  0
  4 17  1  0  0  0  0
  4 18  1  0  0  0  0
  5  9  1  0  0  0  0
  5 19  1  0  0  0  0
  5 20  1  0  0  0  0
  5 21  1  0  0  0  0
  6 12  1  0  0  0  0
  6 22  1  0  0  0  0
  6 23  1  0  0  0  0
  6 24  1  0  0  0  0
  7  8  1  0  0  0  0
  7 25  1  0  0  0  0
  8 26  1  0  0  0  0
  9 12  1  0  0  0  0
M  END
$$$$
