
  -OEChem-05262117483D

 30 31  0     0  0  0  0  0  0999 V2000
    0.0123    1.6359    6.9381 C   0  0  0  0  0  0  0  0  0  0  0  0
    1.9200   -1.0526    0.0054 C   0  0  0  0  0  0  0  0  0  0  0  0
    0.4518    2.1329    5.7063 C   0  0  0  0  0  0  0  0  0  0  0  0
    0.2309    0.2890    7.2471 C   0  0  0  0  0  0  0  0  0  0  0  0
    0.9455   -0.3365    0.7202 C   0  0  0  0  0  0  0  0  0  0  0  0
    2.8940   -1.7406    0.7142 C   0  0  0  0  0  0  0  0  0  0  0  0
    1.0986    1.3013    4.7901 C   0  0  0  0  0  0  0  0  0  0  0  0
    0.8596   -0.5540    6.3294 C   0  0  0  0  0  0  0  0  0  0  0  0
    0.9620   -0.2929    2.1067 C   0  0  0  0  0  0  0  0  0  0  0  0
    2.9380   -1.7202    2.1235 C   0  0  0  0  0  0  0  0  0  0  0  0
    1.2965   -0.0584    5.0887 C   0  0  0  0  0  0  0  0  0  0  0  0
    1.9632   -0.9654    2.8484 C   0  0  0  0  0  0  0  0  0  0  0  0
    3.9752   -2.4937    2.8307 C   0  0  0  0  0  0  0  0  0  0  0  0
    5.9030   -3.8476    2.6416 C   0  0  0  0  0  0  0  0  0  0  0  0
    1.9805   -0.9366    4.2255 N   0  0  0  0  0  0  0  0  0  0  0  0
    4.0513   -2.6414    4.0519 O   0  0  0  0  0  0  0  0  0  0  0  0
    4.8795   -3.0639    1.9982 O   0  0  0  0  0  0  0  0  0  0  0  0
   -0.4862    2.2895    7.6486 H   0  0  0  0  0  0  0  0  0  0  0  0
    1.9032   -1.0805   -1.0798 H   0  0  0  0  0  0  0  0  0  0  0  0
    0.3083    3.1823    5.4612 H   0  0  0  0  0  0  0  0  0  0  0  0
   -0.0996   -0.1121    8.2019 H   0  0  0  0  0  0  0  0  0  0  0  0
    0.1538    0.1842    0.1867 H   0  0  0  0  0  0  0  0  0  0  0  0
    3.6457   -2.3169    0.1875 H   0  0  0  0  0  0  0  0  0  0  0  0
    1.4745    1.7109    3.8584 H   0  0  0  0  0  0  0  0  0  0  0  0
    1.0118   -1.6050    6.5624 H   0  0  0  0  0  0  0  0  0  0  0  0
    0.1789    0.2373    2.6352 H   0  0  0  0  0  0  0  0  0  0  0  0
    6.5278   -4.2250    1.8320 H   0  0  0  0  0  0  0  0  0  0  0  0
    5.4580   -4.6732    3.2018 H   0  0  0  0  0  0  0  0  0  0  0  0
    6.4891   -3.2265    3.3229 H   0  0  0  0  0  0  0  0  0  0  0  0
    2.6335   -1.5917    4.6513 H   0  0  0  0  0  0  0  0  0  0  0  0
  1  3  1  0  0  0  0
  1  4  2  0  0  0  0
  1 18  1  0  0  0  0
  2  5  1  0  0  0  0
  2  6  2  0  0  0  0
  2 19  1  0  0  0  0
  3  7  2  0  0  0  0
  3 20  1  0  0  0  0
  4  8  1  0  0  0  0
  4 21  1  0  0  0  0
  5  9  2  0  0  0  0
  5 22  1  0  0  0  0
  6 10  1  0  0  0  0
  6 23  1  0  0  0  0
  7 11  1  0  0  0  0
  7 24  1  0  0  0  0
  8 11  2  0  0  0  0
  8 25  1  0  0  0  0
  9 12  1  0  0  0  0
  9 26  1  0  0  0  0
 10 12  2  0  0  0  0
 10 13  1  0  0  0  0
 11 15  1  0  0  0  0
 12 15  1  0  0  0  0
 13 16  2  0  0  0  0
 13 17  1  0  0  0  0
 14 17  1  0  0  0  0
 14 27  1  0  0  0  0
 14 28  1  0  0  0  0
 14 29  1  0  0  0  0
 15 30  1  0  0  0  0
M  END
$$$$
