20   
torsion grid (-165,)
C        3.2772745400   -2.9897813594   -2.4159116576
C        4.0921741653   -0.4764480144   -2.3126658526
C        2.8596703485   -0.8323207883   -1.7638277106
C        4.8834205061   -1.4768908888   -2.9189185544
C        1.6510433490   -0.3034438408    0.3628186566
C        0.5977566452    0.2194615031   -1.8940692040
C        1.9077816687    0.1329931795   -1.0902199550
N        2.4570741073   -2.1200945151   -1.8309439702
N        4.4754490262   -2.7420053492   -2.9553358403
O        6.0849275709   -1.2301217034   -3.4745489719
Br       4.7754110228    1.3260066121   -2.2674419840
H        2.9413597427   -4.0243054271   -2.4563349907
H        1.1975129532   -1.2977265261    0.3899152558
H        0.9728064633    0.4042687768    0.8504572502
H        2.5819254324   -0.3346831687    0.9386916248
H        0.1126734575   -0.7593393247   -1.9409614914
H        0.7814591782    0.5619493606   -2.9178148939
H       -0.0877533730    0.9268203521   -1.4161803574
H        2.3689491332    1.1228691605   -1.0765127675
H        6.3929931891   -0.3493933210   -3.1905555137
20   
torsion grid (-150,)
C        3.2729377454   -2.9918763101   -2.4193413619
C        4.0738734093   -0.4721978890   -2.3393315047
C        2.8488295640   -0.8332015453   -1.7747224481
C        4.8632595842   -1.4705678209   -2.9494321122
C        1.6547436746   -0.3046222044    0.3604807585
C        0.5817455125    0.2090256573   -1.8892366024
C        1.8983959955    0.1295502862   -1.0954876645
N        2.4528792003   -2.1231158678   -1.8332614689
N        4.4680397034   -2.7397895595   -2.9652694080
O        6.0589688082   -1.2134228563   -3.5225589604
Br       4.7486609202    1.3308022226   -2.3006632023
H        2.9443031075   -4.0291119540   -2.4479965583
H        1.2049931268   -1.3004514813    0.3935828631
H        0.9778821661    0.4017682701    0.8519294751
H        2.5902194951   -0.3311103621    0.9291495891
H        0.1000326577   -0.7717359259   -1.9302951836
H        0.7561449940    0.5501566898   -2.9150455159
H       -0.1027632470    0.9147121880   -1.4074624769
H        2.3559834385    1.1210531922   -1.0878743694
H        6.4729949937   -0.4502405777   -3.0812686244
20   
torsion grid (-135,)
C        3.2921741093   -2.9593061609   -2.4331758832
C        4.0815234413   -0.4336853269   -2.3404524738
C        2.8570570933   -0.8049302883   -1.7776118192
C        4.8735007113   -1.4250978521   -2.9556796556
C        1.6716731041   -0.2896239184    0.3649980695
C        0.5780372662    0.2142458027   -1.8770076094
C        1.9008573227    0.1477949966   -1.0924726589
N        2.4685928080   -2.0963450256   -1.8439502182
N        4.4874575674   -2.6965769001   -2.9757684343
O        6.0670834689   -1.1482990683   -3.5371813791
Br       4.7460394787    1.3692346133   -2.2881478471
H        2.9689658637   -3.9980948962   -2.4664917366
H        1.2330091005   -1.2903820888    0.4007653185
H        0.9903232578    0.4089825447    0.8613254541
H        2.6111152483   -0.3058308085    0.9275364893
H        0.1053117089   -0.7709982419   -1.9149652942
H        0.7420835791    0.5572178171   -2.9038926461
H       -0.1098007108    0.9133757448   -1.3904386851
H        2.3487994223    1.1435437271   -1.0876612237
H        6.5846447680   -0.5550762211   -2.9661025151
20   
torsion grid (-120,)
C        3.2925089427   -2.9578227312   -2.4310555379
C        4.0682389932   -0.4258640649   -2.3541227684
C        2.8486201400   -0.8031721281   -1.7801680349
C        4.8602712542   -1.4147203408   -2.9702056220
C        1.6651460814   -0.2915812022    0.3650086769
C        0.5641865524    0.2035709355   -1.8753606641
C        1.8890477029    0.1450300903   -1.0934969584
N        2.4693885711   -2.0969824458   -1.8383255758
N        4.4808985287   -2.6879035490   -2.9865369202
O        6.0413075061   -1.1172550354   -3.5798319227
Br       4.7169101510    1.3794349747   -2.3159119701
H        2.9751245668   -3.9985425654   -2.4579860789
H        1.2312694889   -1.2943496310    0.4034323994
H        0.9816332624    0.4045126938    0.8618960897
H        2.6058658666   -0.3023507116    0.9255709085
H        0.0963128716   -0.7841331661   -1.9112129645
H        0.7243675222    0.5463453455   -2.9029095974
H       -0.1262850114    0.8996715017   -1.3881885403
H        2.3321436032    1.1427800012   -1.0914196176
H        6.6620610741   -0.7270279207   -2.9423343122
20   
torsion grid (-105,)
C        3.3123224009   -2.9346307763   -2.4335004029
C        4.0717542642   -0.3954387604   -2.3454285022
C        2.8518938681   -0.7849374455   -1.7764929089
C        4.8695119843   -1.3770362747   -2.9628924274
C        1.6644100675   -0.2846703763    0.3691387899
C        0.5586607555    0.2021176921   -1.8707495730
C        1.8841726694    0.1545217652   -1.0892602681
N        2.4831295273   -2.0809828042   -1.8387381555
N        4.4955865535   -2.6517477345   -2.9937464655
O        6.0385204573   -1.0521211415   -3.5898491601
Br       4.7041340587    1.4127124622   -2.2983205533
H        3.0010830406   -3.9769969382   -2.4663907085
H        1.2394020318   -1.2912887688    0.4073725630
H        0.9748125834    0.4050983796    0.8664316674
H        2.6052961639   -0.2870978770    0.9295416823
H        0.0987796575   -0.7893423509   -1.9067623795
H        0.7157448230    0.5465505465   -2.8982161053
H       -0.1373429019    0.8924497460   -1.3832370217
H        2.3190636829    1.1557667711   -1.0870726092
H        6.7427423572   -0.8928396750   -2.9403437936
20   
torsion grid (-90,)
C        3.3329847148   -2.9141730456   -2.4306716246
C        4.0771926769   -0.3686014043   -2.3314540973
C        2.8562163204   -0.7691247499   -1.7697691262
C        4.8821266863   -1.3436395461   -2.9479100527
C        1.6580232669   -0.2804789504    0.3727872061
C        0.5551847559    0.1989935996   -1.8701039880
C        1.8786578930    0.1616788517   -1.0845933811
N        2.4972629621   -2.0673834859   -1.8351067358
N        4.5107592324   -2.6191310609   -2.9956931702
O        6.0368205559   -0.9924787110   -3.5897371333
Br       4.6943137589    1.4424850225   -2.2749385074
H        3.0282372468   -3.9582881335   -2.4681722753
H        1.2413111476   -1.2906597883    0.4090673320
H        0.9611404377    0.4031314781    0.8684450929
H        2.5971829730   -0.2752868571    0.9360637223
H        0.1033500007   -0.7961011442   -1.9082145016
H        0.7126125265    0.5454697698   -2.8968330160
H       -0.1478480208    0.8833777741   -1.3842756786
H        2.3054779052    1.1662739580   -1.0804369316
H        6.7984853058   -1.0701655968   -2.9925144992
20   
torsion grid (-75,)
C        3.3573172229   -2.8905097705   -2.4282816227
C        4.0860856145   -0.3379689694   -2.3124327317
C        2.8639465077   -0.7505953415   -1.7615721476
C        4.9008308555   -1.3067770558   -2.9251961889
C        1.6514915275   -0.2769674852    0.3763714707
C        0.5544723830    0.1964107866   -1.8706200200
C        1.8746579528    0.1699104047   -1.0792073633
N        2.5144482188   -2.0514956232   -1.8320585640
N        4.5320102999   -2.5829414902   -2.9924731122
O        6.0449068863   -0.9329291946   -3.5691014978
Br       4.6878581901    1.4766983080   -2.2457224752
H        3.0598596287   -3.9365421830   -2.4716978567
H        1.2441301208   -1.2910850035    0.4090443281
H        0.9459669563    0.3992166941    0.8700369555
H        2.5880234525   -0.2638350336    0.9438693817
H        0.1119189545   -0.8027125813   -1.9125117400
H        0.7133802184    0.5461383144   -2.8960293440
H       -0.1569828118    0.8735133204   -1.3868327755
H        2.2921838556    1.1782912341   -1.0713136477
H        6.8242910041   -1.2352742590   -3.0747297725
20   
torsion grid (-60,)
C        3.3692686697   -2.8873170001   -2.4152268861
C        4.0849583812   -0.3295527734   -2.3028583710
C        2.8639554876   -0.7487295037   -1.7559790842
C        4.9071050620   -1.2968092385   -2.9079822384
C        1.6382427911   -0.2811629595    0.3761060996
C        0.5528916497    0.1922477827   -1.8764645389
C        1.8687019796    0.1681196391   -1.0774496279
N        2.5205459333   -2.0521453680   -1.8230634980
N        4.5406363189   -2.5739903692   -2.9828750653
O        6.0454520821   -0.9128093087   -3.5481789878
Br       4.6734084256    1.4893212605   -2.2468761765
H        3.0761598899   -3.9344467398   -2.4608577340
H        1.2331332690   -1.2962666235    0.4053290959
H        0.9283282034    0.3928793024    0.8664193093
H        2.5715320961   -0.2664847827    0.9488640153
H        0.1134101245   -0.8080738529   -1.9222323739
H        0.7167707930    0.5438678250   -2.9004484043
H       -0.1633363862    0.8666924356   -1.3959508715
H        2.2834896632    1.1775842184   -1.0661243810
H        6.8010483766   -1.4101897840   -3.1928451868
20   
torsion grid (-45,)
C        3.4370862917   -2.8061440044   -2.4320261056
C        4.1088146602   -0.2368493483   -2.2571410651
C        2.8862853105   -0.6878189487   -1.7441011200
C        4.9578256238   -1.1813240777   -2.8623809370
C        1.6425537143   -0.2645392659    0.3851274308
C        0.5513727520    0.1954909848   -1.8673815802
C        1.8651338565    0.1996603591   -1.0652301348
N        2.5647043267   -1.9964713860   -1.8409612372
N        4.6145066758   -2.4627887755   -2.9704289089
O        6.1043042471   -0.7701556664   -3.4584539845
Br       4.6670022643    1.5896754392   -2.1606777285
H        3.1629995720   -3.8569824601   -2.5034581022
H        1.2640888086   -1.2901411067    0.4065957332
H        0.9137171400    0.3873394395    0.8776822191
H        2.5736058515   -0.2289126107    0.9605702561
H        0.1366662653   -0.8149378391   -1.9198592148
H        0.7091260361    0.5565447319   -2.8890589130
H       -0.1821999437    0.8497336051   -1.3850944835
H        2.2543574687    1.2191800380   -1.0460193556
H        6.8024526886   -1.4186545335   -3.2631285464
20   
torsion grid (-30,)
C        3.4638593511   -2.7806181297   -2.4290740131
C        4.1157751339   -0.2055286622   -2.2359233159
C        2.8940430105   -0.6688135326   -1.7365476277
C        4.9773961243   -1.1425919289   -2.8359402605
C        1.6354579343   -0.2605255852    0.3862622544
C        0.5515349247    0.1937798532   -1.8708851554
C        1.8611193212    0.2082459578   -1.0621941422
N        2.5814147546   -1.9804573282   -1.8420079155
N        4.6461370961   -2.4270124167   -2.9514344913
O        6.1345458673   -0.7293970018   -3.3969284040
Br       4.6610270538    1.6242862638   -2.1340311852
H        3.1985315789   -3.8331034100   -2.5087210755
H        1.2664638193   -1.2896483322    0.4039763730
H        0.8980406141    0.3836655357    0.8761838950
H        2.5632301013   -0.2172474204    0.9664250207
H        0.1459351722   -0.8201253061   -1.9268938157
H        0.7112899700    0.5576431887   -2.8912675013
H       -0.1901094083    0.8409631164   -1.3914027539
H        2.2411365686    1.2312235345   -1.0390892282
H        6.7504434286   -1.4838620851   -3.3799283496
20   
torsion grid (-15,)
C        3.4663742904   -2.7881794219   -2.4169533918
C        4.1178893692   -0.2115630330   -2.2257268493
C        2.8958366013   -0.6747070013   -1.7299089070
C        4.9811277798   -1.1502914963   -2.8214624252
C        1.6250429933   -0.2646127528    0.3853047304
C        0.5552438664    0.1905373046   -1.8783856087
C        1.8599741430    0.2035807780   -1.0618266644
N        2.5823543748   -1.9871717113   -1.8347739293
N        4.6543131453   -2.4368677740   -2.9287404505
O        6.1535632903   -0.7493655932   -3.3495043189
Br       4.6647950752    1.6179015642   -2.1300006220
H        3.2023177830   -3.8410800726   -2.4949248814
H        1.2543885989   -1.2931550063    0.4010166504
H        0.8857689633    0.3808455418    0.8707577481
H        2.5494697662   -0.2227328325    0.9708551564
H        0.1490956564   -0.8230029158   -1.9370530559
H        0.7214971861    0.5545305087   -2.8976956028
H       -0.1887345667    0.8382437557   -1.4032291606
H        2.2410352974    1.2261553790   -1.0366293458
H        6.6714442912   -1.5586221220   -3.5179798004
20   
torsion grid (0,)
C        3.4839867588   -2.7729781514   -2.4118470585
C        4.1283837876   -0.1946994558   -2.2032157549
C        2.9025073617   -0.6626726574   -1.7228415477
C        4.9985584119   -1.1298548213   -2.7946672432
C        1.6206532105   -0.2574099625    0.3854685249
C        0.5565107721    0.1885404119   -1.8827032350
C        1.8580426151    0.2104579623   -1.0615036402
N        2.5921028726   -1.9755308620   -1.8373678705
N        4.6806976866   -2.4187995263   -2.9012138743
O        6.1917580154   -0.7338903010   -3.2741161849
Br       4.6719548279    1.6350676869   -2.0957040328
H        3.2222657698   -3.8257735765   -2.4985484899
H        1.2565419480   -1.2883266377    0.4009450106
H        0.8753392929    0.3837882576    0.8673211243
H        2.5425799274   -0.2088557275    0.9744042170
H        0.1562955061   -0.8273251465   -1.9412563299
H        0.7243835011    0.5518082314   -2.9020206558
H       -0.1928201559    0.8328511684   -1.4113503963
H        2.2329852560    1.2352962357   -1.0358533074
H        6.6189728447   -1.5349253273   -3.6324092398
20   
torsion grid (15,)
C        3.4551023798   -2.8132129732   -2.3995842017
C        4.1361242249   -0.2459143870   -2.1862753753
C        2.8977352881   -0.6943862921   -1.7182914197
C        4.9980242293   -1.1935181467   -2.7697593671
C        1.6206228357   -0.2553072907    0.3846019134
C        0.5582129241    0.1765182072   -1.8871269593
C        1.8606208768    0.1953906560   -1.0675819913
N        2.5685389851   -2.0019056054   -1.8358047516
N        4.6656145136   -2.4793588413   -2.8683521507
O        6.2179332941   -0.8205690894   -3.2022390239
Br       4.7047980409    1.5758489047   -2.0725939963
H        3.1783309717   -3.8620138037   -2.4880183744
H        1.2472435316   -1.2827484943    0.4108782440
H        0.8815251579    0.3973437310    0.8606098396
H        2.5435829619   -0.2089815843    0.9720716854
H        0.1488465366   -0.8361859533   -1.9350906472
H        0.7281649198    0.5279397696   -2.9102633403
H       -0.1847506661    0.8323359028   -1.4216003333
H        2.2448988704    1.2169696971   -1.0525727195
H        6.5572471885   -1.5589061779   -3.7418849183
20   
torsion grid (30,)
C        3.4640399205   -2.8119191221   -2.3882648917
C        4.1416792279   -0.2435022026   -2.1776156055
C        2.9015691741   -0.6928035244   -1.7121678917
C        5.0063699209   -1.1905697726   -2.7570102577
C        1.6134758646   -0.2507193309    0.3834843268
C        0.5650605737    0.1832204493   -1.8943791082
C        1.8627621591    0.1993754398   -1.0673366096
N        2.5741314021   -1.9998303799   -1.8292922666
N        4.6787929158   -2.4783114567   -2.8448598564
O        6.2426076388   -0.8190447961   -3.1535227156
Br       4.7024032291    1.5810617389   -2.0665926336
H        3.1888444814   -3.8613729499   -2.4742301272
H        1.2375841877   -1.2772770556    0.4076963810
H        0.8732167186    0.4037072307    0.8552248582
H        2.5331620132   -0.2065152556    0.9762082971
H        0.1539194957   -0.8286638853   -1.9447133686
H        0.7415368892    0.5344062999   -2.9165088967
H       -0.1792277876    0.8404939437   -1.4330663706
H        2.2491602914    1.2201190875   -1.0501750531
H        6.5173467100   -1.4349945305   -3.8567407008
20   
torsion grid (45,)
C        3.3547180334   -2.9370072020   -2.3751969366
C        4.1470650262   -0.4058619989   -2.1641357330
C        2.8790254958   -0.7926352600   -1.7131016201
C        4.9758278581   -1.3918592080   -2.7299113817
C        1.6325959674   -0.2627029188    0.3843974287
C        0.5639688037    0.1471478868   -1.8885118783
C        1.8733778560    0.1453719864   -1.0806105405
N        2.4948658695   -2.0825779643   -1.8306428975
N        4.5900340247   -2.6632411846   -2.8145797452
O        6.2455737911   -1.0793699537   -3.0870094010
Br       4.7881486961    1.3918931950   -2.0477980210
H        3.0315219404   -3.9727073755   -2.4611066523
H        1.2287696126   -1.2776162600    0.4382922848
H        0.9172666590    0.4228472371    0.8503251869
H        2.5615168022   -0.2300216227    0.9632748915
H        0.1224392101   -0.8527924284   -1.9083742215
H        0.7354780847    0.4679522217   -2.9214301687
H       -0.1536433873    0.8374700434   -1.4332546083
H        2.2894689971    1.1543444207   -1.0928903199
H        6.4498551920   -1.5352597397   -3.9217967936
20   
torsion grid (60,)
C        3.4243605873   -2.8694861114   -2.3595785058
C        4.1556893857   -0.3215444313   -2.1618594045
C        2.8975639922   -0.7357169911   -1.7026728180
C        5.0085117631   -1.2893086419   -2.7223069888
C        1.6105476889   -0.2468742086    0.3824933875
C        0.5759143747    0.1774689402   -1.9034921970
C        1.8713850600    0.1818046844   -1.0728948216
N        2.5454886295   -2.0338013215   -1.8141108897
N        4.6511037342   -2.5686415421   -2.8038016204
O        6.2784165218   -0.9497094211   -3.0755472377
Br       4.7446789810    1.4955002672   -2.0665394787
H        3.1238236355   -3.9122038708   -2.4426810885
H        1.2175086298   -1.2667269903    0.4176592968
H        0.8798470365    0.4251964497    0.8441578510
H        2.5290778214   -0.2108805817    0.9775120036
H        0.1479353280   -0.8278797086   -1.9430899062
H        0.7608600565    0.5134956809   -2.9292500761
H       -0.1585299925    0.8525503715   -1.4522929461
H        2.2748919161    1.1959016182   -1.0665440177
H        6.4328146703   -1.1931777618   -4.0036120375
20   
torsion grid (75,)
C        3.4020250499   -2.9012273142   -2.3454563181
C        4.1616914063   -0.3624225848   -2.1535624692
C        2.8955689138   -0.7585598652   -1.6980465499
C        5.0072236752   -1.3419432684   -2.7040429513
C        1.6105657253   -0.2456375252    0.3824342484
C        0.5821934293    0.1738208159   -1.9073146218
C        1.8767190796    0.1718742123   -1.0752877067
N        2.5312710555   -2.0528021462   -1.8052736639
N        4.6321941046   -2.6152446419   -2.7899099535
O        6.2870280700   -1.0230428453   -3.0566402436
Br       4.7691835570    1.4496304909   -2.0679633079
H        3.0890224033   -3.9404714491   -2.4261302812
H        1.2086440764   -1.2618236744    0.4233448074
H        0.8851853051    0.4354682169    0.8391829661
H        2.5287048482   -0.2139881719    0.9782826555
H        0.1453824129   -0.8279301791   -1.9411835408
H        0.7710622235    0.5018255763   -2.9349624654
H       -0.1467316746    0.8581093341   -1.4611118311
H        2.2891276328    1.1823839221   -1.0746133400
H        6.3840612182   -1.0377488648   -4.0229101234
20   
torsion grid (90,)
C        3.4043758821   -2.9086909685   -2.3335868425
C        4.1678890775   -0.3725951154   -2.1534593578
C        2.9007577360   -0.7622845622   -1.6962792971
C        5.0142776491   -1.3561360385   -2.6964298972
C        1.6105200178   -0.2370890465    0.3783219524
C        0.5924105365    0.1786199883   -1.9167453105
C        1.8838110960    0.1742783700   -1.0797534876
N        2.5357964977   -2.0568412313   -1.7949528169
N        4.6317295886   -2.6259796159   -2.7886129777
O        6.2920997866   -1.0480280155   -3.0717096061
Br       4.7790187157    1.4402683643   -2.0826974992
H        3.0893320941   -3.9476632155   -2.4093135653
H        1.2041367489   -1.2513649839    0.4212940031
H        0.8864068865    0.4487381940    0.8299621811
H        2.5265663405   -0.2073296820    0.9774629653
H        0.1519588257   -0.8216207117   -1.9488469011
H        0.7863344148    0.5023827144   -2.9448023542
H       -0.1356426911    0.8670792125   -1.4756198001
H        2.3002050374    1.1832375657   -1.0810947426
H        6.3274098555   -0.8231411989   -4.0156997156
20   
torsion grid (105,)
C        3.3640317226   -2.9578143747   -2.3220276360
C        4.1684257371   -0.4376687896   -2.1389783530
C        2.8919222151   -0.8028845545   -1.6910607896
C        5.0036697170   -1.4352301091   -2.6760496935
C        1.6155856342   -0.2413669260    0.3817344848
C        0.5939366452    0.1641582413   -1.9135973049
C        1.8882745264    0.1522924003   -1.0813942789
N        2.5065771070   -2.0919234689   -1.7881466627
N        4.5944733195   -2.6950319670   -2.7814073739
O        6.2804067040   -1.1561740246   -3.0727568567
Br       4.8123084834    1.3655700529   -2.0676163550
H        3.0317986143   -3.9913110114   -2.3994404859
H        1.1977081902   -1.2504504140    0.4359194656
H        0.9009350789    0.4570482627    0.8291025396
H        2.5340672103   -0.2163671980    0.9773554359
H        0.1408952464   -0.8306741243   -1.9337201634
H        0.7879180608    0.4746203757   -2.9457336042
H       -0.1236450059    0.8663611161   -1.4770018696
H        2.3167178898    1.1562428598   -1.0939552466
H        6.2805817948   -0.6984848398   -3.9293135603
20   
torsion grid (120,)
C        3.3513147790   -2.9778631941   -2.3162704850
C        4.1685866546   -0.4618279339   -2.1426189491
C        2.8920679684   -0.8179427814   -1.6927207828
C        4.9978508465   -1.4665462782   -2.6789139898
C        1.6231310843   -0.2380778293    0.3795211939
C        0.5986276642    0.1590324073   -1.9159767540
C        1.8946091481    0.1457875128   -1.0864215883
N        2.4996309127   -2.1061700311   -1.7825942883
N        4.5782304982   -2.7224302148   -2.7881928873
O        6.2635167492   -1.2040945767   -3.1065926993
Br       4.8264851065    1.3400025860   -2.0802731899
H        3.0131382130   -4.0096773573   -2.3907046027
H        1.2008013432   -1.2449113939    0.4401518259
H        0.9125730994    0.4661278836    0.8243168561
H        2.5429344115   -0.2140316066    0.9731468425
H        0.1408396786   -0.8336984026   -1.9291173677
H        0.7919067589    0.4621471554   -2.9504152852
H       -0.1145483058    0.8673619971   -1.4820743029
H        2.3274784257    1.1478608501   -1.1055441564
H        6.2491386535   -0.5458888293   -3.8211916877
20   
torsion grid (135,)
C        3.3331807389   -2.9979531936   -2.3163015449
C        4.1638978774   -0.4897113641   -2.1508292307
C        2.8876987607   -0.8352349498   -1.6967949209
C        4.9885500922   -1.4993616766   -2.6886240571
C        1.6334587043   -0.2385964057    0.3792022537
C        0.5966002930    0.1495266337   -1.9122415349
C        1.8974903467    0.1360227258   -1.0904923211
N        2.4869327080   -2.1217885620   -1.7811441726
N        4.5583609567   -2.7520990307   -2.7961614910
O        6.2437505469   -1.2526121015   -3.1389316277
Br       4.8349018945    1.3109206401   -2.0972642352
H        2.9892280363   -4.0281280002   -2.3872781926
H        1.2081994466   -1.2436730140    0.4476721548
H        0.9278209860    0.4703799063    0.8242595770
H        2.5568148915   -0.2145186853    0.9673087857
H        0.1350343153   -0.8414662349   -1.9166350294
H        0.7848779389    0.4454482819   -2.9496596274
H       -0.1111234743    0.8633058114   -1.4783232926
H        2.3335210990    1.1366743898   -1.1176655329
H        6.2509362489   -0.4386960350   -3.6713060637
20   
torsion grid (150,)
C        3.3339767923   -2.9974071320   -2.3182735714
C        4.1571174676   -0.4874915327   -2.1778150628
C        2.8882448739   -0.8329716525   -1.7085182600
C        4.9817238627   -1.4974248367   -2.7184054479
C        1.6477130306   -0.2267354521    0.3732179426
C        0.5966532261    0.1518304795   -1.9133536796
C        1.9026291921    0.1414008941   -1.0996637806
N        2.4890976663   -2.1212500358   -1.7805123179
N        4.5540904258   -2.7528564011   -2.8097324618
O        6.2229729845   -1.2565312189   -3.1934000509
Br       4.8253099893    1.3180061511   -2.1432437681
H        2.9925430815   -4.0290780049   -2.3797016821
H        1.2225384239   -1.2313080868    0.4484084196
H        0.9452111040    0.4844501615    0.8197217554
H        2.5747513516   -0.2008001035    0.9554518552
H        0.1353170098   -0.8392503446   -1.9107915041
H        0.7785327730    0.4434444332   -2.9531067610
H       -0.1083507436    0.8673045316   -1.4777990002
H        2.3383817362    1.1421471368   -1.1338084763
H        6.2721740521   -0.3417654219   -3.5241109722
20   
torsion grid (165,)
C        3.2729116405   -3.0074862349   -2.4026021015
C        4.1096071500   -0.5023111477   -2.2641854060
C        2.8646790272   -0.8512253172   -1.7395936914
C        4.9050018185   -1.5065186407   -2.8585191936
C        1.6195675114   -0.3225973331    0.3662175050
C        0.6151857977    0.2210468658   -1.9080226052
C        1.9084643295    0.1188824084   -1.0791356652
N        2.4553182319   -2.1363665755   -1.8159402957
N        4.4733365845   -2.7619138243   -2.9380844051
O        6.1193808408   -1.2672923320   -3.3887871132
Br       4.7883683461    1.3020929058   -2.2336409784
H        2.9252042978   -4.0371371694   -2.4633315667
H        1.1567352982   -1.3128361962    0.3794841690
H        0.9383607989    0.3889305703    0.8440730862
H        2.5387954165   -0.3650866598    0.9597463141
H        0.1227036755   -0.7532754374   -1.9694168243
H        0.8217517526    0.5670730448   -2.9262481770
H       -0.0735499749    0.9319160569   -1.4400951773
H        2.3778532757    1.1046093294   -1.0513836037
H        6.2371462087   -0.3050481061   -3.4954699711
20   
torsion grid (180,)
C        3.2735146748   -3.0007257129   -2.4088587506
C        4.1005005587   -0.4927091251   -2.2902014359
C        2.8620694223   -0.8434197241   -1.7525740666
C        4.8942135323   -1.4952306972   -2.8904576946
C        1.6361941091   -0.3125905583    0.3638092067
C        0.6070560280    0.2203711674   -1.9018392596
C        1.9089637976    0.1254354245   -1.0857533448
N        2.4550899281   -2.1297062017   -1.8230643422
N        4.4726991007   -2.7555178219   -2.9467430340
O        6.1011515376   -1.2551615983   -3.4334479120
Br       4.7828617363    1.3111258422   -2.2543159807
H        2.9314411307   -4.0329012787   -2.4577617873
H        1.1771977260   -1.3044879840    0.3845618481
H        0.9571405934    0.3978128187    0.8463783844
H        2.5614313867   -0.3499725791    0.9483071814
H        0.1175842624   -0.7559100097   -1.9553228739
H        0.8021453421    0.5639689679   -2.9231223446
H       -0.0794758554    0.9301781394   -1.4290734374
H        2.3749739104    1.1129914701   -1.0656166288
H        6.3092103212   -0.3065905537   -3.3374158377
