25   
torsion grid (-165,)
C        2.4635612749   -0.3268752563    0.3822134030
C        1.1920055107    0.1490441903    0.7155631219
C        0.2330575474   -1.9808470983    0.0636749963
C        7.7827922933   -3.0950109276   -1.5003249517
C        6.0178261502   -2.3587553810   -2.6289093521
C        7.1754515066   -3.0993397951   -2.7899640008
C        2.6393205794   -1.6242644831   -0.1195676946
C        0.0860164217   -0.6809817442    0.5536924232
C        1.5028261941   -2.4435919270   -0.2719266142
C        4.9478050303   -1.2640326437   -0.6398305595
N        7.0559623572   -2.4188235793   -0.6122770808
N        5.9924345192   -1.9589753717   -1.3117781349
N        7.7075412456   -3.6561154367   -3.9709921592
O        3.8434339759   -2.1640797847   -0.4555646650
Cl      -1.5159162090   -0.0968641993    0.9697397826
Cl       1.6870037647   -4.0645697151   -0.8959706089
H        3.3182015306    0.3226936915    0.5341645515
H        1.0702339455    1.1547545104    1.1041037047
H       -0.6287836576   -2.6270181997   -0.0621283823
H        8.7184838957   -3.5512843109   -1.1989243096
H        5.2252408085   -2.1003560140   -3.3176735727
H        5.3429935624   -0.9299705573    0.3225602467
H        4.6146778318   -0.4099150812   -1.2405469007
H        6.9915562574   -3.8519045399   -4.6632084203
H        8.2285750423   -4.5078083968   -3.7874233661
25   
torsion grid (-150,)
C        1.8001090275   -2.5687967307   -1.9938108651
C        0.4667681741   -2.2053302873   -2.1850211113
C        0.5078778743   -0.9950614323   -0.0737302542
C        7.1227434045   -3.6573440150   -2.8265794753
C        6.9552807409   -2.8952895991   -0.7487663280
C        7.7426626028   -3.7090023066   -1.5442451580
C        2.5007405244   -2.1598229588   -0.8541473240
C       -0.1665879494   -1.4204451253   -1.2189493283
C        1.8424557004   -1.3671258886    0.0988017318
C        4.8073298303   -1.6647165919   -1.1600363700
N        6.0379867530   -2.8836949873   -2.8226827372
N        5.9563838909   -2.4048752545   -1.5596370748
N        8.9477449032   -4.3645640292   -1.2151208380
O        3.7965710653   -2.5747033022   -0.6689662610
Cl      -1.8439616789   -0.9565609212   -1.4410662013
Cl       2.7017112760   -0.8381808944    1.5296445013
H        2.3219807809   -3.1827819463   -2.7220785819
H       -0.0743936686   -2.5280195928   -3.0683337334
H        0.0080516484   -0.3866052721    0.6718677687
H        7.4385976455   -4.1435820918   -3.7424243873
H        7.0204468772   -2.6276121185    0.2970836249
H        5.0781970263   -0.9691602338   -0.3604082254
H        4.4297942303   -1.1240140945   -2.0303549935
H        9.0580501738   -5.2339239827   -1.7276346681
H        9.0231428082   -4.5579620677   -0.2216070407
25   
torsion grid (-135,)
C        2.0649128520   -2.3574247288   -2.0135448374
C        0.7207964230   -2.1606520924   -2.3288982033
C        0.3487828923   -1.2267580575   -0.1130238749
C        6.8591095507   -3.8544203265   -2.7521072596
C        7.0137289819   -2.7440780714   -0.8361159126
C        7.6504404656   -3.7270328391   -1.5741463293
C        2.5695126280   -1.9864978661   -0.7608437885
C       -0.1261784213   -1.5988396269   -1.3706426116
C        1.7011056589   -1.4161276934    0.1814597227
C        4.8656992156   -1.4797056491   -1.1725071060
N        5.8159994449   -3.0248561800   -2.7403797008
N        5.9310024459   -2.3362956963   -1.5813823852
N        8.8642061529   -4.3896832377   -1.2964389813
O        3.8801024616   -2.2242012801   -0.4316006073
Cl      -1.8229376236   -1.3555764157   -1.7480699086
Cl       2.3155995378   -0.9285613794    1.7441131680
H        2.7427969146   -2.8142549590   -2.7297405713
H        0.3320510727   -2.4522201062   -3.2990340738
H       -0.3147477753   -0.7888827270    0.6245327470
H        7.0236446800   -4.5073026486   -3.6015874211
H        7.2359074929   -2.3094901998    0.1290464993
H        5.2641304015   -0.7010107239   -0.5154274596
H        4.4198492606   -1.0359146586   -2.0638632725
H        8.8753496601   -5.3329650896   -1.6714461674
H        9.0644235987   -4.4294876636   -0.3022374636
25   
torsion grid (-120,)
C        2.2619056010   -2.2632423706   -1.9119587751
C        0.9163668232   -2.2133624451   -2.2765889170
C        0.3588691776   -1.3436383856   -0.0764989891
C        6.6110512466   -3.9167516427   -2.7353206093
C        7.0166988861   -2.7610720618   -0.8839619408
C        7.5025684740   -3.8226856829   -1.6283109088
C        2.6737186808   -1.8411832004   -0.6408514666
C       -0.0249112768   -1.7555606675   -1.3526120521
C        1.7108740092   -1.3822369976    0.2709595832
C        4.9658649705   -1.3175328548   -1.0986546739
N        5.6498461977   -2.9949799271   -2.6762660859
N        5.9192191995   -2.2796085985   -1.5596432907
N        8.6711595102   -4.5835237771   -1.4181957391
O        3.9838139272   -1.9194264520   -0.2419105294
Cl      -1.7233050886   -1.6997782367   -1.7946225557
Cl       2.2026263806   -0.8454537409    1.8607179120
H        3.0077748633   -2.6482813344   -2.6023297264
H        0.6007641151   -2.5428878790   -3.2610705678
H       -0.3762390361   -0.9878434629    0.6369161683
H        6.6473012564   -4.6106593577   -3.5672177507
H        7.3552971141   -2.3155295345    0.0416086982
H        5.4888508732   -0.5659871120   -0.5015366501
H        4.4946878849   -0.8538575460   -1.9658981564
H        8.5681024298   -5.5372102059   -1.7503973007
H        8.9497400625   -4.6037700241   -0.4424676986
25   
torsion grid (-105,)
C        2.8022927371   -2.5062632539   -2.4017845919
C        1.6088616908   -2.6696280259   -3.1077189022
C        0.4233892906   -3.0275473300   -1.0194160501
C        7.2381699599   -2.9760142922   -2.8562990515
C        7.1226323274   -2.7577372393   -0.6504058544
C        7.8993360544   -3.3280425800   -1.6452640821
C        2.8184254906   -2.5815750117   -1.0029943573
C        0.4290159918   -2.9299625597   -2.4112072977
C        1.6184028151   -2.8482764551   -0.3221702003
C        4.9419303810   -1.5001850880   -0.6722565708
N        6.1405703854   -2.2539057621   -2.6281499384
N        6.0883230640   -2.1093723507   -1.2839212516
N        9.1248393103   -4.0136232298   -1.5201539132
O        3.9614858481   -2.4546443075   -0.2556229717
Cl      -1.0756036956   -3.1462363433   -3.2907698852
Cl       1.6119766125   -2.9527968467    1.4234949213
H        3.7329034887   -2.3450512949   -2.9378824833
H        1.6029428478   -2.6112674464   -4.1912364491
H       -0.4951652611   -3.2300848336   -0.4797864743
H        7.5297968513   -3.2130398987   -3.8729225874
H        7.2192161840   -2.7566524604    0.4268494277
H        5.2634883686   -0.9954368946    0.2412225408
H        4.5209673354   -0.7808559197   -1.3759116212
H        9.2459640920   -4.7120721129   -2.2466974924
H        9.2295512319   -4.4590757348   -0.6143025780
25   
torsion grid (-90,)
C        2.8795686039   -2.4078472179   -2.3334731315
C        1.7458703412   -2.7690094243   -3.0661770745
C        0.5534158180   -3.2234142200   -1.0038025985
C        7.1542592008   -2.8540710374   -2.8885942760
C        6.9466478020   -2.8199560667   -0.6784566468
C        7.7073928183   -3.3851411688   -1.6890814239
C        2.8591561433   -2.4346018540   -0.9333794587
C        0.5921629256   -3.1736744798   -2.3980811330
C        1.6851952280   -2.8522704790   -0.2800631203
C        4.9568780610   -1.2739606041   -0.6621473349
N        6.1307030466   -2.0354550369   -2.6400725350
N        6.0201899997   -2.0106816277   -1.2920186124
N        8.8397802411   -4.2169505492   -1.5770604804
O        3.9237589578   -2.1028553377   -0.1357662821
Cl      -0.8342539932   -3.6364958715   -3.3122920488
Cl       1.6341515474   -2.9038133400    1.4674882544
H        3.7879542753   -2.1348815810   -2.8600453739
H        1.7709113459   -2.7469419147   -4.1507532272
H       -0.3439666698   -3.5387813092   -0.4830478085
H        7.4691551341   -3.0330244464   -3.9100308557
H        6.9839514768   -2.9267298250    0.3971538224
H        5.3528639086   -0.7497683666    0.2094722400
H        4.5717315143   -0.5597589076   -1.3922057328
H        8.9137985549   -4.8670146481   -2.3531355022
H        8.8535824592   -4.7390096885   -0.7069097618
25   
torsion grid (-75,)
C        2.9767630263   -2.2557723374   -2.3146600315
C        1.9255430962   -2.8005253502   -3.0576586464
C        0.7732998152   -3.3875249360   -1.0070898427
C        7.1251772488   -2.7365546951   -2.8798339372
C        6.7127189383   -2.8914283110   -0.7032087549
C        7.4796726246   -3.4613740050   -1.7071927733
C        2.9351246052   -2.2620388564   -0.9149632025
C        0.8325903482   -3.3610413142   -2.4015493487
C        1.8231851078   -2.8396527638   -0.2736571580
C        5.0008008824   -1.0395279537   -0.6662169423
N        6.2054791610   -1.8036346350   -2.6249114952
N        5.9693443477   -1.9000984978   -1.2969901230
N        8.4638983415   -4.4642545189   -1.5983094634
O        3.9054306493   -1.7449058031   -0.0965881769
Cl      -0.4882935045   -4.0527106960   -3.3294924672
Cl       1.7487660243   -2.8705226772    1.4737392662
H        3.8361572562   -1.8558757565   -2.8401240775
H        1.9686770225   -2.7933828775   -4.1418268341
H       -0.0763743453   -3.8243941246   -0.4941277563
H        7.5051251794   -2.8606761375   -3.8871119895
H        6.6278600530   -3.1100367411    0.3525428785
H        5.4516476679   -0.5275339882    0.1857438643
H        4.6804517990   -0.3135945318   -1.4171676841
H        8.5232910493   -5.0334279057   -2.4366487408
H        8.3147438562   -5.0699086020   -0.7977874062
25   
torsion grid (-60,)
C        3.2271770701   -2.7358353193   -2.3989540682
C        2.4213488324   -3.4238236487   -3.3099061835
C        1.5232198671   -4.7701970613   -1.5049576388
C        7.2708824040   -2.5391873780   -2.8788317134
C        6.7630902465   -3.2645316026   -0.8418554496
C        7.5988025894   -3.5335459175   -1.9143341541
C        3.1918087818   -3.0539391996   -1.0359194032
C        1.5748522101   -4.4335750118   -2.8585777202
C        2.3328693748   -4.0816630662   -0.6042160499
C        4.9723489004   -1.5375166540   -0.4309398356
N        6.3023492297   -1.7300051122   -2.4447412255
N        6.0089170737   -2.1735775847   -1.2016018997
N        8.6148112675   -4.5047210902   -2.0134307014
O        3.9191276802   -2.4215267785   -0.0618394110
Cl       0.5611977352   -5.3037597205   -3.9985546348
Cl       2.2750289709   -4.5085727783    1.0912884989
H        3.8984380159   -1.9711751338   -2.7705534456
H        2.4603974115   -3.1726064509   -4.3647064657
H        0.8660488951   -5.5570603483   -1.1515767780
H        7.7016042019   -2.3885976242   -3.8617620918
H        6.6360002484   -3.7518942679    0.1151772559
H        5.3595445824   -1.1870866896    0.5274174692
H        4.6148470045   -0.6915085633   -1.0240285847
H        8.7350657308   -4.8356201580   -2.9654067481
H        8.4527932956   -5.3004612275   -1.4048384453
25   
torsion grid (-45,)
C        5.8695357048   -3.0978573454    1.5133558167
C        6.2019535739   -4.3628356838    1.9956196540
C        4.0102759237   -5.1794953618    1.3273082388
C        7.7950653918   -2.1407109379   -1.6668374741
C        5.8556362212   -3.1671880112   -1.9904048198
C        7.2175209261   -3.3489679061   -2.1529032868
C        4.6196219767   -2.8520579033    0.9371526933
C        5.2665915963   -5.3948036213    1.8942553178
C        3.6968123420   -3.9046987067    0.8509150270
C        4.4765501505   -1.3624421264   -0.9211286345
N        6.8691708493   -1.2851725470   -1.2320708402
N        5.6883122395   -1.9064748693   -1.4570281567
N        7.8962857608   -4.4307670869   -2.7504949931
O        4.3249988303   -1.5828023761    0.4965035210
Cl       5.6708166678   -6.9963141578    2.4892212500
Cl       2.1242749313   -3.6317857700    0.1286027467
H        6.5788730783   -2.2776189368    1.5557177227
H        7.1748213363   -4.5483197402    2.4387300114
H        3.2857182776   -5.9833660073    1.2577893272
H        8.8433696483   -1.8667668300   -1.6323694138
H        5.0121094783   -3.8066290506   -2.2124391859
H        4.4830203978   -0.2796542111   -1.0343502836
H        3.6349164699   -1.8070359047   -1.4587858561
H        7.3683676016   -5.2959115462   -2.6967879154
H        8.8125661081   -4.5785360326   -2.3395568891
25   
torsion grid (-30,)
C        5.8106742442   -2.9598720501    1.6191093516
C        6.2341243939   -4.2020406639    2.0903365663
C        4.2469680563   -5.2295352178    1.1335108032
C        7.7509017975   -2.3331266417   -1.5369298313
C        5.7358215984   -3.1270882069   -2.0213220376
C        7.0781460845   -3.4461801661   -2.1191394130
C        4.6158797887   -2.8301265831    0.9053993215
C        5.4467796171   -5.3271569481    1.8387357561
C        3.8427498851   -3.9769762060    0.6697278352
C        4.5013789360   -1.2499756070   -0.9036814703
N        6.8967340354   -1.4064506544   -1.1037378691
N        5.6703620246   -1.8839164817   -1.4268208562
N        7.6741299259   -4.5640497361   -2.7376966023
O        4.2180147017   -1.5861981460    0.4787546041
Cl       5.9699013330   -6.9013265796    2.4146608544
Cl       2.3535717961   -3.8472655583   -0.2446486273
H        6.4084209091   -2.0685349728    1.7778781552
H        7.1648928658   -4.2972784239    2.6397193576
H        3.6384884790   -6.1071071369    0.9449095427
H        8.8183906281   -2.1775385079   -1.4304933946
H        4.8444543277   -3.6587973773   -2.3248662426
H        4.6421355636   -0.1702542332   -0.9108704497
H        3.6471772702   -1.5386846457   -1.5212173374
H        7.0533060903   -5.3665179875   -2.7652815781
H        8.5392194360   -4.8342272992   -2.2804272483
25   
torsion grid (-15,)
C        5.7360304250   -2.8860180374    1.6570008132
C        6.2266953532   -4.0930772474    2.1544037837
C        4.3879274024   -5.2722161191    1.0812753647
C        7.7241920802   -2.4545645680   -1.4560513926
C        5.6850827108   -3.0878507032   -2.0633111203
C        7.0071182316   -3.4896268248   -2.1234354635
C        4.5805076390   -2.8490854398    0.8714949526
C        5.5464788627   -5.2757068038    1.8587869756
C        3.9183482734   -4.0540978668    0.5894131869
C        4.5306619961   -1.1918773165   -0.8917524398
N        6.9132384400   -1.4977290239   -1.0073134596
N        5.6724842655   -1.8755237895   -1.4053896696
N        7.5564175877   -4.6117726507   -2.7755934877
O        4.0901953993   -1.6500466145    0.4185340461
Cl       6.1559428528   -6.8048388585    2.4707969374
Cl       2.4887710293   -4.0338541075   -0.4227523401
H        6.2516459600   -1.9524225908    1.8550077628
H        7.1267128804   -4.1164156040    2.7599124819
H        3.8639362468   -6.1947391460    0.8570443731
H        8.7937286757   -2.3762265600   -1.2983199684
H        4.7755490174   -3.5450756322   -2.4275360770
H        4.7752059554   -0.1368254416   -0.7760632400
H        3.6969923258   -1.3283946287   -1.5850298938
H        6.8853004752   -5.3664273540   -2.8767073161
H        8.3783128134   -4.9651081393   -2.2958846206
25   
torsion grid (0,)
C        5.6673614361   -2.8518260290    1.6556314574
C        6.2094625749   -4.0175808119    2.1959498050
C        4.4667303971   -5.3217562031    1.1081133106
C        7.7163243670   -2.5355640104   -1.4154873066
C        5.6667493189   -3.0490061196   -2.0975905522
C        6.9713267751   -3.5059318927   -2.1467051460
C        4.5343353515   -2.8979655932    0.8375641075
C        5.6017581651   -5.2425233160    1.9154325080
C        3.9475071110   -4.1446238645    0.5682902424
C        4.5681328962   -1.1623849678   -0.8612804326
N        6.9369304189   -1.5664554502   -0.9388536791
N        5.6904755572   -1.8702919334   -1.3821988959
N        7.4871052981   -4.6204675155   -2.8370221919
O        3.9762801957   -1.7505435110    0.3345287225
Cl       6.2746286446   -6.7200158227    2.5855363341
Cl       2.5517899561   -4.2301843010   -0.4853462270
H        6.1273063014   -1.8885834008    1.8482607425
H        7.0920672559   -3.9760062311    2.8255926827
H        3.9999899524   -6.2769678803    0.8947029798
H        8.7839803369   -2.5122482512   -1.2302001440
H        4.7465719446   -3.4507420631   -2.4987266902
H        4.8950358699   -0.1552392410   -0.6028641273
H        3.7734293665   -1.1358771000   -1.6101626946
H        6.7860062784   -5.3377092497   -2.9921824682
H        8.2797231072   -5.0329488593   -2.3553185899
25   
torsion grid (15,)
C        5.5994070094   -2.8368418066    1.6549968160
C        6.1591544705   -3.9639962890    2.2552340031
C        4.4961787866   -5.3613742817    1.1596911907
C        7.7410375330   -2.5960805947   -1.4136818281
C        5.6805543094   -2.9902342168   -2.1420747602
C        6.9682031540   -3.4916923358   -2.2086875891
C        4.4973268723   -2.9495868685    0.8008953834
C        5.5986543201   -5.2170037303    2.0019274833
C        3.9601576398   -4.2231626102    0.5558644878
C        4.6371148850   -1.1392525194   -0.8085667070
N        6.9921977153   -1.6300908171   -0.8841459103
N        5.7402467950   -1.8600893903   -1.3554020421
N        7.4492747706   -4.5808397003   -2.9612141172
O        3.9090484516   -1.8491908541    0.2312088602
Cl       6.2912582162   -6.6464964718    2.7513074959
Cl       2.6087823823   -4.3963013129   -0.5427803385
H        6.0246635626   -1.8549479117    1.8322829238
H        7.0176930949   -3.8704682912    2.9119503612
H        4.0673876287   -6.3382801155    0.9658565403
H        8.8066417196   -2.6240419698   -1.2179038569
H        4.7489676488   -3.3359684709   -2.5685733815
H        5.0317033713   -0.2095192131   -0.3958108788
H        3.8941166484   -0.9358058607   -1.5821658905
H        6.7237235710   -5.2601771257   -3.1664580451
H        8.2215178893   -5.0512542366   -2.4999618984
25   
torsion grid (30,)
C        5.5199574413   -2.8200736480    1.6618130347
C        6.0854995439   -3.8965248442    2.3439970945
C        4.5009126399   -5.3972808162    1.2719552451
C        7.7499936866   -2.6292556990   -1.4549353948
C        5.6793506159   -2.9448152587   -2.1941907049
C        6.9587940337   -3.4620043695   -2.2984857677
C        4.4524116694   -3.0107900048    0.7779606405
C        5.5665592113   -5.1766412132    2.1442903488
C        3.9586318373   -4.3102557965    0.5848983027
C        4.6697790013   -1.1565544634   -0.7516084731
N        7.0185546279   -1.6861021465   -0.8626360427
N        5.7618803586   -1.8669349873   -1.3406020339
N        7.4178905859   -4.5120236745   -3.1175323885
O        3.8485649300   -1.9699671246    0.1174127891
Cl       6.2665837000   -6.5419497538    2.9987505799
Cl       2.6548298396   -4.5839027551   -0.5494818130
H        5.9187514075   -1.8213201173    1.8017919134
H        6.9174073129   -3.7422105053    3.0230812097
H        4.1051893525   -6.3948960019    1.1171338297
H        8.8155567760   -2.6867950521   -1.2656734699
H        4.7390667247   -3.2519300971   -2.6311890772
H        5.1006010645   -0.3178359654   -0.2004455518
H        3.9767431887   -0.7985366855   -1.5150361642
H        6.6805773258   -5.1669862690   -3.3572258732
H        8.1861153455   -5.0202915690   -2.6910443159
25   
torsion grid (45,)
C        5.5603319448   -2.9787692904    1.4967958625
C        6.0453464536   -3.9806328649    2.3387183811
C        4.1889970279   -5.4101338511    1.7052576098
C        7.8748322584   -2.4613814649   -1.6549673190
C        5.8096671587   -2.9605203828   -2.3033335698
C        7.1308833932   -3.3199611018   -2.5138477050
C        4.3951509388   -3.1776306822    0.7468334635
C        5.3540707798   -5.1872454279    2.4395746324
C        3.7218873521   -4.4061909505    0.8575614949
C        4.6927214516   -1.3143456722   -0.7625997076
N        7.0794059341   -1.6483857245   -0.9581531025
N        5.8264818460   -1.9480366914   -1.3727929341
N        7.6515571973   -4.2527079769   -3.4323478749
O        3.8354492744   -2.2290213946   -0.0695662732
Cl       5.9547748113   -6.4529552545    3.4985898391
Cl       2.2786875974   -4.6930147307   -0.0886374754
H        6.1105767217   -2.0493845342    1.4105646915
H        6.9531658929   -3.8198239764    2.9106773079
H        3.6543548851   -6.3505085858    1.7808813378
H        8.9493053785   -2.4105688896   -1.5234819261
H        4.8832966050   -3.3389611741   -2.7136908555
H        5.0876312120   -0.5420129862   -0.0974594048
H        4.0377892715   -0.8665543178   -1.5121762416
H        6.9794299817   -4.9722740784   -3.6781393918
H        8.4985306649   -4.6945329347   -3.0892176822
25   
torsion grid (60,)
C        5.5876741457   -3.1726015126    1.4274924966
C        5.9802494479   -4.0821518295    2.4129000392
C        3.9436158514   -5.3498530832    2.0621206128
C        7.9716127826   -2.3614396049   -1.7854510026
C        5.9310251223   -2.9259161360   -2.4576730493
C        7.2692673397   -3.1674632230   -2.7254132588
C        4.3735811991   -3.3386439831    0.7501092205
C        5.1574281526   -5.1617410679    2.7250091001
C        3.5619134589   -4.4403378004    1.0782371464
C        4.7350636286   -1.4905998247   -0.7634637817
N        7.1365662884   -1.6866783397   -0.9926450509
N        5.8992281955   -2.0298742820   -1.4162908764
N        7.8317611307   -3.9541790566   -3.7502369106
O        3.8856536913   -2.4896402304   -0.2085928083
Cl       5.6468064376   -6.3093566826    3.9610192248
Cl       2.0449742102   -4.6794186435    0.2403133067
H        6.2518943479   -2.3538103208    1.1790058148
H        6.9254587841   -3.9473056940    2.9282849938
H        3.3022102872   -6.1906224830    2.3021708584
H        9.0426050881   -2.2524858551   -1.6612224746
H        5.0239305780   -3.3153783220   -2.8993924014
H        5.0958560106   -0.7872131581   -0.0083065872
H        4.0915565377   -0.9757175468   -1.4789909234
H        7.2021355730   -4.6827709680   -4.0705324611
H        8.7106571999   -4.3768411510   -3.4688129485
25   
torsion grid (75,)
C        5.5386150890   -2.5848090723    1.7866478229
C        5.6912814526   -3.3521934023    2.9449640454
C        3.3987455732   -4.1151980195    2.7470824331
C        8.1644703598   -2.2145115481   -1.4869803633
C        6.1017746756   -2.3960597837   -2.2896135317
C        7.4002891111   -2.8203740963   -2.5238199603
C        4.3169908557   -2.5660040230    1.1023769794
C        4.6231138063   -4.1103276710    3.4176461460
C        3.2534871290   -3.3452413581    1.5953845174
C        5.0443163753   -0.9380592895   -0.5236434027
N        7.4001342089   -1.4845902489   -0.6719991507
N        6.1495350137   -1.5952052633   -1.1741280953
N        7.8912787396   -3.5953776603   -3.5936626850
O        4.0614746360   -1.8402833312   -0.0319416748
Cl       4.8101544580   -5.0816016686    4.8688062226
Cl       1.7188757783   -3.3492632063    0.7558340455
H        6.3902272431   -2.0289825705    1.4119588952
H        6.6429540654   -3.3621501612    3.4660768449
H        2.5660201717   -4.7056563278    3.1129439297
H        9.2315283139   -2.2831556165   -1.3107501374
H        5.1719357024   -2.6007235317   -2.8025565132
H        5.4643797328   -0.3119809721    0.2670009521
H        4.4976880440   -0.3237777656   -1.2413276543
H        7.1812225061   -4.2002840205   -3.9934082153
H        8.6903686836   -4.1589736735   -3.3214617895
25   
torsion grid (90,)
C        5.5195157512   -2.7546036780    1.8488741093
C        5.6062450834   -3.3590248339    3.1057147271
C        3.2707783468   -3.9987711253    2.9613505976
C        8.1970778729   -2.3212676070   -1.5302713245
C        6.1924285745   -2.2788569206   -2.4838559696
C        7.4934188821   -2.6986700443   -2.7088980058
C        4.3098685116   -2.7503498067    1.1429823361
C        4.4830879437   -3.9759677010    3.6525680404
C        3.1908743761   -3.3849062067    1.7126541640
C        5.0387478746   -1.1756390048   -0.5335484619
N        7.3949594386   -1.7259659780   -0.6461192341
N        6.1802425306   -1.6924109728   -1.2405770244
N        8.0421379992   -3.2764144508   -3.8715707644
O        4.1354890525   -2.1870529651   -0.0947768049
Cl       4.5853484843   -4.7449448834    5.2282167864
Cl       1.6694721269   -3.4031542152    0.8500499695
H        6.4079867547   -2.3136632978    1.4094653420
H        6.5480205423   -3.3589051793    3.6447039666
H        2.3965774235   -4.4793855074    3.3864919672
H        9.2483857766   -2.4552696229   -1.3037414891
H        5.2976544190   -2.3501876896   -3.0872101156
H        5.4093013049   -0.5736072966    0.2980972737
H        4.4460298293   -0.5605436261   -1.2129843438
H        7.3475942874   -3.7647799096   -4.4274523188
H        8.8022169867   -3.9144538066   -3.6581808540
25   
torsion grid (105,)
C        5.5474296846   -2.8662185580    1.9294308279
C        5.5634795106   -3.2886952327    3.2600547541
C        3.2019641354   -3.8329438185    3.1150206370
C        8.2222335920   -2.4229198855   -1.6414527908
C        6.2519759214   -2.1801420316   -2.6344393557
C        7.5476454500   -2.6019602086   -2.8826215264
C        4.3614384935   -2.9030979280    1.1847116809
C        4.3910097601   -3.7696896629    3.8422031611
C        3.1927155099   -3.3947977805    1.7905206357
C        5.0594465114   -1.3999010873   -0.5591592821
N        7.4091124491   -1.9371999260   -0.7027382081
N        6.2166641633   -1.7742909579   -1.3208438625
N        8.1189022899   -3.0171217159   -4.1027814963
O        4.2874799401   -2.5256509643   -0.1318466283
Cl       4.4031726015   -4.3121898713    5.5124905228
Cl       1.7000408228   -3.4565667931    0.8814380774
H        6.4646055030   -2.5296203591    1.4551766453
H        6.4854929267   -3.2587350036    3.8314041130
H        2.2913636831   -4.2073125708    3.5695664583
H        9.2625869801   -2.6191072814   -1.4092082408
H        5.3762846177   -2.1332181778   -3.2674960045
H        5.3887455921   -0.7997367616    0.2900421337
H        4.3949274116   -0.8181000740   -1.2014449566
H        7.4332840889   -3.4137730027   -4.7372515894
H        8.8666050715   -3.6893495546   -3.9635177815
25   
torsion grid (120,)
C        5.5645742896   -2.9948698447    2.0545416910
C        5.4732419031   -3.2800492252    3.4169791817
C        3.0966047423   -3.7219753925    3.1588813556
C        8.2667534228   -2.4186047593   -1.7811472832
C        6.2682849920   -2.1412343254   -2.7067772836
C        7.5657321829   -2.5116293457   -3.0176636347
C        4.4295861303   -3.0517730789    1.2347785443
C        4.2381161562   -3.6442246032    3.9565913980
C        3.1983035196   -3.4174963412    1.7998069085
C        5.1189526143   -1.5927046831   -0.5357182771
N        7.4676397713   -2.0301432745   -0.7873211869
N        6.2587048375   -1.8392374517   -1.3646089995
N        8.1165891537   -2.8123194685   -4.2804645795
O        4.4992893973   -2.8175451875   -0.1151248279
Cl       4.1121836308   -4.0180612943    5.6674969295
Cl       1.7678060755   -3.4895985718    0.7970620879
H        6.5216377799   -2.7421036321    1.6058674623
H        6.3546406466   -3.2367787481    4.0483885591
H        2.1395637161   -4.0041827444    3.5836306010
H        9.3167652890   -2.6085823690   -1.5906816403
H        5.3764669280   -2.0629012065   -3.3136925085
H        5.4374718054   -1.0013795059    0.3232717231
H        4.3740508359   -1.0460542956   -1.1198475984
H        7.4231752306   -3.1675583430   -4.9308768059
H        8.8773015225   -3.4810946193   -4.2132731191
25   
torsion grid (135,)
C        5.6088667696   -3.1111878258    2.2413032932
C        5.3820552903   -3.2948356728    3.6049528669
C        3.0147809076   -3.6283318364    3.1553512155
C        8.3320469501   -2.3080638106   -1.9676407474
C        6.2503040770   -2.1813589707   -2.7278920295
C        7.5435075894   -2.4432147226   -3.1466859395
C        4.5519356655   -3.1717765709    1.3242715577
C        4.0835039030   -3.5558904115    4.0487196933
C        3.2551868434   -3.4265894190    1.7941056967
C        5.2436043143   -1.7493588912   -0.4640679760
N        7.5874705706   -1.9954727978   -0.9072617980
N        6.3246440565   -1.8971718658   -1.3834404880
N        8.0142010141   -2.6851348839   -4.4541052233
O        4.7803544054   -3.0399073536   -0.0221263295
Cl       3.7836479890   -3.8010125411    5.7606895343
Cl       1.9192758071   -3.4876174197    0.6675619299
H        6.6119586987   -2.9306715919    1.8639170898
H        6.2032794822   -3.2507614952    4.3127107633
H        2.0090705580   -3.8289869595    3.5078052701
H        9.4058245038   -2.4146876860   -1.8646629310
H        5.3087855137   -2.1695996722   -3.2599914652
H        5.5917771105   -1.1564226137    0.3828225944
H        4.4113153050   -1.2476092844   -0.9665542240
H        7.2999314898   -3.0842824625   -5.0546147156
H        8.8250649076   -3.2958989387   -4.4579811582
25   
torsion grid (150,)
C        4.1047809543   -2.0251039628    2.3353274619
C        3.4716708344   -1.6761806879    3.5285937840
C        1.5118648339   -0.9733929278    2.2681110382
C        7.8606259725   -2.7067562464   -1.6184046405
C        5.9119755863   -2.4354491542   -2.6454802260
C        7.1540447902   -3.0213088857   -2.8155588015
C        3.4613536788   -1.8592666580    1.1043188581
C        2.1775227028   -1.1532225409    3.4813283846
C        2.1630740043   -1.3265139020    1.0846333686
C        4.8415634734   -1.2245819043   -0.7262806000
N        7.1157090186   -1.9934713743   -0.7748674720
N        5.9386807697   -1.8129062783   -1.4176490871
N        7.6663406865   -3.6894184990   -3.9475851495
O        4.0900280262   -2.2582393613   -0.0496300852
Cl       1.3647196335   -0.7121870969    4.9722913854
Cl       1.3409426916   -1.1034678001   -0.4449216812
H        5.1088436498   -2.4392931393    2.3356138718
H        3.9727556528   -1.8102592715    4.4815704307
H        0.5066417049   -0.5675148421    2.2403986290
H        8.8804857738   -2.9640343860   -1.3563695679
H        5.0353013784   -2.4061384692   -3.2781547259
H        5.2380171633   -0.5151290740    0.0029821296
H        4.1860452554   -0.7185975013   -1.4410202875
H        6.9341147401   -4.1013254425   -4.5170893715
H        8.3293589411   -4.4142880535   -3.6915112778
25   
torsion grid (165,)
C        2.3972926730   -0.2569347391    0.2046235533
C        1.2224184392    0.1035180291    0.8718746612
C        0.2509850781   -2.0440316012    0.3081124939
C        7.5451176316   -3.2842266988   -1.3206043933
C        6.2127271541   -2.2533885255   -2.7666799878
C        7.2769694573   -3.1361475545   -2.7126926608
C        2.5206958087   -1.5109434582   -0.4100439487
C        0.1576571963   -0.7914689978    0.9197955701
C        1.4253842726   -2.3966306547   -0.3509308161
C        4.8159721469   -1.1467658213   -0.9976911914
N        6.7102058023   -2.5618531827   -0.5752156360
N        5.9132659771   -1.9240466742   -1.4638421710
N        8.0126268826   -3.6956506004   -3.7776334037
O        3.6225082428   -1.9390829594   -1.0853110111
Cl      -1.3233766782   -0.3500107662    1.7524450563
Cl       1.5427226702   -3.9628650747   -1.1147266432
H        3.2108636697    0.4582712965    0.1659197338
H        1.1415401022    1.0766731347    1.3447822023
H       -0.5783953536   -2.7418086682    0.3446116395
H        8.3174473559   -3.8788810590   -0.8467607432
H        5.6518057782   -1.8503081691   -3.5987501915
H        5.0263010474   -0.8793145964    0.0403229053
H        4.6992754767   -0.2483673644   -1.6146585960
H        7.4705187773   -3.7541582079   -4.6336878377
H        8.3666432031   -4.6193686180   -3.5495866040
25   
torsion grid (180,)
C        2.4303997417   -0.3150534412    0.2884217662
C        1.2036020347    0.1201983275    0.7997624095
C        0.2104179581   -2.0130651898    0.2189835387
C        7.6877552351   -3.1857996966   -1.4103763583
C        6.1241487216   -2.3046485232   -2.7175733426
C        7.2526560530   -3.1038285655   -2.7653263641
C        2.5663048369   -1.5974580199   -0.2618802990
C        0.1027085032   -0.7302480335    0.7620206887
C        1.4345429843   -2.4380907758   -0.2891703149
C        4.8626834976   -1.2372386923   -0.8281840338
N        6.8897356319   -2.5039932171   -0.5906054704
N        5.9507376734   -1.9563200069   -1.3967539533
N        7.9037889860   -3.6423198793   -3.8941106021
O        3.7197871796   -2.1032882017   -0.7780872745
Cl      -1.4419579229   -0.1952232281    1.4015027569
Cl       1.5691357112   -4.0399465009   -0.9723428845
H        3.2771944200    0.3599056740    0.3317034040
H        1.1131156549    1.1145307560    1.2244273827
H       -0.6470212173   -2.6764077007    0.1890234040
H        8.5521229353   -3.7063680718   -1.0148598865
H        5.4429369791   -1.9714854809   -3.4885300789
H        5.1628343740   -0.9326202318    0.1775368576
H        4.6241083704   -0.3621305584   -1.4440056925
H        7.2742520571   -3.7698645425   -4.6799452964
H        8.3526873826   -4.5286900763   -3.6857801598
