
  -OEChem-05262117483D

 65 68  0     1  0  0  0  0  0999 V2000
    3.0194    6.2231    1.3846 C   0  0  0  0  0  0  0  0  0  0  0  0
    1.6983    5.7777    1.3356 C   0  0  0  0  0  0  0  0  0  0  0  0
   -1.7859    2.2176    8.1912 C   0  0  0  0  0  0  0  0  0  0  0  0
    4.0466    5.4118    1.8647 C   0  0  0  0  0  0  0  0  0  0  0  0
   -1.5332    2.0334    6.8321 C   0  0  0  0  0  0  0  0  0  0  0  0
    2.4411    3.6545    2.2784 C   0  0  0  0  0  0  0  0  0  0  0  0
   -3.9255    1.9633    6.3768 C   0  0  0  0  0  0  0  0  0  0  0  0
    1.4196    4.4779    1.7872 C   0  0  0  0  0  0  0  0  0  0  0  0
   -3.1051    2.2848    8.6496 C   0  0  0  0  0  0  0  0  0  0  0  0
   -4.1595    2.1548    7.7410 C   0  0  0  0  0  0  0  0  0  0  0  0
    3.7799    4.0986    2.3304 C   0  0  0  0  0  0  0  0  0  0  0  0
   -2.5984    1.9072    5.9229 C   0  0  0  0  0  0  0  0  0  0  0  0
   -1.7308    2.7670    1.9276 C   0  0  0  0  0  0  0  0  0  0  0  0
   -2.1023    3.9879    1.4400 C   0  0  0  0  0  0  0  0  0  0  0  0
    0.0586    3.9472    1.7728 C   0  0  0  0  0  0  0  0  0  0  0  0
   -3.3452    3.5821   12.3340 C   0  0  0  0  0  0  0  0  0  0  0  0
   -5.4888    2.2155    8.4637 C   0  0  0  0  0  0  0  0  0  0  0  0
   -5.1164    2.8398    9.8288 C   0  0  0  0  0  0  0  0  0  0  0  0
   -3.6325    2.4549   10.0643 C   0  0  2  0  0  0  0  0  0  0  0  0
   -3.3909    4.6083    1.0312 C   0  0  0  0  0  0  0  0  0  0  0  0
    7.0330    3.6621    1.7699 C   0  0  0  0  0  0  0  0  0  0  0  0
    4.0176    1.7343    4.6320 C   0  0  0  0  0  0  0  0  0  0  0  0
   -2.5887    1.5823    2.2584 C   0  0  0  0  0  0  0  0  0  0  0  0
   -2.8531    3.4734   10.8968 C   0  0  0  0  0  0  0  0  0  0  0  0
    6.1448    3.7778    3.0168 C   0  0  0  0  0  0  0  0  0  0  0  0
    4.5323    1.8964    3.1946 C   0  0  0  0  0  0  0  0  0  0  0  0
   -3.2604    1.6822    3.6280 C   0  0  0  0  0  0  0  0  0  0  0  0
   -0.3528    2.7610    2.1305 N   0  0  0  0  0  0  0  0  0  0  0  0
    4.7894    3.2814    2.8161 N   0  0  0  0  0  0  0  0  0  0  0  0
   -4.1259    2.8263   12.8626 O   0  0  0  0  0  0  0  0  0  0  0  0
   -0.9593    4.7566    1.3374 O   0  0  0  0  0  0  0  0  0  0  0  0
   -2.8153    4.6210   13.0515 O   0  0  0  0  0  0  0  0  0  0  0  0
   -2.2356    1.7309    4.6152 O   0  0  0  0  0  0  0  0  0  0  0  0
    3.2631    7.2231    1.0338 H   0  0  0  0  0  0  0  0  0  0  0  0
    0.9045    6.4131    0.9587 H   0  0  0  0  0  0  0  0  0  0  0  0
   -0.9467    2.3104    8.8776 H   0  0  0  0  0  0  0  0  0  0  0  0
    5.0577    5.8012    1.8606 H   0  0  0  0  0  0  0  0  0  0  0  0
   -0.5199    1.9904    6.4439 H   0  0  0  0  0  0  0  0  0  0  0  0
    2.1562    2.6717    2.6300 H   0  0  0  0  0  0  0  0  0  0  0  0
   -4.7610    1.8637    5.6917 H   0  0  0  0  0  0  0  0  0  0  0  0
   -6.2473    2.7929    7.9250 H   0  0  0  0  0  0  0  0  0  0  0  0
   -5.8899    1.2015    8.5949 H   0  0  0  0  0  0  0  0  0  0  0  0
   -5.1917    3.9321    9.7548 H   0  0  0  0  0  0  0  0  0  0  0  0
   -5.7615    2.5177   10.6477 H   0  0  0  0  0  0  0  0  0  0  0  0
   -3.5918    1.4927   10.5913 H   0  0  0  0  0  0  0  0  0  0  0  0
   -3.6537    5.4541    1.6771 H   0  0  0  0  0  0  0  0  0  0  0  0
   -3.3467    4.9770    0.0003 H   0  0  0  0  0  0  0  0  0  0  0  0
   -4.1941    3.8700    1.0957 H   0  0  0  0  0  0  0  0  0  0  0  0
    7.1213    2.6169    1.4552 H   0  0  0  0  0  0  0  0  0  0  0  0
    6.6126    4.2272    0.9331 H   0  0  0  0  0  0  0  0  0  0  0  0
    8.0400    4.0435    1.9744 H   0  0  0  0  0  0  0  0  0  0  0  0
    4.7441    2.1306    5.3496 H   0  0  0  0  0  0  0  0  0  0  0  0
    3.0757    2.2706    4.7758 H   0  0  0  0  0  0  0  0  0  0  0  0
    3.8498    0.6765    4.8640 H   0  0  0  0  0  0  0  0  0  0  0  0
   -3.3799    1.4612    1.5095 H   0  0  0  0  0  0  0  0  0  0  0  0
   -1.9686    0.6822    2.2297 H   0  0  0  0  0  0  0  0  0  0  0  0
   -1.7903    3.1999   10.9408 H   0  0  0  0  0  0  0  0  0  0  0  0
   -2.8972    4.4594   10.4152 H   0  0  0  0  0  0  0  0  0  0  0  0
    6.1093    4.8145    3.3663 H   0  0  0  0  0  0  0  0  0  0  0  0
    6.5916    3.2053    3.8366 H   0  0  0  0  0  0  0  0  0  0  0  0
    3.8305    1.4472    2.4855 H   0  0  0  0  0  0  0  0  0  0  0  0
    5.4692    1.3416    3.0768 H   0  0  0  0  0  0  0  0  0  0  0  0
   -3.8785    2.5888    3.6845 H   0  0  0  0  0  0  0  0  0  0  0  0
   -3.9077    0.8098    3.7962 H   0  0  0  0  0  0  0  0  0  0  0  0
   -2.2140    5.1370   12.4879 H   0  0  0  0  0  0  0  0  0  0  0  0
  1  2  1  0  0  0  0
  1  4  2  0  0  0  0
  1 34  1  0  0  0  0
  2  8  2  0  0  0  0
  2 35  1  0  0  0  0
  3  5  2  0  0  0  0
  3  9  1  0  0  0  0
  3 36  1  0  0  0  0
  4 11  1  0  0  0  0
  4 37  1  0  0  0  0
  5 12  1  0  0  0  0
  5 38  1  0  0  0  0
  6  8  1  0  0  0  0
  6 11  2  0  0  0  0
  6 39  1  0  0  0  0
  7 10  1  0  0  0  0
  7 12  2  0  0  0  0
  7 40  1  0  0  0  0
  8 15  1  0  0  0  0
  9 10  2  0  0  0  0
  9 19  1  0  0  0  0
 10 17  1  0  0  0  0
 11 29  1  0  0  0  0
 12 33  1  0  0  0  0
 13 14  2  0  0  0  0
 13 23  1  0  0  0  0
 13 28  1  0  0  0  0
 14 20  1  0  0  0  0
 14 31  1  0  0  0  0
 15 28  2  0  0  0  0
 15 31  1  0  0  0  0
 16 24  1  0  0  0  0
 16 30  2  0  0  0  0
 16 32  1  0  0  0  0
 17 18  1  0  0  0  0
 17 41  1  0  0  0  0
 17 42  1  0  0  0  0
 18 19  1  0  0  0  0
 18 43  1  0  0  0  0
 18 44  1  0  0  0  0
 19 24  1  0  0  0  0
 19 45  1  0  0  0  0
 20 46  1  0  0  0  0
 20 47  1  0  0  0  0
 20 48  1  0  0  0  0
 21 25  1  0  0  0  0
 21 49  1  0  0  0  0
 21 50  1  0  0  0  0
 21 51  1  0  0  0  0
 22 26  1  0  0  0  0
 22 52  1  0  0  0  0
 22 53  1  0  0  0  0
 22 54  1  0  0  0  0
 23 27  1  0  0  0  0
 23 55  1  0  0  0  0
 23 56  1  0  0  0  0
 24 57  1  0  0  0  0
 24 58  1  0  0  0  0
 25 29  1  0  0  0  0
 25 59  1  0  0  0  0
 25 60  1  0  0  0  0
 26 29  1  0  0  0  0
 26 61  1  0  0  0  0
 26 62  1  0  0  0  0
 27 33  1  0  0  0  0
 27 63  1  0  0  0  0
 27 64  1  0  0  0  0
 32 65  1  0  0  0  0
M  END
$$$$
