
  -OEChem-05262117483D

 61 64  0     1  0  0  0  0  0999 V2000
    2.7642    5.9115    2.9121 C   0  0  0  0  0  0  0  0  0  0  0  0
   -3.5267    2.3482    9.5019 C   0  0  0  0  0  0  0  0  0  0  0  0
    3.8479    6.4668    2.2320 C   0  0  0  0  0  0  0  0  0  0  0  0
   -2.5801    2.0805    8.5106 C   0  0  0  0  0  0  0  0  0  0  0  0
    3.1307    3.8413    1.7118 C   0  0  0  0  0  0  0  0  0  0  0  0
   -4.3438    1.6593    6.8858 C   0  0  0  0  0  0  0  0  0  0  0  0
    2.3918    4.5867    2.6447 C   0  0  0  0  0  0  0  0  0  0  0  0
   -4.8892    2.2949    9.1824 C   0  0  0  0  0  0  0  0  0  0  0  0
   -5.2814    1.9370    7.8887 C   0  0  0  0  0  0  0  0  0  0  0  0
    4.5874    5.7441    1.2880 C   0  0  0  0  0  0  0  0  0  0  0  0
    4.2246    4.3961    1.0385 C   0  0  0  0  0  0  0  0  0  0  0  0
   -2.9837    1.7457    7.2089 C   0  0  0  0  0  0  0  0  0  0  0  0
   -0.2876    2.6469    4.0401 C   0  0  0  0  0  0  0  0  0  0  0  0
   -0.4461    3.8415    4.6929 C   0  0  0  0  0  0  0  0  0  0  0  0
    1.2605    3.9586    3.3189 C   0  0  0  0  0  0  0  0  0  0  0  0
   -5.0469    3.6399   12.2422 C   0  0  0  0  0  0  0  0  0  0  0  0
   -6.7919    1.8608    7.7981 C   0  0  0  0  0  0  0  0  0  0  0  0
   -7.2468    2.6573    9.0443 C   0  0  0  0  0  0  0  0  0  0  0  0
   -6.0892    2.5507   10.0775 C   0  0  2  0  0  0  0  0  0  0  0  0
    5.7106    6.4150    0.5346 C   0  0  0  0  0  0  0  0  0  0  0  0
   -1.3377    4.4152    5.7429 C   0  0  0  0  0  0  0  0  0  0  0  0
    4.2612    2.5355   -0.5559 C   0  0  0  0  0  0  0  0  0  0  0  0
    6.2944    3.2322    0.5371 C   0  0  0  0  0  0  0  0  0  0  0  0
   -1.0298    1.3423    4.1149 C   0  0  0  0  0  0  0  0  0  0  0  0
   -5.9911    3.7713   10.9993 C   0  0  0  0  0  0  0  0  0  0  0  0
   -2.3083    1.3424    4.9385 C   0  0  0  0  0  0  0  0  0  0  0  0
    0.8012    2.7460    3.1714 N   0  0  0  0  0  0  0  0  0  0  0  0
    4.9672    3.6452    0.0750 N   0  0  0  0  0  0  0  0  0  0  0  0
   -4.5026    2.5102   12.4245 O   0  5  0  0  0  0  0  0  0  0  0  0
   -4.9459    4.6895   12.9310 O   0  0  0  0  0  0  0  0  0  0  0  0
    0.5520    4.6880    4.2283 O   0  0  0  0  0  0  0  0  0  0  0  0
   -1.9576    1.5256    6.3013 O   0  0  0  0  0  0  0  0  0  0  0  0
    2.2035    6.4988    3.6320 H   0  0  0  0  0  0  0  0  0  0  0  0
   -3.2370    2.5780   10.5236 H   0  0  0  0  0  0  0  0  0  0  0  0
    4.1165    7.5042    2.4219 H   0  0  0  0  0  0  0  0  0  0  0  0
   -1.5150    2.1222    8.7260 H   0  0  0  0  0  0  0  0  0  0  0  0
    2.8294    2.8153    1.5348 H   0  0  0  0  0  0  0  0  0  0  0  0
   -4.6762    1.3795    5.8905 H   0  0  0  0  0  0  0  0  0  0  0  0
   -7.1914    2.2603    6.8575 H   0  0  0  0  0  0  0  0  0  0  0  0
   -7.1147    0.8113    7.8632 H   0  0  0  0  0  0  0  0  0  0  0  0
   -7.3730    3.7118    8.7682 H   0  0  0  0  0  0  0  0  0  0  0  0
   -8.2031    2.3085    9.4493 H   0  0  0  0  0  0  0  0  0  0  0  0
   -6.2263    1.6690   10.7171 H   0  0  0  0  0  0  0  0  0  0  0  0
    6.6780    6.2888    1.0376 H   0  0  0  0  0  0  0  0  0  0  0  0
    5.8076    5.9937   -0.4699 H   0  0  0  0  0  0  0  0  0  0  0  0
    5.5300    7.4911    0.4527 H   0  0  0  0  0  0  0  0  0  0  0  0
   -0.9958    4.1508    6.7482 H   0  0  0  0  0  0  0  0  0  0  0  0
   -1.3489    5.5052    5.6563 H   0  0  0  0  0  0  0  0  0  0  0  0
   -2.3610    4.0518    5.6525 H   0  0  0  0  0  0  0  0  0  0  0  0
    4.8400    2.2003   -1.4234 H   0  0  0  0  0  0  0  0  0  0  0  0
    3.2807    2.8688   -0.9048 H   0  0  0  0  0  0  0  0  0  0  0  0
    4.1179    1.6647    0.1072 H   0  0  0  0  0  0  0  0  0  0  0  0
    6.8778    2.8605   -0.3127 H   0  0  0  0  0  0  0  0  0  0  0  0
    6.2390    2.4336    1.2976 H   0  0  0  0  0  0  0  0  0  0  0  0
    6.8303    4.0756    0.9738 H   0  0  0  0  0  0  0  0  0  0  0  0
   -1.2764    1.0341    3.0915 H   0  0  0  0  0  0  0  0  0  0  0  0
   -0.3542    0.5752    4.5119 H   0  0  0  0  0  0  0  0  0  0  0  0
   -6.9928    4.0045   11.3865 H   0  0  0  0  0  0  0  0  0  0  0  0
   -5.6815    4.6520   10.4213 H   0  0  0  0  0  0  0  0  0  0  0  0
   -2.9853    2.1398    4.6013 H   0  0  0  0  0  0  0  0  0  0  0  0
   -2.8331    0.3853    4.8060 H   0  0  0  0  0  0  0  0  0  0  0  0
  1  3  1  0  0  0  0
  1  7  2  0  0  0  0
  1 33  1  0  0  0  0
  2  4  2  0  0  0  0
  2  8  1  0  0  0  0
  2 34  1  0  0  0  0
  3 10  2  0  0  0  0
  3 35  1  0  0  0  0
  4 12  1  0  0  0  0
  4 36  1  0  0  0  0
  5  7  1  0  0  0  0
  5 11  2  0  0  0  0
  5 37  1  0  0  0  0
  6  9  1  0  0  0  0
  6 12  2  0  0  0  0
  6 38  1  0  0  0  0
  7 15  1  0  0  0  0
  8  9  2  0  0  0  0
  8 19  1  0  0  0  0
  9 17  1  0  0  0  0
 10 11  1  0  0  0  0
 10 20  1  0  0  0  0
 11 28  1  0  0  0  0
 12 32  1  0  0  0  0
 13 14  2  0  0  0  0
 13 24  1  0  0  0  0
 13 27  1  0  0  0  0
 14 21  1  0  0  0  0
 14 31  1  0  0  0  0
 15 27  2  0  0  0  0
 15 31  1  0  0  0  0
 16 25  1  0  0  0  0
 16 29  1  0  0  0  0
 16 30  2  0  0  0  0
 17 18  1  0  0  0  0
 17 39  1  0  0  0  0
 17 40  1  0  0  0  0
 18 19  1  0  0  0  0
 18 41  1  0  0  0  0
 18 42  1  0  0  0  0
 19 25  1  0  0  0  0
 19 43  1  0  0  0  0
 20 44  1  0  0  0  0
 20 45  1  0  0  0  0
 20 46  1  0  0  0  0
 21 47  1  0  0  0  0
 21 48  1  0  0  0  0
 21 49  1  0  0  0  0
 22 28  1  0  0  0  0
 22 50  1  0  0  0  0
 22 51  1  0  0  0  0
 22 52  1  0  0  0  0
 23 28  1  0  0  0  0
 23 53  1  0  0  0  0
 23 54  1  0  0  0  0
 23 55  1  0  0  0  0
 24 26  1  0  0  0  0
 24 56  1  0  0  0  0
 24 57  1  0  0  0  0
 25 58  1  0  0  0  0
 25 59  1  0  0  0  0
 26 32  1  0  0  0  0
 26 60  1  0  0  0  0
 26 61  1  0  0  0  0
M  CHG  1  29  -1
M  END
$$$$
