
  -OEChem-05262117483D

 39 40  0     0  0  0  0  0  0999 V2000
   -2.2791    3.0136    3.2510 C   0  0  0  0  0  0  0  0  0  0  0  0
   -2.9703    3.3052    4.4257 C   0  0  0  0  0  0  0  0  0  0  0  0
   -1.5216    1.8357    5.6484 C   0  0  0  0  0  0  0  0  0  0  0  0
   -1.2140    2.1032    3.2314 C   0  0  0  0  0  0  0  0  0  0  0  0
   -2.6089    2.7233    5.6492 C   0  0  0  0  0  0  0  0  0  0  0  0
   -0.8519    1.5294    4.4661 C   0  0  0  0  0  0  0  0  0  0  0  0
   -0.5634    1.9046    1.8765 C   0  0  0  0  0  0  0  0  0  0  0  0
   -3.6010    2.0062    7.9641 C   0  0  0  0  0  0  0  0  0  0  0  0
   -2.6547    3.1416    8.2370 C   0  0  0  0  0  0  0  0  0  0  0  0
   -3.3571    3.0567    6.8884 C   0  0  0  0  0  0  0  0  0  0  0  0
    3.9365    1.8381    3.1874 C   0  0  0  0  0  0  0  0  0  0  0  0
    3.6537   -0.2041    4.6429 C   0  0  0  0  0  0  0  0  0  0  0  0
    2.8508   -0.2154    2.2412 C   0  0  0  0  0  0  0  0  0  0  0  0
    3.0418    0.6308    3.5069 C   0  0  0  0  0  0  0  0  0  0  0  0
    1.7257    1.2555    3.9056 N   0  0  0  0  0  0  0  0  0  0  0  0
   -0.4055    2.8522    1.1330 O   0  0  0  0  0  0  0  0  0  0  0  0
    0.7238    0.0960    6.0521 O   0  0  0  0  0  0  0  0  0  0  0  0
    0.2349   -0.7973    3.7404 O   0  0  0  0  0  0  0  0  0  0  0  0
   -0.2632    0.6595    1.4684 O   0  0  0  0  0  0  0  0  0  0  0  0
    0.5032    0.3558    4.6259 S   0  0  0  0  0  0  0  0  0  0  0  0
   -2.5529    3.4973    2.3191 H   0  0  0  0  0  0  0  0  0  0  0  0
   -3.7997    4.0075    4.3922 H   0  0  0  0  0  0  0  0  0  0  0  0
   -1.1738    1.3731    6.5663 H   0  0  0  0  0  0  0  0  0  0  0  0
   -3.1840    1.0180    7.7942 H   0  0  0  0  0  0  0  0  0  0  0  0
   -4.5710    2.0093    8.4517 H   0  0  0  0  0  0  0  0  0  0  0  0
   -2.9709    3.9307    8.9124 H   0  0  0  0  0  0  0  0  0  0  0  0
   -1.5896    2.9307    8.2575 H   0  0  0  0  0  0  0  0  0  0  0  0
   -4.1647    3.7670    6.7361 H   0  0  0  0  0  0  0  0  0  0  0  0
    3.4874    2.4567    2.4050 H   0  0  0  0  0  0  0  0  0  0  0  0
    4.1031    2.4591    4.0761 H   0  0  0  0  0  0  0  0  0  0  0  0
    4.9128    1.4911    2.8379 H   0  0  0  0  0  0  0  0  0  0  0  0
    3.0384   -1.0773    4.8740 H   0  0  0  0  0  0  0  0  0  0  0  0
    3.7592    0.3865    5.5584 H   0  0  0  0  0  0  0  0  0  0  0  0
    4.6455   -0.5594    4.3451 H   0  0  0  0  0  0  0  0  0  0  0  0
    2.2517   -1.1049    2.4402 H   0  0  0  0  0  0  0  0  0  0  0  0
    2.3576    0.3646    1.4582 H   0  0  0  0  0  0  0  0  0  0  0  0
    3.8324   -0.5364    1.8782 H   0  0  0  0  0  0  0  0  0  0  0  0
    1.8793    2.0744    4.4970 H   0  0  0  0  0  0  0  0  0  0  0  0
   -0.3166   -0.0047    2.1933 H   0  0  0  0  0  0  0  0  0  0  0  0
  1  2  1  0  0  0  0
  1  4  2  0  0  0  0
  1 21  1  0  0  0  0
  2  5  2  0  0  0  0
  2 22  1  0  0  0  0
  3  5  1  0  0  0  0
  3  6  2  0  0  0  0
  3 23  1  0  0  0  0
  4  6  1  0  0  0  0
  4  7  1  0  0  0  0
  5 10  1  0  0  0  0
  6 20  1  0  0  0  0
  7 16  2  0  0  0  0
  7 19  1  0  0  0  0
  8  9  1  0  0  0  0
  8 10  1  0  0  0  0
  8 24  1  0  0  0  0
  8 25  1  0  0  0  0
  9 10  1  0  0  0  0
  9 26  1  0  0  0  0
  9 27  1  0  0  0  0
 10 28  1  0  0  0  0
 11 14  1  0  0  0  0
 11 29  1  0  0  0  0
 11 30  1  0  0  0  0
 11 31  1  0  0  0  0
 12 14  1  0  0  0  0
 12 32  1  0  0  0  0
 12 33  1  0  0  0  0
 12 34  1  0  0  0  0
 13 14  1  0  0  0  0
 13 35  1  0  0  0  0
 13 36  1  0  0  0  0
 13 37  1  0  0  0  0
 14 15  1  0  0  0  0
 15 20  1  0  0  0  0
 15 38  1  0  0  0  0
 17 20  2  0  0  0  0
 18 20  2  0  0  0  0
 19 39  1  0  0  0  0
M  END
$$$$
