
  -OEChem-05262117483D

 38 39  0     0  0  0  0  0  0999 V2000
   -2.3919    2.3782    2.6694 C   0  0  0  0  0  0  0  0  0  0  0  0
   -2.9998    2.8363    3.8358 C   0  0  0  0  0  0  0  0  0  0  0  0
   -1.3194    1.7253    5.1380 C   0  0  0  0  0  0  0  0  0  0  0  0
   -1.2223    1.5978    2.6893 C   0  0  0  0  0  0  0  0  0  0  0  0
   -2.4701    2.5157    5.0946 C   0  0  0  0  0  0  0  0  0  0  0  0
   -0.7087    1.2794    3.9607 C   0  0  0  0  0  0  0  0  0  0  0  0
   -0.6289    1.2386    1.3039 C   0  0  0  0  0  0  0  0  0  0  0  0
   -4.4999    2.5578    6.7465 C   0  0  0  0  0  0  0  0  0  0  0  0
   -3.2891    2.1294    7.5528 C   0  0  0  0  0  0  0  0  0  0  0  0
   -3.1127    3.0262    6.3494 C   0  0  0  0  0  0  0  0  0  0  0  0
    4.1068    1.6229    2.7713 C   0  0  0  0  0  0  0  0  0  0  0  0
    3.8536   -0.0464    4.6315 C   0  0  0  0  0  0  0  0  0  0  0  0
    3.2277   -0.6760    2.2585 C   0  0  0  0  0  0  0  0  0  0  0  0
    3.2602    0.4549    3.3074 C   0  0  0  0  0  0  0  0  0  0  0  0
    1.9140    1.0624    3.5239 N   0  0  0  0  0  0  0  0  0  0  0  0
    0.6340    1.3606    1.1871 O   0  5  0  0  0  0  0  0  0  0  0  0
   -1.4632    0.9428    0.4261 O   0  0  0  0  0  0  0  0  0  0  0  0
    0.9444    0.0930    5.6913 O   0  0  0  0  0  0  0  0  0  0  0  0
    0.4226   -1.1242    3.5618 O   0  0  0  0  0  0  0  0  0  0  0  0
    0.6959    0.1609    4.2357 S   0  0  0  0  0  0  0  0  0  0  0  0
   -2.8186    2.5973    1.6954 H   0  0  0  0  0  0  0  0  0  0  0  0
   -3.9053    3.4386    3.7765 H   0  0  0  0  0  0  0  0  0  0  0  0
   -0.8827    1.4406    6.0898 H   0  0  0  0  0  0  0  0  0  0  0  0
   -4.9683    1.8108    6.1119 H   0  0  0  0  0  0  0  0  0  0  0  0
   -5.1847    3.2802    7.1838 H   0  0  0  0  0  0  0  0  0  0  0  0
   -3.1486    2.5591    8.5410 H   0  0  0  0  0  0  0  0  0  0  0  0
   -2.9635    1.0979    7.4576 H   0  0  0  0  0  0  0  0  0  0  0  0
   -2.8996    4.0702    6.5773 H   0  0  0  0  0  0  0  0  0  0  0  0
    3.6731    2.0163    1.8460 H   0  0  0  0  0  0  0  0  0  0  0  0
    4.1465    2.4336    3.5056 H   0  0  0  0  0  0  0  0  0  0  0  0
    5.1279    1.2856    2.5580 H   0  0  0  0  0  0  0  0  0  0  0  0
    3.3027   -0.9053    5.0218 H   0  0  0  0  0  0  0  0  0  0  0  0
    3.8217    0.7410    5.3900 H   0  0  0  0  0  0  0  0  0  0  0  0
    4.8957   -0.3480    4.4716 H   0  0  0  0  0  0  0  0  0  0  0  0
    2.6601   -1.5339    2.6243 H   0  0  0  0  0  0  0  0  0  0  0  0
    2.7441   -0.3265    1.3416 H   0  0  0  0  0  0  0  0  0  0  0  0
    4.2504   -0.9984    2.0245 H   0  0  0  0  0  0  0  0  0  0  0  0
    1.5033    1.3376    2.5892 H   0  0  0  0  0  0  0  0  0  0  0  0
  1  2  1  0  0  0  0
  1  4  2  0  0  0  0
  1 21  1  0  0  0  0
  2  5  2  0  0  0  0
  2 22  1  0  0  0  0
  3  5  1  0  0  0  0
  3  6  2  0  0  0  0
  3 23  1  0  0  0  0
  4  6  1  0  0  0  0
  4  7  1  0  0  0  0
  5 10  1  0  0  0  0
  6 20  1  0  0  0  0
  7 16  1  0  0  0  0
  7 17  2  0  0  0  0
  8  9  1  0  0  0  0
  8 10  1  0  0  0  0
  8 24  1  0  0  0  0
  8 25  1  0  0  0  0
  9 10  1  0  0  0  0
  9 26  1  0  0  0  0
  9 27  1  0  0  0  0
 10 28  1  0  0  0  0
 11 14  1  0  0  0  0
 11 29  1  0  0  0  0
 11 30  1  0  0  0  0
 11 31  1  0  0  0  0
 12 14  1  0  0  0  0
 12 32  1  0  0  0  0
 12 33  1  0  0  0  0
 12 34  1  0  0  0  0
 13 14  1  0  0  0  0
 13 35  1  0  0  0  0
 13 36  1  0  0  0  0
 13 37  1  0  0  0  0
 14 15  1  0  0  0  0
 15 20  1  0  0  0  0
 15 38  1  0  0  0  0
 18 20  2  0  0  0  0
 19 20  2  0  0  0  0
M  CHG  1  16  -1
M  END
$$$$
