
  -OEChem-05262117483D

 32 33  0     1  0  0  0  0  0999 V2000
    0.3411    3.0230   -0.2639 C   0  0  0  0  0  0  0  0  0  0  0  0
    2.0429    1.7730    0.8758 C   0  0  0  0  0  0  0  0  0  0  0  0
    1.1548    4.1573   -0.2663 C   0  0  0  0  0  0  0  0  0  0  0  0
    2.8716    2.8971    0.8833 C   0  0  0  0  0  0  0  0  0  0  0  0
   -2.7956   -1.0841    5.2182 C   0  0  0  0  0  0  0  0  0  0  0  0
   -2.7758   -0.4410    3.9987 C   0  0  0  0  0  0  0  0  0  0  0  0
   -1.5492   -2.2737    3.9408 C   0  0  0  0  0  0  0  0  0  0  0  0
    0.7633    1.8124    0.3036 C   0  0  0  0  0  0  0  0  0  0  0  0
    2.4273    4.0955    0.3104 C   0  0  0  0  0  0  0  0  0  0  0  0
    0.4879   -0.5713   -0.4947 C   0  0  0  0  0  0  0  0  0  0  0  0
   -0.5162    0.1864    1.7391 C   0  0  0  0  0  0  0  0  0  0  0  0
   -1.5798   -0.9161    1.8099 C   0  0  0  0  0  0  0  0  0  0  0  0
   -0.1402    0.5903    0.2985 C   0  0  1  0  0  0  0  0  0  0  0  0
   -2.0258   -2.2281    5.1719 N   0  0  0  0  0  0  0  0  0  0  0  0
   -1.9767   -1.2177    3.1796 N   0  0  0  0  0  0  0  0  0  0  0  0
    3.1945    5.2366    0.2851 O   0  0  0  0  0  0  0  0  0  0  0  0
   -0.6466    3.0845   -0.7163 H   0  0  0  0  0  0  0  0  0  0  0  0
    2.4098    0.8539    1.3262 H   0  0  0  0  0  0  0  0  0  0  0  0
    0.8203    5.0912   -0.7084 H   0  0  0  0  0  0  0  0  0  0  0  0
    3.8612    2.8409    1.3348 H   0  0  0  0  0  0  0  0  0  0  0  0
   -3.3224   -0.7915    6.1176 H   0  0  0  0  0  0  0  0  0  0  0  0
   -3.2462    0.4660    3.6448 H   0  0  0  0  0  0  0  0  0  0  0  0
   -0.9011   -3.0431    3.5385 H   0  0  0  0  0  0  0  0  0  0  0  0
    1.3779   -0.9605    0.0124 H   0  0  0  0  0  0  0  0  0  0  0  0
    0.7931   -0.2347   -1.4899 H   0  0  0  0  0  0  0  0  0  0  0  0
   -0.2136   -1.4020   -0.6242 H   0  0  0  0  0  0  0  0  0  0  0  0
    0.3757   -0.1481    2.2818 H   0  0  0  0  0  0  0  0  0  0  0  0
   -0.8876    1.0696    2.2697 H   0  0  0  0  0  0  0  0  0  0  0  0
   -1.2115   -1.8454    1.3690 H   0  0  0  0  0  0  0  0  0  0  0  0
   -2.4708   -0.6220    1.2438 H   0  0  0  0  0  0  0  0  0  0  0  0
   -1.0673    0.8785   -0.2143 H   0  0  0  0  0  0  0  0  0  0  0  0
    4.0432    5.0574    0.7197 H   0  0  0  0  0  0  0  0  0  0  0  0
  1  3  1  0  0  0  0
  1  8  2  0  0  0  0
  1 17  1  0  0  0  0
  2  4  2  0  0  0  0
  2  8  1  0  0  0  0
  2 18  1  0  0  0  0
  3  9  2  0  0  0  0
  3 19  1  0  0  0  0
  4  9  1  0  0  0  0
  4 20  1  0  0  0  0
  5  6  2  0  0  0  0
  5 14  1  0  0  0  0
  5 21  1  0  0  0  0
  6 15  1  0  0  0  0
  6 22  1  0  0  0  0
  7 14  2  0  0  0  0
  7 15  1  0  0  0  0
  7 23  1  0  0  0  0
  8 13  1  0  0  0  0
  9 16  1  0  0  0  0
 10 13  1  0  0  0  0
 10 24  1  0  0  0  0
 10 25  1  0  0  0  0
 10 26  1  0  0  0  0
 11 12  1  0  0  0  0
 11 13  1  0  0  0  0
 11 27  1  0  0  0  0
 11 28  1  0  0  0  0
 12 15  1  0  0  0  0
 12 29  1  0  0  0  0
 12 30  1  0  0  0  0
 13 31  1  0  0  0  0
 16 32  1  0  0  0  0
M  END
$$$$
