38
-1 1 C14H18NO4S
C                    -2.391944599329     2.378208492467     2.669425358544
C                    -2.999804370396     2.836294867174     3.835829093088
C                    -1.319369657016     1.725289678794     5.137998411091
C                    -1.222333124828     1.597824276927     2.689291967517
C                    -2.470105899006     2.515697542599     5.094620141142
C                    -0.708699706247     1.279423143613     3.960681005131
C                    -0.628863793536     1.238594825180     1.303871977429
C                    -4.499896919158     2.557828843494     6.746457662965
C                    -3.289145335012     2.129356156848     7.552825559070
C                    -3.112701343733     3.026187442169     6.349357517134
C                     4.106791955432     1.622925422199     2.771271492440
C                     3.853617358566    -0.046357410643     4.631536793661
C                     3.227653837152    -0.676000687502     2.258491488530
C                     3.260151567470     0.454861621703     3.307444912678
N                     1.913993869944     1.062421931386     3.523865681005
O                     0.633988864238     1.360571495183     1.187115444814
O                    -1.463171415556     0.942820870177     0.426120869660
O                     0.944449979262     0.093009832288     5.691262493074
O                     0.422648408804    -1.124185902592     3.561798638080
S                     0.695912149535     0.160910137138     4.235745239570
H                    -2.818621724198     2.597307167360     1.695363061790
H                    -3.905325290569     3.438604415984     3.776516662313
H                    -0.882736592106     1.440575003608     6.089823564889
H                    -4.968254607649     1.810799143802     6.111948035434
H                    -5.184723425267     3.280166187308     7.183752739149
H                    -3.148593105553     2.559125184782     8.541043049870
H                    -2.963477873622     1.097909121353     7.457607348571
H                    -2.899553192488     4.070241315067     6.577271607011
H                     3.673128495442     2.016271124514     1.846039567853
H                     4.146465185849     2.433638556426     3.505605881590
H                     5.127911208643     1.285595535391     2.558022363600
H                     3.302656081176    -0.905293331638     5.021762779356
H                     3.821679577113     0.741021130594     5.390042854772
H                     4.895708730152    -0.348036189551     4.471612974051
H                     2.660135573234    -1.533893954764     2.624323812425
H                     2.744087489791    -0.326547424882     1.341562798887
H                     4.250440543629    -0.998395611186     2.024538814625
H                     1.503293372373     1.337576856216     2.589238617217
