
  -OEChem-05262117483D

 39 40  0     0  0  0  0  0  0999 V2000
   -3.8562    2.6064    2.7109 C   0  0  0  0  0  0  0  0  0  0  0  0
   -4.2056    3.0545    3.9823 C   0  0  0  0  0  0  0  0  0  0  0  0
   -1.9920    2.5376    4.7612 C   0  0  0  0  0  0  0  0  0  0  0  0
   -2.5836    2.0814    2.4459 C   0  0  0  0  0  0  0  0  0  0  0  0
   -3.2791    3.0293    5.0339 C   0  0  0  0  0  0  0  0  0  0  0  0
   -1.6506    2.0528    3.5031 C   0  0  0  0  0  0  0  0  0  0  0  0
   -2.3575    1.6428    1.0373 C   0  0  0  0  0  0  0  0  0  0  0  0
   -3.1069    2.8802    7.6422 C   0  0  0  0  0  0  0  0  0  0  0  0
   -2.6551    4.2613    7.2598 C   0  0  0  0  0  0  0  0  0  0  0  0
   -3.6600    3.5292    6.3793 C   0  0  0  0  0  0  0  0  0  0  0  0
   -0.1704   -2.4383    3.4880 C   0  0  0  0  0  0  0  0  0  0  0  0
    1.3250   -1.1336    5.0319 C   0  0  0  0  0  0  0  0  0  0  0  0
   -1.1821   -0.8333    5.1338 C   0  0  0  0  0  0  0  0  0  0  0  0
    0.0238   -1.0993    4.2176 C   0  0  0  0  0  0  0  0  0  0  0  0
    0.1592   -0.0959    3.1162 N   0  0  0  0  0  0  0  0  0  0  0  0
   -2.8268    2.2040    0.0686 O   0  0  0  0  0  0  0  0  0  0  0  0
    0.5328    2.1366    2.0318 O   0  0  0  0  0  0  0  0  0  0  0  0
    0.7577    1.8783    4.5652 O   0  0  0  0  0  0  0  0  0  0  0  0
   -1.6404    0.4872    0.9133 O   0  0  0  0  0  0  0  0  0  0  0  0
    0.0935    1.5556    3.2993 S   0  0  0  0  0  0  0  0  0  0  0  0
   -4.5706    2.6575    1.8954 H   0  0  0  0  0  0  0  0  0  0  0  0
   -5.2063    3.4424    4.1555 H   0  0  0  0  0  0  0  0  0  0  0  0
   -1.2228    2.5435    5.5255 H   0  0  0  0  0  0  0  0  0  0  0  0
   -2.4113    2.0566    7.5113 H   0  0  0  0  0  0  0  0  0  0  0  0
   -3.7857    2.7688    8.4823 H   0  0  0  0  0  0  0  0  0  0  0  0
   -3.0234    5.1054    7.8348 H   0  0  0  0  0  0  0  0  0  0  0  0
   -1.6503    4.3859    6.8678 H   0  0  0  0  0  0  0  0  0  0  0  0
   -4.6847    3.8834    6.4450 H   0  0  0  0  0  0  0  0  0  0  0  0
   -1.1065   -2.4474    2.9176 H   0  0  0  0  0  0  0  0  0  0  0  0
    0.6606   -2.6295    2.8019 H   0  0  0  0  0  0  0  0  0  0  0  0
   -0.2105   -3.2557    4.2134 H   0  0  0  0  0  0  0  0  0  0  0  0
    1.5014   -0.1775    5.5263 H   0  0  0  0  0  0  0  0  0  0  0  0
    2.1752   -1.3420    4.3761 H   0  0  0  0  0  0  0  0  0  0  0  0
    1.2668   -1.9200    5.7922 H   0  0  0  0  0  0  0  0  0  0  0  0
   -1.0408    0.0760    5.7216 H   0  0  0  0  0  0  0  0  0  0  0  0
   -2.1072   -0.7337    4.5574 H   0  0  0  0  0  0  0  0  0  0  0  0
   -1.3025   -1.6657    5.8346 H   0  0  0  0  0  0  0  0  0  0  0  0
   -0.3264   -0.3425    2.2564 H   0  0  0  0  0  0  0  0  0  0  0  0
   -1.5048    0.3584   -0.0457 H   0  0  0  0  0  0  0  0  0  0  0  0
  1  2  1  0  0  0  0
  1  4  2  0  0  0  0
  1 21  1  0  0  0  0
  2  5  2  0  0  0  0
  2 22  1  0  0  0  0
  3  5  1  0  0  0  0
  3  6  2  0  0  0  0
  3 23  1  0  0  0  0
  4  6  1  0  0  0  0
  4  7  1  0  0  0  0
  5 10  1  0  0  0  0
  6 20  1  0  0  0  0
  7 16  2  0  0  0  0
  7 19  1  0  0  0  0
  8  9  1  0  0  0  0
  8 10  1  0  0  0  0
  8 24  1  0  0  0  0
  8 25  1  0  0  0  0
  9 10  1  0  0  0  0
  9 26  1  0  0  0  0
  9 27  1  0  0  0  0
 10 28  1  0  0  0  0
 11 14  1  0  0  0  0
 11 29  1  0  0  0  0
 11 30  1  0  0  0  0
 11 31  1  0  0  0  0
 12 14  1  0  0  0  0
 12 32  1  0  0  0  0
 12 33  1  0  0  0  0
 12 34  1  0  0  0  0
 13 14  1  0  0  0  0
 13 35  1  0  0  0  0
 13 36  1  0  0  0  0
 13 37  1  0  0  0  0
 14 15  1  0  0  0  0
 15 20  1  0  0  0  0
 15 38  1  0  0  0  0
 17 20  2  0  0  0  0
 18 20  2  0  0  0  0
 19 39  1  0  0  0  0
M  END
$$$$
