
  -OEChem-05262117483D

 47 50  0     1  0  0  0  0  0999 V2000
   -0.2452    3.2287    4.2531 C   0  0  0  0  0  0  0  0  0  0  0  0
   -1.5053    3.8182    4.2249 C   0  0  0  0  0  0  0  0  0  0  0  0
   -0.9647    2.2180   -0.3587 C   0  0  0  0  0  0  0  0  0  0  0  0
   -0.0209    2.0193    3.5832 C   0  0  0  0  0  0  0  0  0  0  0  0
   -1.8126    2.7374   -1.3322 C   0  0  0  0  0  0  0  0  0  0  0  0
   -3.4147    1.4740    2.0074 C   0  0  0  0  0  0  0  0  0  0  0  0
   -4.5978    2.1144    2.0064 C   0  0  0  0  0  0  0  0  0  0  0  0
   -2.5376    3.2051    3.5009 C   0  0  0  0  0  0  0  0  0  0  0  0
   -2.3166    2.0013    2.7879 C   0  0  0  0  0  0  0  0  0  0  0  0
   -0.8380    0.8339   -0.1893 C   0  0  0  0  0  0  0  0  0  0  0  0
   -1.5552   -0.0641   -0.9931 C   0  0  0  0  0  0  0  0  0  0  0  0
   -1.0359    1.3958    2.8538 C   0  0  0  0  0  0  0  0  0  0  0  0
   -2.3682    0.4639   -2.0156 C   0  0  0  0  0  0  0  0  0  0  0  0
   -2.5046    1.8534   -2.1549 C   0  0  0  0  0  0  0  0  0  0  0  0
   -3.8570    3.8632    3.4813 C   0  0  0  0  0  0  0  0  0  0  0  0
   -0.4047   -2.0475    0.1984 C   0  0  0  0  0  0  0  0  0  0  0  0
   -1.4434   -1.5764   -0.8484 C   0  0  1  0  0  0  0  0  0  0  0  0
    0.0286    0.3115    0.9371 C   0  0  2  0  0  0  0  0  0  0  0  0
    0.6784   -1.0205    0.5038 C   0  0  1  0  0  0  0  0  0  0  0  0
   -2.7999   -2.2302   -0.5094 C   0  0  0  0  0  0  0  0  0  0  0  0
    1.6535   -1.5644    1.5748 C   0  0  0  0  0  0  0  0  0  0  0  0
   -0.7392    0.1712    2.1955 N   0  0  0  0  0  0  0  0  0  0  0  0
   -4.1503    4.8831    4.0668 O   0  0  0  0  0  0  0  0  0  0  0  0
   -4.8479    3.2499    2.7178 O   0  0  0  0  0  0  0  0  0  0  0  0
   -2.9914   -0.4102   -2.8615 O   0  0  0  0  0  0  0  0  0  0  0  0
    1.4274   -0.8244   -0.6898 O   0  0  0  0  0  0  0  0  0  0  0  0
    2.3622   -2.6095    1.0952 F   0  0  0  0  0  0  0  0  0  0  0  0
    2.5566   -0.5994    1.9216 F   0  0  0  0  0  0  0  0  0  0  0  0
    1.0538   -1.9802    2.7064 F   0  0  0  0  0  0  0  0  0  0  0  0
   -3.5560    2.4754   -3.4277 Cl  0  0  0  0  0  0  0  0  0  0  0  0
    0.5616    3.6898    4.8158 H   0  0  0  0  0  0  0  0  0  0  0  0
   -1.7145    4.7431    4.7519 H   0  0  0  0  0  0  0  0  0  0  0  0
   -0.4085    2.8945    0.2837 H   0  0  0  0  0  0  0  0  0  0  0  0
    0.9492    1.5322    3.6377 H   0  0  0  0  0  0  0  0  0  0  0  0
   -1.9331    3.8078   -1.4626 H   0  0  0  0  0  0  0  0  0  0  0  0
   -3.3092    0.6003    1.3766 H   0  0  0  0  0  0  0  0  0  0  0  0
   -5.4663    1.8055    1.4357 H   0  0  0  0  0  0  0  0  0  0  0  0
   -0.9056   -2.2938    1.1387 H   0  0  0  0  0  0  0  0  0  0  0  0
    0.0669   -2.9689   -0.1520 H   0  0  0  0  0  0  0  0  0  0  0  0
   -1.1306   -1.9520   -1.8280 H   0  0  0  0  0  0  0  0  0  0  0  0
    0.8252    1.0318    1.1402 H   0  0  0  0  0  0  0  0  0  0  0  0
   -3.1766   -1.8625    0.4532 H   0  0  0  0  0  0  0  0  0  0  0  0
   -2.6811   -3.3158   -0.4241 H   0  0  0  0  0  0  0  0  0  0  0  0
   -3.5503   -2.0268   -1.2731 H   0  0  0  0  0  0  0  0  0  0  0  0
   -1.5881   -0.3555    2.0173 H   0  0  0  0  0  0  0  0  0  0  0  0
   -3.4802    0.0984   -3.5337 H   0  0  0  0  0  0  0  0  0  0  0  0
    2.0314   -0.0726   -0.5694 H   0  0  0  0  0  0  0  0  0  0  0  0
  1  2  1  0  0  0  0
  1  4  2  0  0  0  0
  1 31  1  0  0  0  0
  2  8  2  0  0  0  0
  2 32  1  0  0  0  0
  3  5  2  0  0  0  0
  3 10  1  0  0  0  0
  3 33  1  0  0  0  0
  4 12  1  0  0  0  0
  4 34  1  0  0  0  0
  5 14  1  0  0  0  0
  5 35  1  0  0  0  0
  6  7  2  0  0  0  0
  6  9  1  0  0  0  0
  6 36  1  0  0  0  0
  7 24  1  0  0  0  0
  7 37  1  0  0  0  0
  8  9  1  0  0  0  0
  8 15  1  0  0  0  0
  9 12  2  0  0  0  0
 10 11  2  0  0  0  0
 10 18  1  0  0  0  0
 11 13  1  0  0  0  0
 11 17  1  0  0  0  0
 12 22  1  0  0  0  0
 13 14  2  0  0  0  0
 13 25  1  0  0  0  0
 14 30  1  0  0  0  0
 15 23  2  0  0  0  0
 15 24  1  0  0  0  0
 16 17  1  0  0  0  0
 16 19  1  0  0  0  0
 16 38  1  0  0  0  0
 16 39  1  0  0  0  0
 17 20  1  0  0  0  0
 17 40  1  0  0  0  0
 18 19  1  0  0  0  0
 18 22  1  0  0  0  0
 18 41  1  0  0  0  0
 19 21  1  0  0  0  0
 19 26  1  0  0  0  0
 20 42  1  0  0  0  0
 20 43  1  0  0  0  0
 20 44  1  0  0  0  0
 21 27  1  0  0  0  0
 21 28  1  0  0  0  0
 21 29  1  0  0  0  0
 22 45  1  0  0  0  0
 25 46  1  0  0  0  0
 26 47  1  0  0  0  0
M  END
$$$$
