15
0 1 C4H8O3
C                     0.462549756933    -0.005263551086     1.181912405142
C                     0.053130524390     1.144803472236    -0.500755875284
C                    -0.252343661643    -0.336240697231    -0.152781991057
C                     0.516493314482    -1.350600806972    -0.994414589863
O                     0.927913413683     1.263001224276     0.648794374742
O                    -1.601594114209    -0.746180211515    -0.102805468678
O                     0.093031787851    -1.418769743341    -2.350551257222
H                    -0.230607660089     0.136299306302     2.022654483371
H                     1.292689235276    -0.649327102732     1.493345936209
H                     0.581466798388     1.362838051136    -1.437512670965
H                    -0.822513283306     1.804320204958    -0.419075552447
H                     0.346824691245    -2.347425328062    -0.578468326851
H                     1.589733977601    -1.123013510482    -0.921401036131
H                    -2.105539769175    -0.093173146959     0.408754014454
H                     0.281829220026    -0.568189207703    -2.776467017795
