
  -OEChem-05262117483D

 15 15  0     0  0  0  0  0  0999 V2000
    0.4536    0.0483    1.1465 C   0  0  0  0  0  0  0  0  0  0  0  0
    0.0484    1.1204   -0.5905 C   0  0  0  0  0  0  0  0  0  0  0  0
   -0.2123   -0.3458   -0.1817 C   0  0  0  0  0  0  0  0  0  0  0  0
    0.5335   -1.3929   -0.9978 C   0  0  0  0  0  0  0  0  0  0  0  0
    0.8491    1.3388    0.5980 O   0  0  0  0  0  0  0  0  0  0  0  0
   -1.5719   -0.7479    0.0022 O   0  0  0  0  0  0  0  0  0  0  0  0
    0.4734   -2.6717   -0.3798 O   0  0  0  0  0  0  0  0  0  0  0  0
   -0.2607    0.1566    1.9697 H   0  0  0  0  0  0  0  0  0  0  0  0
    1.3160   -0.5479    1.4580 H   0  0  0  0  0  0  0  0  0  0  0  0
    0.6246    1.2879   -1.5090 H   0  0  0  0  0  0  0  0  0  0  0  0
   -0.8581    1.7389   -0.5941 H   0  0  0  0  0  0  0  0  0  0  0  0
    1.5911   -1.1266   -1.0803 H   0  0  0  0  0  0  0  0  0  0  0  0
    0.1138   -1.4248   -2.0188 H   0  0  0  0  0  0  0  0  0  0  0  0
   -2.0178   -0.7250   -0.8613 H   0  0  0  0  0  0  0  0  0  0  0  0
   -0.4468   -2.7950   -0.0887 H   0  0  0  0  0  0  0  0  0  0  0  0
  1  3  1  0  0  0  0
  1  5  1  0  0  0  0
  1  8  1  0  0  0  0
  1  9  1  0  0  0  0
  2  3  1  0  0  0  0
  2  5  1  0  0  0  0
  2 10  1  0  0  0  0
  2 11  1  0  0  0  0
  3  4  1  0  0  0  0
  3  6  1  0  0  0  0
  4  7  1  0  0  0  0
  4 12  1  0  0  0  0
  4 13  1  0  0  0  0
  6 14  1  0  0  0  0
  7 15  1  0  0  0  0
M  END
$$$$
