22
0 1 C11H8N2O
C                     1.811540007773    -0.953749030465    -0.203842654663
C                     2.795838724365    -1.629263531113     0.524581909857
C                     0.760439537053    -0.311327880836     0.464712107310
C                     2.736756591512    -1.659081275198     1.919579954540
C                     0.694920397357    -0.347212123048     1.855587538724
C                     4.601644578467    -2.561435784155     6.524880671273
C                     3.308161593250    -3.089285236286     6.551825671035
C                     4.839637012366    -1.542976355525     5.602200465655
C                     1.685028791793    -1.018278651111     2.594868221347
C                     2.672755476022    -1.648691743226     4.914870580915
C                     1.547553468517    -1.057849787368     4.077189485928
N                     2.331840122564    -2.630488160709     5.760393145521
N                     3.883877463049    -1.090509795170     4.778066249051
O                     0.562314033597    -0.626138980702     4.659902253225
H                     1.861456431496    -0.927771578315    -1.289507239791
H                     3.609789412393    -2.128741088884     0.005956249347
H                    -0.004693034552     0.212344934324    -0.102247154970
H                     3.509363447253    -2.176356131502     2.477825165732
H                    -0.115145150966     0.135647598108     2.393442615344
H                     5.382531263643    -2.930118351758     7.182819566889
H                     3.043426442870    -3.900029105125     7.229150740926
H                     5.820351542918    -1.078733480232     5.509686578248
