
  -OEChem-05262117483D

 18 18  0     0  0  0  0  0  0999 V2000
    1.5475    0.3745    1.5535 C   0  0  0  0  0  0  0  0  0  0  0  0
    1.4103    0.4684    2.9295 C   0  0  0  0  0  0  0  0  0  0  0  0
    0.3090   -0.1147    1.0447 C   0  0  0  0  0  0  0  0  0  0  0  0
   -0.5528   -0.3230    2.1191 C   0  0  0  0  0  0  0  0  0  0  0  0
   -1.9254   -0.8402    2.1636 C   0  0  0  0  0  0  0  0  0  0  0  0
   -3.6205   -1.9743    3.5238 C   0  0  0  0  0  0  0  0  0  0  0  0
    0.1662    0.0145    3.2720 N   0  0  0  0  0  0  0  0  0  0  0  0
   -2.3052   -1.3479    3.4079 N   0  0  0  0  0  0  0  0  0  0  0  0
   -2.7025   -0.7950    1.2122 O   0  0  0  0  0  0  0  0  0  0  0  0
    0.0002   -0.3916   -0.2533 O   0  0  0  0  0  0  0  0  0  0  0  0
    2.4359    0.6171    0.9829 H   0  0  0  0  0  0  0  0  0  0  0  0
    2.1030    0.8334    3.6756 H   0  0  0  0  0  0  0  0  0  0  0  0
   -3.8149   -2.1948    4.5766 H   0  0  0  0  0  0  0  0  0  0  0  0
   -3.6981   -2.8973    2.9359 H   0  0  0  0  0  0  0  0  0  0  0  0
   -4.3787   -1.2800    3.1590 H   0  0  0  0  0  0  0  0  0  0  0  0
   -0.2854    0.2047    4.1565 H   0  0  0  0  0  0  0  0  0  0  0  0
   -1.5621   -1.8009    3.9279 H   0  0  0  0  0  0  0  0  0  0  0  0
    0.7845   -0.2195   -0.7965 H   0  0  0  0  0  0  0  0  0  0  0  0
  1  2  2  0  0  0  0
  1  3  1  0  0  0  0
  1 11  1  0  0  0  0
  2  7  1  0  0  0  0
  2 12  1  0  0  0  0
  3  4  2  0  0  0  0
  3 10  1  0  0  0  0
  4  5  1  0  0  0  0
  4  7  1  0  0  0  0
  5  8  1  0  0  0  0
  5  9  2  0  0  0  0
  6  8  1  0  0  0  0
  6 13  1  0  0  0  0
  6 14  1  0  0  0  0
  6 15  1  0  0  0  0
  7 16  1  0  0  0  0
  8 17  1  0  0  0  0
 10 18  1  0  0  0  0
M  END
$$$$
