18
0 1 C8H8O2
C                     1.826288414764    -1.208219317731    -0.171542328612
C                     0.760717619677    -0.610480066110     0.513569493974
C                     2.921403194689    -1.671305030635     0.548989536644
C                     0.806430704148    -0.485843783198     1.900093707563
C                     2.998774792631    -1.561856250088     1.951269768844
C                     1.914407104428    -0.955953799687     2.622010064448
C                     4.242645588687    -2.107085580475     2.601839130953
C                     4.414683200709    -2.069133483061     4.105445268224
O                     5.125283801457    -2.590049147367     1.897776138927
O                     1.947122252495    -0.825093974727     3.988378516053
H                     1.797594267358    -1.308821297796    -1.252523049829
H                    -0.105691696436    -0.240926118270    -0.028779937615
H                     3.763027517163    -2.138401160655     0.047707325832
H                    -0.021635383799    -0.020253813230     2.433092376752
H                     3.596615424023    -2.595082633369     4.605846113225
H                     4.387717436034    -1.039142515704     4.472848967970
H                     5.370797468094    -2.532666218413     4.353119136778
H                     1.129315021500    -0.389407300924     4.277859749672
