33
0 1 C16H14N2O
C                     0.558635130127    -6.547623146715     4.767631213130
C                     0.126521815399    -1.481792087370     1.354287039547
C                     1.700696765898    -5.988584667134     5.347430198411
C                     0.625637315414    -1.068759108948     0.111031893550
C                     0.278296644638    -6.292161922204     3.424574499351
C                     0.152907152051    -2.832671262722     1.685059499947
C                     2.552100277934    -5.191493438036     4.576997319072
C                     1.111480648812    -2.009031366426    -0.792364433040
C                     1.115510613735    -5.469699450494     2.657106938596
C                     0.647133922490    -3.801547273555     0.791810659673
C                     2.280079516261    -4.913570090878     3.230273433681
C                     1.114886629135    -3.377766753610    -0.471571894993
C                     0.738949179560    -5.218675313393     1.231209739155
C                     1.147263384251    -5.520009719648    -1.765466611831
C                     0.024869413280    -6.028320911973    -0.869630195541
C                     3.252494823032    -4.072660326975     2.431473793001
N                     0.483086309546    -6.243483635567     0.497290108519
N                     1.662361787605    -4.280494528296    -1.401694411860
O                     1.583284926685    -6.122303440768    -2.734585149871
H                    -0.103788902189    -7.179618431064     5.353210072994
H                    -0.264546033028    -0.753834410611     2.059140019063
H                     1.936271690753    -6.181085932317     6.391127030153
H                     0.628777939826    -0.015523984986    -0.156320572606
H                    -0.596236547096    -6.727866513948     2.950551354974
H                    -0.195242900561    -3.158817200854     2.660545717323
H                     3.454788496623    -4.783889891880     5.026917928490
H                     1.487379971169    -1.691488018787    -1.762338153204
H                    -0.801398001328    -5.301720013831    -0.912699341330
H                    -0.313962119699    -6.975726166037    -1.287959301198
H                     3.404528308800    -4.475334185239     1.425881805676
H                     2.898695602609    -3.042374745498     2.318356332687
H                     4.225238722392    -4.038231041628     2.929673350766
H                     2.290621012053    -3.896367135326    -2.100771739629
