
  -OEChem-05262117483D

 28 29  0     0  0  0  0  0  0999 V2000
    6.4889    2.8560   -2.4842 C   0  0  0  0  0  0  0  0  0  0  0  0
    7.0483    4.0165   -1.9428 C   0  0  0  0  0  0  0  0  0  0  0  0
    5.4209    2.2380   -1.8359 C   0  0  0  0  0  0  0  0  0  0  0  0
    6.4940    4.5036   -0.7567 C   0  0  0  0  0  0  0  0  0  0  0  0
    4.9462    2.8156   -0.6409 C   0  0  0  0  0  0  0  0  0  0  0  0
    0.6592   -0.3399   -0.5675 C   0  0  0  0  0  0  0  0  0  0  0  0
    1.3391    0.2749   -1.7990 C   0  0  0  0  0  0  0  0  0  0  0  0
    1.6846   -0.6698    0.5268 C   0  0  0  0  0  0  0  0  0  0  0  0
    2.1824    1.5017   -1.4189 C   0  0  0  0  0  0  0  0  0  0  0  0
    2.5307    0.5576    0.8956 C   0  0  0  0  0  0  0  0  0  0  0  0
    3.2094    1.1432   -0.3409 C   0  0  0  0  0  0  0  0  0  0  0  0
    5.4715    3.9261   -0.1163 N   0  0  0  0  0  0  0  0  0  0  0  0
    3.9306    2.3080    0.1049 O   0  0  0  0  0  0  0  0  0  0  0  0
    6.8762    2.4313   -3.4072 H   0  0  0  0  0  0  0  0  0  0  0  0
    7.8790    4.5279   -2.4191 H   0  0  0  0  0  0  0  0  0  0  0  0
    4.9792    1.3415   -2.2530 H   0  0  0  0  0  0  0  0  0  0  0  0
    6.8907    5.4062   -0.2931 H   0  0  0  0  0  0  0  0  0  0  0  0
    0.1045   -1.2418   -0.8514 H   0  0  0  0  0  0  0  0  0  0  0  0
   -0.0769    0.3719   -0.1700 H   0  0  0  0  0  0  0  0  0  0  0  0
    1.9835   -0.4793   -2.2723 H   0  0  0  0  0  0  0  0  0  0  0  0
    0.5912    0.5581   -2.5481 H   0  0  0  0  0  0  0  0  0  0  0  0
    1.1795   -1.0516    1.4210 H   0  0  0  0  0  0  0  0  0  0  0  0
    2.3439   -1.4752    0.1742 H   0  0  0  0  0  0  0  0  0  0  0  0
    2.6784    1.9171   -2.3020 H   0  0  0  0  0  0  0  0  0  0  0  0
    1.5362    2.2917   -1.0169 H   0  0  0  0  0  0  0  0  0  0  0  0
    1.8964    1.3336    1.3410 H   0  0  0  0  0  0  0  0  0  0  0  0
    3.2935    0.3011    1.6380 H   0  0  0  0  0  0  0  0  0  0  0  0
    3.9209    0.4017   -0.7288 H   0  0  0  0  0  0  0  0  0  0  0  0
  1  2  1  0  0  0  0
  1  3  2  0  0  0  0
  1 14  1  0  0  0  0
  2  4  2  0  0  0  0
  2 15  1  0  0  0  0
  3  5  1  0  0  0  0
  3 16  1  0  0  0  0
  4 12  1  0  0  0  0
  4 17  1  0  0  0  0
  5 12  2  0  0  0  0
  5 13  1  0  0  0  0
  6  7  1  0  0  0  0
  6  8  1  0  0  0  0
  6 18  1  0  0  0  0
  6 19  1  0  0  0  0
  7  9  1  0  0  0  0
  7 20  1  0  0  0  0
  7 21  1  0  0  0  0
  8 10  1  0  0  0  0
  8 22  1  0  0  0  0
  8 23  1  0  0  0  0
  9 11  1  0  0  0  0
  9 24  1  0  0  0  0
  9 25  1  0  0  0  0
 10 11  1  0  0  0  0
 10 26  1  0  0  0  0
 10 27  1  0  0  0  0
 11 13  1  0  0  0  0
 11 28  1  0  0  0  0
M  END
$$$$
