18
0 1 BrC8F3H3NOS
C                     1.712381660182    -0.578998842880    -2.949612139510
C                     1.442456741894     0.018640198453    -1.722897226291
C                    -0.438810475671    -1.506407823679    -1.329667286783
C                     0.912051194499    -1.648235110919    -3.377948912281
C                     0.381086338543    -0.454468935170    -0.937643315679
C                    -0.156894671670    -2.099997558661    -2.562691484633
C                     0.180106114540    -3.255648190030    -4.684223804047
C                     0.677848098062    -0.274779526517     1.394788384672
N                     1.069618328693    -2.334029778485    -4.579131215590
O                     0.091460396124     0.211681351393     0.270837547889
F                     0.312651300123    -1.551406783504     1.661232555188
F                     0.297401254303     0.495559386825     2.419216143764
F                     2.028867489500    -0.261280448711     1.325803912137
S                    -0.974867810304    -3.432134108020    -3.356478271931
Br                    0.047565723302    -4.419983894744    -6.169766731237
H                     2.526188528427    -0.234077702605    -3.579399241444
H                     2.037851881350     0.849801914873    -1.360126769363
H                    -1.254155884322    -1.832242420399    -0.692833179561
