
  -OEChem-05262117483D

 25 26  0     0  0  0  0  0  0999 V2000
    0.8816   -4.9189   -0.3520 C   0  0  0  0  0  0  0  0  0  0  0  0
    1.7866   -5.0461    0.7046 C   0  0  0  0  0  0  0  0  0  0  0  0
   -0.0664   -4.9361    2.2841 C   0  0  0  0  0  0  0  0  0  0  0  0
   -0.4909   -4.8048   -0.1204 C   0  0  0  0  0  0  0  0  0  0  0  0
    1.2928   -5.0446    2.0044 C   0  0  0  0  0  0  0  0  0  0  0  0
   -0.9380   -4.8271    1.2069 C   0  0  0  0  0  0  0  0  0  0  0  0
   -1.7250   -0.1233   -1.7188 C   0  0  0  0  0  0  0  0  0  0  0  0
   -0.3125   -0.5031   -1.2665 C   0  0  0  0  0  0  0  0  0  0  0  0
   -1.3535   -2.4064   -1.8978 C   0  0  0  0  0  0  0  0  0  0  0  0
   -2.1558   -3.5623   -1.3187 C   0  0  0  0  0  0  0  0  0  0  0  0
   -2.2471   -1.3494   -2.2568 O   0  0  0  0  0  0  0  0  0  0  0  0
   -0.4582   -1.8864   -0.9325 O   0  0  0  0  0  0  0  0  0  0  0  0
   -1.3601   -4.7509   -1.1857 O   0  0  0  0  0  0  0  0  0  0  0  0
    2.1599   -5.1570    3.0436 F   0  0  0  0  0  0  0  0  0  0  0  0
   -2.2686   -4.7417    1.4571 F   0  0  0  0  0  0  0  0  0  0  0  0
    1.2285   -4.9028   -1.3804 H   0  0  0  0  0  0  0  0  0  0  0  0
    2.8539   -5.1355    0.5307 H   0  0  0  0  0  0  0  0  0  0  0  0
   -0.4389   -4.9489    3.3028 H   0  0  0  0  0  0  0  0  0  0  0  0
   -2.3490    0.1997   -0.8776 H   0  0  0  0  0  0  0  0  0  0  0  0
   -1.7367    0.6440   -2.4984 H   0  0  0  0  0  0  0  0  0  0  0  0
    0.4195   -0.3786   -2.0767 H   0  0  0  0  0  0  0  0  0  0  0  0
    0.0308    0.0280   -0.3771 H   0  0  0  0  0  0  0  0  0  0  0  0
   -0.7989   -2.7278   -2.7942 H   0  0  0  0  0  0  0  0  0  0  0  0
   -2.9524   -3.8189   -2.0194 H   0  0  0  0  0  0  0  0  0  0  0  0
   -2.5975   -3.2598   -0.3661 H   0  0  0  0  0  0  0  0  0  0  0  0
  1  2  1  0  0  0  0
  1  4  2  0  0  0  0
  1 16  1  0  0  0  0
  2  5  2  0  0  0  0
  2 17  1  0  0  0  0
  3  5  1  0  0  0  0
  3  6  2  0  0  0  0
  3 18  1  0  0  0  0
  4  6  1  0  0  0  0
  4 13  1  0  0  0  0
  5 14  1  0  0  0  0
  6 15  1  0  0  0  0
  7  8  1  0  0  0  0
  7 11  1  0  0  0  0
  7 19  1  0  0  0  0
  7 20  1  0  0  0  0
  8 12  1  0  0  0  0
  8 21  1  0  0  0  0
  8 22  1  0  0  0  0
  9 10  1  0  0  0  0
  9 11  1  0  0  0  0
  9 12  1  0  0  0  0
  9 23  1  0  0  0  0
 10 13  1  0  0  0  0
 10 24  1  0  0  0  0
 10 25  1  0  0  0  0
M  END
$$$$
