25
0 1 C10F2H10O3
C                    -1.928408852959    -1.407395666584    -2.118173277109
C                    -2.735671238470    -1.911528396277    -1.095632897332
C                    -3.730319253692     0.290617043709    -0.832296425821
C                    -1.992572510521    -0.066505552475    -2.517016691425
C                    -3.617495042221    -1.045192688714    -0.460951027911
C                    -2.926738454579     0.753659723922    -1.867016745162
C                     0.833024885878     0.605541699712    -0.541508103325
C                     1.481302730745    -0.194380765049    -1.670144407426
C                     0.569476748775     1.728800134574    -2.548982498103
C                    -0.547096151168     1.590640241200    -3.581665739188
O                     0.037500592835     1.571542770136    -1.239038392102
O                     1.609095624512     0.775996108772    -2.715530542161
O                    -1.193754581476     0.309396595688    -3.566506838851
F                    -4.402494228091    -1.510000958106     0.545540534214
F                    -3.069008298012     2.049761966995    -2.243670959977
H                    -1.231076412957    -2.055258181425    -2.640052038647
H                    -2.681800061780    -2.952206155613    -0.793023226917
H                    -4.432057485563     0.957561884562    -0.342867265934
H                     0.168728391752     0.009429085919     0.088820325728
H                     1.580656937405     1.113825792873     0.080488652800
H                     2.479637259005    -0.564545510393    -1.426017613715
H                     0.847047097691    -1.026357176244    -1.993706944750
H                     1.020134179249     2.726761518816    -2.661411774038
H                    -0.105630804015     1.663037414609    -4.577924924388
H                    -1.262289618514     2.404275063350    -3.447239487374
