37
0 1 C16H13N3O4S
C                     0.421023570179    -3.987816355227     3.419216072083
C                     1.024159445079    -2.740044179019     3.628579061074
C                     0.707974627633    -4.742029429174     2.274565759606
C                     2.798783278036    -7.488927268004    -4.021010239332
C                     3.327561780137    -7.995770538622    -5.216191826534
C                     1.929990960524    -2.218200824728     2.694459240101
C                     1.924070758729    -9.683367067578    -3.391223280277
C                     1.610677620950    -4.223841583429     1.342649025073
C                     2.102036706000    -8.304880193260    -3.108516779688
C                     3.144787776356    -9.346478080638    -5.463724489441
C                     2.461229607477   -10.165739104308    -4.567363769662
C                     2.198087984307    -2.982023031848     1.570095676844
C                     2.106299815819    -4.786064053493     0.049833581031
C                     1.580026443925    -7.714356362866    -1.855529620278
C                     3.258787946591   -11.450109467454    -6.219639937058
C                     0.495378609307    -8.415759059344    -1.065020821212
N                     2.957555756206    -4.085517322321    -0.640460071804
N                     2.095079793132    -6.582214206827    -1.498168370464
N                     1.639053918064    -6.000663967776    -0.350317752970
O                     2.781358319173    -1.503522024554    -0.596742297632
O                     4.687818859388    -2.631965565272     0.623355974250
O                     3.534590658412   -10.079748887096    -6.560013296634
O                     2.398805720539   -11.450534492006    -5.067837106649
S                     3.295777470659    -2.634820084732     0.174688657553
H                    -0.278563773294    -4.375481520105     4.154169963702
H                     0.786794250220    -2.171785680851     4.523493565994
H                     0.225433830999    -5.706757357438     2.136882146889
H                     2.927103189971    -6.439859753250    -3.779703325142
H                     3.854265537148    -7.357976424563    -5.918707144555
H                     2.403892933903    -1.252848176307     2.844797067457
H                     1.414000189764   -10.358687524234    -2.713679088687
H                     2.746833411504   -11.933432409173    -7.054257434669
H                     4.200872725976   -11.956924988020    -5.971603645616
H                     0.885415292438    -8.831012766973    -0.126812413064
H                    -0.313853050984    -7.718350497200    -0.817320806011
H                     0.041018859271    -9.230416225406    -1.626054457630
H                     0.991173823956    -6.486034015660     0.261431391218
