
  -OEChem-05262117483D

 25 26  0     0  0  0  0  0  0999 V2000
   -3.4208   -0.7940   -2.6554 C   0  0  0  0  0  0  0  0  0  0  0  0
   -4.7377   -1.1035   -3.0054 C   0  0  0  0  0  0  0  0  0  0  0  0
   -4.3663   -0.1198   -5.2035 C   0  0  0  0  0  0  0  0  0  0  0  0
   -2.5582   -0.1585   -3.5550 C   0  0  0  0  0  0  0  0  0  0  0  0
   -5.1862   -0.7533   -4.2743 C   0  0  0  0  0  0  0  0  0  0  0  0
   -3.0571    0.1588   -4.8267 C   0  0  0  0  0  0  0  0  0  0  0  0
    2.7437    1.6178   -2.9677 C   0  0  0  0  0  0  0  0  0  0  0  0
    2.2436    3.0470   -2.7384 C   0  0  0  0  0  0  0  0  0  0  0  0
    0.5365    1.4910   -2.5278 C   0  0  0  0  0  0  0  0  0  0  0  0
   -0.8092    1.4323   -3.2257 C   0  0  0  0  0  0  0  0  0  0  0  0
    1.5478    0.9279   -3.3375 O   0  0  0  0  0  0  0  0  0  0  0  0
    0.8839    2.8624   -2.3103 O   0  0  0  0  0  0  0  0  0  0  0  0
   -1.2575    0.0671   -3.1847 O   0  0  0  0  0  0  0  0  0  0  0  0
   -6.4645   -1.0400   -4.6286 F   0  0  0  0  0  0  0  0  0  0  0  0
   -2.2390    0.7509   -5.7308 F   0  0  0  0  0  0  0  0  0  0  0  0
   -3.0327   -1.0488   -1.6740 H   0  0  0  0  0  0  0  0  0  0  0  0
   -5.4080   -1.6000   -2.3114 H   0  0  0  0  0  0  0  0  0  0  0  0
   -4.7253    0.1371   -6.1943 H   0  0  0  0  0  0  0  0  0  0  0  0
    3.4605    1.5209   -3.7849 H   0  0  0  0  0  0  0  0  0  0  0  0
    3.1697    1.1868   -2.0506 H   0  0  0  0  0  0  0  0  0  0  0  0
    2.7964    3.5780   -1.9579 H   0  0  0  0  0  0  0  0  0  0  0  0
    2.2559    3.6369   -3.6621 H   0  0  0  0  0  0  0  0  0  0  0  0
    0.4930    0.9719   -1.5570 H   0  0  0  0  0  0  0  0  0  0  0  0
   -0.7013    1.7861   -4.2540 H   0  0  0  0  0  0  0  0  0  0  0  0
   -1.5137    2.0744   -2.6849 H   0  0  0  0  0  0  0  0  0  0  0  0
  1  2  1  0  0  0  0
  1  4  2  0  0  0  0
  1 16  1  0  0  0  0
  2  5  2  0  0  0  0
  2 17  1  0  0  0  0
  3  5  1  0  0  0  0
  3  6  2  0  0  0  0
  3 18  1  0  0  0  0
  4  6  1  0  0  0  0
  4 13  1  0  0  0  0
  5 14  1  0  0  0  0
  6 15  1  0  0  0  0
  7  8  1  0  0  0  0
  7 11  1  0  0  0  0
  7 19  1  0  0  0  0
  7 20  1  0  0  0  0
  8 12  1  0  0  0  0
  8 21  1  0  0  0  0
  8 22  1  0  0  0  0
  9 10  1  0  0  0  0
  9 11  1  0  0  0  0
  9 12  1  0  0  0  0
  9 23  1  0  0  0  0
 10 13  1  0  0  0  0
 10 24  1  0  0  0  0
 10 25  1  0  0  0  0
M  END
$$$$
