20
0 1 C8ClH8NO2
C                     1.898911388088    -0.671737016756    -0.033120481935
C                     0.744408309251    -0.189025597513     0.571446563315
C                     1.549069524183    -1.064324672716     2.690513435521
C                     2.884917479076    -1.387792344441     0.675775078090
C                     2.719590855397    -1.535410798905     2.071921892413
C                     0.576590859025    -0.415699444177     1.941844736422
C                     3.966649743059    -1.972383473873    -0.144217892915
C                     5.021436806194    -1.888702316128     2.706750931308
N                     4.414767376928    -3.177003206507    -0.167805099230
O                     3.796236715657    -3.999844092841     0.787858504967
O                     3.620927121565    -2.091035334045     2.927968987389
Cl                   -0.873118685175     0.169186722718     2.739885690444
H                     2.030388540599    -0.530889908588    -1.103325234229
H                    -0.011599490373     0.338222645805    -0.000190302709
H                     1.442347493259    -1.195335477226     3.761896522586
H                     4.408852334611    -1.346705364188    -0.918947124986
H                     5.485790729325    -1.932257347141     3.694249735955
H                     5.207987976361    -0.906247538693     2.259788819380
H                     5.439437917232    -2.670783063222     2.070548084872
H                     4.201173060502    -4.865285025243     0.613684604545
