
  -OEChem-05262117483D

 31 32  0     0  0  0  0  0  0999 V2000
    1.1316   -1.4619    0.6046 C   0  0  0  0  0  0  0  0  0  0  0  0
    0.9284    1.0409    0.6672 C   0  0  0  0  0  0  0  0  0  0  0  0
    0.8474   -0.1621   -1.5839 C   0  0  0  0  0  0  0  0  0  0  0  0
    0.8775   -1.4777    2.1214 C   0  0  0  0  0  0  0  0  0  0  0  0
    0.7053    0.9412    2.1859 C   0  0  0  0  0  0  0  0  0  0  0  0
   -1.0397   -0.3268   -0.1696 C   0  0  0  0  0  0  0  0  0  0  0  0
    0.4970   -0.2407   -0.0800 C   0  0  0  0  0  0  0  0  0  0  0  0
   -0.4118    0.4192   -2.2864 C   0  0  0  0  0  0  0  0  0  0  0  0
   -0.9468   -0.5283   -3.3669 C   0  0  0  0  0  0  0  0  0  0  0  0
   -0.1925    1.8221   -2.8519 C   0  0  0  0  0  0  0  0  0  0  0  0
    1.2994   -0.2499    2.8073 N   0  0  0  0  0  0  0  0  0  0  0  0
   -1.4089    0.5396   -1.2373 O   0  0  0  0  0  0  0  0  0  0  0  0
    2.2163   -1.4455    0.4277 H   0  0  0  0  0  0  0  0  0  0  0  0
    0.7526   -2.3859    0.1476 H   0  0  0  0  0  0  0  0  0  0  0  0
    0.3877    1.9061    0.2666 H   0  0  0  0  0  0  0  0  0  0  0  0
    1.9968    1.2145    0.4775 H   0  0  0  0  0  0  0  0  0  0  0  0
    1.7343    0.4534   -1.7616 H   0  0  0  0  0  0  0  0  0  0  0  0
    1.0654   -1.1648   -1.9678 H   0  0  0  0  0  0  0  0  0  0  0  0
   -0.1937   -1.6157    2.3179 H   0  0  0  0  0  0  0  0  0  0  0  0
    1.3911   -2.3272    2.5846 H   0  0  0  0  0  0  0  0  0  0  0  0
    1.1097    1.8287    2.6844 H   0  0  0  0  0  0  0  0  0  0  0  0
   -0.3690    0.9264    2.4078 H   0  0  0  0  0  0  0  0  0  0  0  0
   -1.3523   -1.3637   -0.3769 H   0  0  0  0  0  0  0  0  0  0  0  0
   -1.5681    0.0145    0.7235 H   0  0  0  0  0  0  0  0  0  0  0  0
   -1.8601   -0.1222   -3.8127 H   0  0  0  0  0  0  0  0  0  0  0  0
   -1.1814   -1.5085   -2.9389 H   0  0  0  0  0  0  0  0  0  0  0  0
   -0.2056   -0.6734   -4.1610 H   0  0  0  0  0  0  0  0  0  0  0  0
   -1.1400    2.2379   -3.2088 H   0  0  0  0  0  0  0  0  0  0  0  0
    0.5114    1.7960   -3.6906 H   0  0  0  0  0  0  0  0  0  0  0  0
    0.2071    2.4903   -2.0836 H   0  0  0  0  0  0  0  0  0  0  0  0
    2.3151   -0.1772    2.7467 H   0  0  0  0  0  0  0  0  0  0  0  0
  1  4  1  0  0  0  0
  1  7  1  0  0  0  0
  1 13  1  0  0  0  0
  1 14  1  0  0  0  0
  2  5  1  0  0  0  0
  2  7  1  0  0  0  0
  2 15  1  0  0  0  0
  2 16  1  0  0  0  0
  3  7  1  0  0  0  0
  3  8  1  0  0  0  0
  3 17  1  0  0  0  0
  3 18  1  0  0  0  0
  4 11  1  0  0  0  0
  4 19  1  0  0  0  0
  4 20  1  0  0  0  0
  5 11  1  0  0  0  0
  5 21  1  0  0  0  0
  5 22  1  0  0  0  0
  6  7  1  0  0  0  0
  6 12  1  0  0  0  0
  6 23  1  0  0  0  0
  6 24  1  0  0  0  0
  8  9  1  0  0  0  0
  8 10  1  0  0  0  0
  8 12  1  0  0  0  0
  9 25  1  0  0  0  0
  9 26  1  0  0  0  0
  9 27  1  0  0  0  0
 10 28  1  0  0  0  0
 10 29  1  0  0  0  0
 10 30  1  0  0  0  0
 11 31  1  0  0  0  0
M  END
$$$$
