37
0 1 C16H13N3O4S
C                     6.113040400075    -7.327794775894    -0.077605653023
C                     6.471064550180    -7.183494849928     1.268577460884
C                     4.882175017697    -6.862190105383    -0.556686620261
C                     2.977571418523    -7.410927176872    -4.648299683041
C                     3.420031883421    -7.983628953823    -5.848408957844
C                     5.607468255450    -6.540486969775     2.165354505542
C                     2.942758368572    -9.588120064547    -3.535001151758
C                     3.997617394515    -6.253829288166     0.342638836008
C                     2.731377812089    -8.185490665348    -3.498476716248
C                     3.614370965182    -9.355920485947    -5.856897949865
C                     3.382915171610   -10.133732233479    -4.722917802620
C                     4.394116950671    -6.090631327443     1.671892946516
C                     2.657116156863    -5.609781802340     0.149607605140
C                     2.274324042040    -7.536581956578    -2.246691381785
C                     3.946582147290   -11.503291798294    -6.406204976960
C                     1.805668834246    -8.405437410224    -1.106144505196
N                     2.137860309796    -4.976472565685     1.172771731387
N                     2.331942126763    -6.239603613007    -2.220848642278
N                     1.953018530188    -5.632201278596    -1.012210438450
O                     2.458676734902    -5.950195681015     3.536657688098
O                     3.680257565532    -3.827777815289     2.912843647471
O                     4.066313169131   -10.147936974388    -6.881354554406
O                     3.691545751536   -11.449673785273    -4.992783458351
S                     3.130868092627    -5.128708646948     2.528188844742
H                     6.804241485990    -7.801646313393    -0.768897582790
H                     7.431453362903    -7.554277086867     1.615813470992
H                     4.646608983020    -6.959227531881    -1.607992120691
H                     2.813715727570    -6.341217887908    -4.592313300372
H                     3.604060285905    -7.382060761117    -6.732665087602
H                     5.881019027192    -6.386673686419     3.204918992445
H                     2.786025111826   -10.221748442685    -2.670149712185
H                     3.102322490556   -11.988058234900    -6.912421585342
H                     4.884942995517   -12.032055181801    -6.586260089400
H                     2.655441517370    -8.872566338648    -0.596804428328
H                     1.251073517030    -7.826010817529    -0.368933492853
H                     1.162161040382    -9.204370768693    -1.482058612764
H                     1.271991680497    -4.887172165100    -1.118780516138
