
  -OEChem-05262117483D

 21 21  0     0  0  0  0  0  0999 V2000
    1.7840   -1.7349    0.0383 C   0  0  0  0  0  0  0  0  0  0  0  0
    0.6144   -1.4010    0.7227 C   0  0  0  0  0  0  0  0  0  0  0  0
    3.0411   -1.4498    0.5858 C   0  0  0  0  0  0  0  0  0  0  0  0
    1.9323   -0.4836    2.5332 C   0  0  0  0  0  0  0  0  0  0  0  0
    0.6798   -0.7747    1.9781 C   0  0  0  0  0  0  0  0  0  0  0  0
    3.0828   -0.8273    1.8269 C   0  0  0  0  0  0  0  0  0  0  0  0
   -1.3300    0.7042    1.9569 C   0  0  0  0  0  0  0  0  0  0  0  0
   -0.5984   -0.3922    2.7009 C   0  0  0  0  0  0  0  0  0  0  0  0
   -2.3960    0.5637    1.2479 N   0  0  0  0  0  0  0  0  0  0  0  0
   -0.7989    1.9892    2.0952 N   0  0  0  0  0  0  0  0  0  0  0  0
   -2.8683   -0.7851    1.2698 O   0  0  0  0  0  0  0  0  0  0  0  0
    4.2916   -0.5403    2.3792 F   0  0  0  0  0  0  0  0  0  0  0  0
    1.7236   -2.2223   -0.9311 H   0  0  0  0  0  0  0  0  0  0  0  0
   -0.3583   -1.6194    0.2903 H   0  0  0  0  0  0  0  0  0  0  0  0
    3.9643   -1.7010    0.0729 H   0  0  0  0  0  0  0  0  0  0  0  0
    2.0261   -0.0061    3.5049 H   0  0  0  0  0  0  0  0  0  0  0  0
   -1.2583   -1.2560    2.7868 H   0  0  0  0  0  0  0  0  0  0  0  0
   -0.3718   -0.0303    3.7079 H   0  0  0  0  0  0  0  0  0  0  0  0
    0.2167    2.0027    2.0591 H   0  0  0  0  0  0  0  0  0  0  0  0
   -1.2007    2.6459    1.4317 H   0  0  0  0  0  0  0  0  0  0  0  0
   -3.6971   -0.7088    0.7716 H   0  0  0  0  0  0  0  0  0  0  0  0
  1  2  1  0  0  0  0
  1  3  2  0  0  0  0
  1 13  1  0  0  0  0
  2  5  2  0  0  0  0
  2 14  1  0  0  0  0
  3  6  1  0  0  0  0
  3 15  1  0  0  0  0
  4  5  1  0  0  0  0
  4  6  2  0  0  0  0
  4 16  1  0  0  0  0
  5  8  1  0  0  0  0
  6 12  1  0  0  0  0
  7  8  1  0  0  0  0
  7  9  2  0  0  0  0
  7 10  1  0  0  0  0
  8 17  1  0  0  0  0
  8 18  1  0  0  0  0
  9 11  1  0  0  0  0
 10 19  1  0  0  0  0
 10 20  1  0  0  0  0
 11 21  1  0  0  0  0
M  END
$$$$
