
  -OEChem-05262117483D

 29 30  0     0  0  0  0  0  0999 V2000
    0.3996    0.2251    0.7349 C   0  0  0  0  0  0  0  0  0  0  0  0
    0.6741    0.9599    1.8945 C   0  0  0  0  0  0  0  0  0  0  0  0
    0.6487   -1.1501    0.7079 C   0  0  0  0  0  0  0  0  0  0  0  0
    1.2044    0.3228    3.0167 C   0  0  0  0  0  0  0  0  0  0  0  0
    1.1487   -1.7977    1.8409 C   0  0  0  0  0  0  0  0  0  0  0  0
   -1.8370   -1.6746    3.0850 C   0  0  0  0  0  0  0  0  0  0  0  0
   -2.4897   -0.4768    2.8045 C   0  0  0  0  0  0  0  0  0  0  0  0
   -1.3506   -0.8718    5.3303 C   0  0  0  0  0  0  0  0  0  0  0  0
    1.4269   -1.0642    3.0050 C   0  0  0  0  0  0  0  0  0  0  0  0
   -1.2588   -1.8468    4.3396 C   0  0  0  0  0  0  0  0  0  0  0  0
   -2.5555    0.5332    3.7682 C   0  0  0  0  0  0  0  0  0  0  0  0
   -1.9929    0.3320    5.0405 C   0  0  0  0  0  0  0  0  0  0  0  0
    1.9561   -1.7357    4.2135 C   0  0  0  0  0  0  0  0  0  0  0  0
    1.3653   -2.7033    4.9255 C   0  0  0  0  0  0  0  0  0  0  0  0
   -0.6983   -3.8613    5.9904 O   0  0  0  0  0  0  0  0  0  0  0  0
   -0.3620   -4.1803    3.4728 O   0  0  0  0  0  0  0  0  0  0  0  0
   -0.3003   -3.3358    4.6757 S   0  0  0  0  0  0  0  0  0  0  0  0
   -3.3248    2.0387    3.3494 Cl  0  0  0  0  0  0  0  0  0  0  0  0
   -2.0584    1.5671    6.2704 Cl  0  0  0  0  0  0  0  0  0  0  0  0
   -0.0040    0.7245   -0.1419 H   0  0  0  0  0  0  0  0  0  0  0  0
    0.4738    2.0274    1.9246 H   0  0  0  0  0  0  0  0  0  0  0  0
    0.4418   -1.7251   -0.1907 H   0  0  0  0  0  0  0  0  0  0  0  0
    1.4153    0.8950    3.9168 H   0  0  0  0  0  0  0  0  0  0  0  0
    1.3106   -2.8706    1.8328 H   0  0  0  0  0  0  0  0  0  0  0  0
   -1.7490   -2.4539    2.3370 H   0  0  0  0  0  0  0  0  0  0  0  0
   -2.9290   -0.3061    1.8275 H   0  0  0  0  0  0  0  0  0  0  0  0
   -0.9129   -1.0294    6.3106 H   0  0  0  0  0  0  0  0  0  0  0  0
    2.9266   -1.3940    4.5761 H   0  0  0  0  0  0  0  0  0  0  0  0
    1.8199   -3.1598    5.8006 H   0  0  0  0  0  0  0  0  0  0  0  0
  1  2  1  0  0  0  0
  1  3  2  0  0  0  0
  1 20  1  0  0  0  0
  2  4  2  0  0  0  0
  2 21  1  0  0  0  0
  3  5  1  0  0  0  0
  3 22  1  0  0  0  0
  4  9  1  0  0  0  0
  4 23  1  0  0  0  0
  5  9  2  0  0  0  0
  5 24  1  0  0  0  0
  6  7  2  0  0  0  0
  6 10  1  0  0  0  0
  6 25  1  0  0  0  0
  7 11  1  0  0  0  0
  7 26  1  0  0  0  0
  8 10  2  0  0  0  0
  8 12  1  0  0  0  0
  8 27  1  0  0  0  0
  9 13  1  0  0  0  0
 10 17  1  0  0  0  0
 11 12  2  0  0  0  0
 11 18  1  0  0  0  0
 12 19  1  0  0  0  0
 13 14  2  0  0  0  0
 13 28  1  0  0  0  0
 14 17  1  0  0  0  0
 14 29  1  0  0  0  0
 15 17  2  0  0  0  0
 16 17  2  0  0  0  0
M  END
$$$$
