
  -OEChem-05262117483D

 43 46  0     0  0  0  0  0  0999 V2000
   -0.7321   -3.5601    5.7998 C   0  0  0  0  0  0  0  0  0  0  0  0
   -0.2026   -3.8230    7.0460 C   0  0  0  0  0  0  0  0  0  0  0  0
    1.7367   -4.9125    6.0325 C   0  0  0  0  0  0  0  0  0  0  0  0
    1.2582   -4.7337    2.3314 C   0  0  0  0  0  0  0  0  0  0  0  0
    1.1944   -4.6451    4.7498 C   0  0  0  0  0  0  0  0  0  0  0  0
   -0.0537   -3.9616    4.6173 C   0  0  0  0  0  0  0  0  0  0  0  0
    1.8466   -5.0290    3.5416 C   0  0  0  0  0  0  0  0  0  0  0  0
    1.0318   -4.4995    7.1360 C   0  0  0  0  0  0  0  0  0  0  0  0
    0.0119   -4.0515    2.3174 C   0  0  0  0  0  0  0  0  0  0  0  0
    1.4191    0.3143   -1.8539 C   0  0  0  0  0  0  0  0  0  0  0  0
    0.0760   -0.8354   -3.4767 C   0  0  0  0  0  0  0  0  0  0  0  0
   -0.2171   -3.1182   -1.3971 C   0  0  0  0  0  0  0  0  0  0  0  0
    0.9751   -2.1075    0.0226 C   0  0  0  0  0  0  0  0  0  0  0  0
    0.9048    1.6398   -2.4069 C   0  0  0  0  0  0  0  0  0  0  0  0
   -0.4085    0.5155   -3.9939 C   0  0  0  0  0  0  0  0  0  0  0  0
    0.8509   -2.0039   -1.5162 C   0  0  0  0  0  0  0  0  0  0  0  0
   -0.6557   -3.7540    0.9892 C   0  0  0  0  0  0  0  0  0  0  0  0
   -0.6249   -3.6694    3.4094 N   0  0  0  0  0  0  0  0  0  0  0  0
    0.4117   -0.7318   -2.0536 N   0  0  0  0  0  0  0  0  0  0  0  0
    0.3103   -3.4335   -0.0481 N   0  0  0  0  0  0  0  0  0  0  0  0
    0.5703    1.5329   -3.7897 O   0  0  0  0  0  0  0  0  0  0  0  0
    3.0407   -5.6793    3.6648 O   0  0  0  0  0  0  0  0  0  0  0  0
    1.5300   -4.7442    8.3766 F   0  0  0  0  0  0  0  0  0  0  0  0
   -1.6793   -3.0416    5.6881 H   0  0  0  0  0  0  0  0  0  0  0  0
   -0.7098   -3.5236    7.9583 H   0  0  0  0  0  0  0  0  0  0  0  0
    2.6832   -5.4304    6.1402 H   0  0  0  0  0  0  0  0  0  0  0  0
    1.7210   -4.9944    1.3827 H   0  0  0  0  0  0  0  0  0  0  0  0
    2.3737    0.0573   -2.3515 H   0  0  0  0  0  0  0  0  0  0  0  0
    1.6175    0.4208   -0.7817 H   0  0  0  0  0  0  0  0  0  0  0  0
   -0.7186   -1.5792   -3.6045 H   0  0  0  0  0  0  0  0  0  0  0  0
    0.9469   -1.1642   -4.0752 H   0  0  0  0  0  0  0  0  0  0  0  0
   -1.2274   -2.6811   -1.3745 H   0  0  0  0  0  0  0  0  0  0  0  0
   -0.1882   -3.9526   -2.1059 H   0  0  0  0  0  0  0  0  0  0  0  0
    1.9743   -2.1193    0.4696 H   0  0  0  0  0  0  0  0  0  0  0  0
    0.3557   -1.3448    0.5190 H   0  0  0  0  0  0  0  0  0  0  0  0
    0.0221    1.9595   -1.8322 H   0  0  0  0  0  0  0  0  0  0  0  0
    1.6739    2.4130   -2.3340 H   0  0  0  0  0  0  0  0  0  0  0  0
   -0.5908    0.4739   -5.0709 H   0  0  0  0  0  0  0  0  0  0  0  0
   -1.3449    0.7895   -3.4840 H   0  0  0  0  0  0  0  0  0  0  0  0
    1.7622   -2.3768   -2.0160 H   0  0  0  0  0  0  0  0  0  0  0  0
   -1.2116   -4.6450    0.6665 H   0  0  0  0  0  0  0  0  0  0  0  0
   -1.3932   -2.9510    1.1528 H   0  0  0  0  0  0  0  0  0  0  0  0
    3.3794   -5.8896    2.7790 H   0  0  0  0  0  0  0  0  0  0  0  0
  1  2  1  0  0  0  0
  1  6  2  0  0  0  0
  1 24  1  0  0  0  0
  2  8  2  0  0  0  0
  2 25  1  0  0  0  0
  3  5  2  0  0  0  0
  3  8  1  0  0  0  0
  3 26  1  0  0  0  0
  4  7  2  0  0  0  0
  4  9  1  0  0  0  0
  4 27  1  0  0  0  0
  5  6  1  0  0  0  0
  5  7  1  0  0  0  0
  6 18  1  0  0  0  0
  7 22  1  0  0  0  0
  8 23  1  0  0  0  0
  9 17  1  0  0  0  0
  9 18  2  0  0  0  0
 10 14  1  0  0  0  0
 10 19  1  0  0  0  0
 10 28  1  0  0  0  0
 10 29  1  0  0  0  0
 11 15  1  0  0  0  0
 11 19  1  0  0  0  0
 11 30  1  0  0  0  0
 11 31  1  0  0  0  0
 12 16  1  0  0  0  0
 12 20  1  0  0  0  0
 12 32  1  0  0  0  0
 12 33  1  0  0  0  0
 13 16  1  0  0  0  0
 13 20  1  0  0  0  0
 13 34  1  0  0  0  0
 13 35  1  0  0  0  0
 14 21  1  0  0  0  0
 14 36  1  0  0  0  0
 14 37  1  0  0  0  0
 15 21  1  0  0  0  0
 15 38  1  0  0  0  0
 15 39  1  0  0  0  0
 16 19  1  0  0  0  0
 16 40  1  0  0  0  0
 17 20  1  0  0  0  0
 17 41  1  0  0  0  0
 17 42  1  0  0  0  0
 22 43  1  0  0  0  0
M  END
$$$$
