21
0 1 C8FH9N2O
C                     0.604804809863    -1.938652681278     0.067310018254
C                    -0.227064051356    -1.088324393833     0.798003710530
C                     1.994983076760    -1.774724937555     0.087409152985
C                     1.710120306040     0.120198994415     1.597200715669
C                     0.321359265673    -0.050803425272     1.568505324697
C                     2.514602976581    -0.742284901025     0.858030715751
C                    -1.276957410649     0.136444861785     3.500374626190
C                    -0.584818633299     0.866519993527     2.369728073117
N                    -2.477367342776    -0.332444480466     3.477379320460
N                    -0.506080937929    -0.117175852637     4.635065892354
O                    -3.084457176877    -0.151975789577     2.195561761096
F                     3.862971200777    -0.562111554521     0.894879521015
H                     0.171703754120    -2.739226568477    -0.526475226541
H                    -1.304390766891    -1.223481920926     0.783449479824
H                     2.661345759181    -2.422896391344    -0.473281624227
H                     2.174690339852     0.909082732602     2.182342157650
H                     0.003029454863     1.688900686192     2.791992309850
H                    -1.350448462145     1.299506408319     1.723499652211
H                     0.072569854516     0.662090020953     4.930659228592
H                    -1.048232340821    -0.505254622422     5.401696390014
H                    -3.980776054613    -0.486244005214     2.356177098902
