
  -OEChem-05262117483D

 34 36  0     0  0  0  0  0  0999 V2000
   -0.7322   -2.2133   -0.0546 C   0  0  0  0  0  0  0  0  0  0  0  0
    0.1320   -1.1352   -0.3703 C   0  0  0  0  0  0  0  0  0  0  0  0
    3.0843   -5.2291    0.1711 C   0  0  0  0  0  0  0  0  0  0  0  0
   -0.2064   -3.4690    0.1516 C   0  0  0  0  0  0  0  0  0  0  0  0
    1.4934   -1.3327   -0.4730 C   0  0  0  0  0  0  0  0  0  0  0  0
    1.7259   -5.0034    0.2677 C   0  0  0  0  0  0  0  0  0  0  0  0
    3.9589   -4.1709   -0.1429 C   0  0  0  0  0  0  0  0  0  0  0  0
    1.1937   -3.7054    0.0529 C   0  0  0  0  0  0  0  0  0  0  0  0
    2.0758   -2.6172   -0.2675 C   0  0  0  0  0  0  0  0  0  0  0  0
    3.4877   -2.8798   -0.3626 C   0  0  0  0  0  0  0  0  0  0  0  0
   10.4927   -1.1190   -1.4427 C   0  0  0  0  0  0  0  0  0  0  0  0
    9.7649   -2.2932   -1.1180 C   0  0  0  0  0  0  0  0  0  0  0  0
    7.8675   -1.1100   -1.1833 C   0  0  0  0  0  0  0  0  0  0  0  0
    4.4369   -1.8109   -0.6877 C   0  0  0  0  0  0  0  0  0  0  0  0
   11.9862   -1.1120   -1.5931 C   0  0  0  0  0  0  0  0  0  0  0  0
    9.8164    0.0142   -1.6184 N   0  0  0  0  0  0  0  0  0  0  0  0
    8.4540   -2.3051   -0.9850 N   0  0  0  0  0  0  0  0  0  0  0  0
    8.4895    0.0418   -1.4922 N   0  0  0  0  0  0  0  0  0  0  0  0
    5.7037   -2.0427   -0.7660 N   0  0  0  0  0  0  0  0  0  0  0  0
    6.5021   -0.9965   -1.0725 N   0  0  0  0  0  0  0  0  0  0  0  0
   10.4395   -3.4471   -0.9372 O   0  0  0  0  0  0  0  0  0  0  0  0
   -1.8029   -2.0448    0.0233 H   0  0  0  0  0  0  0  0  0  0  0  0
   -0.2823   -0.1435   -0.5327 H   0  0  0  0  0  0  0  0  0  0  0  0
    3.4868   -6.2250    0.3363 H   0  0  0  0  0  0  0  0  0  0  0  0
   -0.8579   -4.3052    0.3948 H   0  0  0  0  0  0  0  0  0  0  0  0
    2.1173   -0.4797   -0.7155 H   0  0  0  0  0  0  0  0  0  0  0  0
    1.0458   -5.8169    0.5095 H   0  0  0  0  0  0  0  0  0  0  0  0
    5.0265   -4.3504   -0.2191 H   0  0  0  0  0  0  0  0  0  0  0  0
    4.0521   -0.8021   -0.8660 H   0  0  0  0  0  0  0  0  0  0  0  0
   12.3065   -1.8032   -2.3800 H   0  0  0  0  0  0  0  0  0  0  0  0
   12.3158   -0.1026   -1.8460 H   0  0  0  0  0  0  0  0  0  0  0  0
   12.4774   -1.4300   -0.6672 H   0  0  0  0  0  0  0  0  0  0  0  0
    6.1264   -0.0613   -1.2331 H   0  0  0  0  0  0  0  0  0  0  0  0
    9.7725   -4.1283   -0.7244 H   0  0  0  0  0  0  0  0  0  0  0  0
  1  2  1  0  0  0  0
  1  4  2  0  0  0  0
  1 22  1  0  0  0  0
  2  5  2  0  0  0  0
  2 23  1  0  0  0  0
  3  6  1  0  0  0  0
  3  7  2  0  0  0  0
  3 24  1  0  0  0  0
  4  8  1  0  0  0  0
  4 25  1  0  0  0  0
  5  9  1  0  0  0  0
  5 26  1  0  0  0  0
  6  8  2  0  0  0  0
  6 27  1  0  0  0  0
  7 10  1  0  0  0  0
  7 28  1  0  0  0  0
  8  9  1  0  0  0  0
  9 10  2  0  0  0  0
 10 14  1  0  0  0  0
 11 12  1  0  0  0  0
 11 15  1  0  0  0  0
 11 16  2  0  0  0  0
 12 17  2  0  0  0  0
 12 21  1  0  0  0  0
 13 17  1  0  0  0  0
 13 18  2  0  0  0  0
 13 20  1  0  0  0  0
 14 19  2  0  0  0  0
 14 29  1  0  0  0  0
 15 30  1  0  0  0  0
 15 31  1  0  0  0  0
 15 32  1  0  0  0  0
 16 18  1  0  0  0  0
 19 20  1  0  0  0  0
 20 33  1  0  0  0  0
 21 34  1  0  0  0  0
M  END
$$$$
