
  -OEChem-05262117483D

 22 23  0     1  0  0  0  0  0999 V2000
   -0.4831    3.4418    1.9882 C   0  0  0  0  0  0  0  0  0  0  0  0
   -0.5976    2.3744    1.0894 C   0  0  0  0  0  0  0  0  0  0  0  0
   -0.2756    3.1909    3.3436 C   0  0  0  0  0  0  0  0  0  0  0  0
   -0.5096    1.0465    1.5117 C   0  0  0  0  0  0  0  0  0  0  0  0
   -0.2871    0.7944    2.8809 C   0  0  0  0  0  0  0  0  0  0  0  0
   -0.1799    1.8678    3.7747 C   0  0  0  0  0  0  0  0  0  0  0  0
    0.7845   -0.6587    0.0858 C   0  0  0  0  0  0  0  0  0  0  0  0
    0.4568    0.0465   -1.2540 C   0  0  0  0  0  0  0  0  0  0  0  0
   -0.6070   -0.1456    0.5802 C   0  0  2  0  0  0  0  0  0  0  0  0
   -0.9689    0.1087   -0.8356 N   0  0  0  0  0  0  0  0  0  0  0  0
   -0.1782   -0.5101    3.2730 O   0  0  0  0  0  0  0  0  0  0  0  0
    0.0870    1.5165    5.4849 Cl  0  0  0  0  0  0  0  0  0  0  0  0
   -0.5563    4.4660    1.6346 H   0  0  0  0  0  0  0  0  0  0  0  0
   -0.7561    2.5890    0.0363 H   0  0  0  0  0  0  0  0  0  0  0  0
   -0.1864    4.0001    4.0613 H   0  0  0  0  0  0  0  0  0  0  0  0
    0.8177   -1.7465    0.0016 H   0  0  0  0  0  0  0  0  0  0  0  0
    1.6544   -0.3032    0.6397 H   0  0  0  0  0  0  0  0  0  0  0  0
    0.9499    1.0249   -1.3418 H   0  0  0  0  0  0  0  0  0  0  0  0
    0.6255   -0.5219   -2.1747 H   0  0  0  0  0  0  0  0  0  0  0  0
   -1.2365   -0.9079    1.0486 H   0  0  0  0  0  0  0  0  0  0  0  0
   -1.4628    0.9769   -1.0293 H   0  0  0  0  0  0  0  0  0  0  0  0
   -0.0453   -0.5387    4.2374 H   0  0  0  0  0  0  0  0  0  0  0  0
  1  2  1  0  0  0  0
  1  3  2  0  0  0  0
  1 13  1  0  0  0  0
  2  4  2  0  0  0  0
  2 14  1  0  0  0  0
  3  6  1  0  0  0  0
  3 15  1  0  0  0  0
  4  5  1  0  0  0  0
  4  9  1  0  0  0  0
  5  6  2  0  0  0  0
  5 11  1  0  0  0  0
  6 12  1  0  0  0  0
  7  8  1  0  0  0  0
  7  9  1  0  0  0  0
  7 16  1  0  0  0  0
  7 17  1  0  0  0  0
  8 10  1  0  0  0  0
  8 18  1  0  0  0  0
  8 19  1  0  0  0  0
  9 10  1  0  0  0  0
  9 20  1  0  0  0  0
 10 21  1  0  0  0  0
 11 22  1  0  0  0  0
M  END
$$$$
