
  -OEChem-05262117483D

 29 30  0     0  0  0  0  0  0999 V2000
    2.0134   -0.5964   -0.2610 C   0  0  0  0  0  0  0  0  0  0  0  0
    2.1664    0.5043    0.5892 C   0  0  0  0  0  0  0  0  0  0  0  0
    1.6948   -1.8496    0.2743 C   0  0  0  0  0  0  0  0  0  0  0  0
    1.9944    0.3480    1.9641 C   0  0  0  0  0  0  0  0  0  0  0  0
    1.5092   -2.0059    1.6472 C   0  0  0  0  0  0  0  0  0  0  0  0
   -2.6579   -2.2581    5.6404 C   0  0  0  0  0  0  0  0  0  0  0  0
   -3.4996   -2.3496    6.7464 C   0  0  0  0  0  0  0  0  0  0  0  0
   -1.3232   -4.0982    6.5172 C   0  0  0  0  0  0  0  0  0  0  0  0
    1.6384   -0.9008    2.5096 C   0  0  0  0  0  0  0  0  0  0  0  0
   -1.5739   -3.1320    5.5464 C   0  0  0  0  0  0  0  0  0  0  0  0
   -3.2587   -3.3046    7.7417 C   0  0  0  0  0  0  0  0  0  0  0  0
   -2.1692   -4.1844    7.6261 C   0  0  0  0  0  0  0  0  0  0  0  0
    1.4647   -0.9899    3.9638 C   0  0  0  0  0  0  0  0  0  0  0  0
    0.6989   -1.8009    4.7145 C   0  0  0  0  0  0  0  0  0  0  0  0
    0.2117   -4.3157    3.9859 O   0  0  0  0  0  0  0  0  0  0  0  0
   -1.2507   -2.4662    3.0040 O   0  0  0  0  0  0  0  0  0  0  0  0
   -0.4739   -3.0184    4.1228 S   0  0  0  0  0  0  0  0  0  0  0  0
   -4.3368   -3.3780    9.1068 Cl  0  0  0  0  0  0  0  0  0  0  0  0
   -1.8466   -5.3968    8.8354 Cl  0  0  0  0  0  0  0  0  0  0  0  0
    2.1546   -0.4813   -1.3325 H   0  0  0  0  0  0  0  0  0  0  0  0
    2.4260    1.4780    0.1824 H   0  0  0  0  0  0  0  0  0  0  0  0
    1.5954   -2.7113   -0.3800 H   0  0  0  0  0  0  0  0  0  0  0  0
    2.1199    1.2033    2.6245 H   0  0  0  0  0  0  0  0  0  0  0  0
    1.2942   -2.9918    2.0436 H   0  0  0  0  0  0  0  0  0  0  0  0
   -2.8454   -1.5350    4.8532 H   0  0  0  0  0  0  0  0  0  0  0  0
   -4.3535   -1.6875    6.8465 H   0  0  0  0  0  0  0  0  0  0  0  0
   -0.4926   -4.7874    6.4039 H   0  0  0  0  0  0  0  0  0  0  0  0
    2.0537   -0.2724    4.5364 H   0  0  0  0  0  0  0  0  0  0  0  0
    0.7319   -1.7610    5.7993 H   0  0  0  0  0  0  0  0  0  0  0  0
  1  2  1  0  0  0  0
  1  3  2  0  0  0  0
  1 20  1  0  0  0  0
  2  4  2  0  0  0  0
  2 21  1  0  0  0  0
  3  5  1  0  0  0  0
  3 22  1  0  0  0  0
  4  9  1  0  0  0  0
  4 23  1  0  0  0  0
  5  9  2  0  0  0  0
  5 24  1  0  0  0  0
  6  7  2  0  0  0  0
  6 10  1  0  0  0  0
  6 25  1  0  0  0  0
  7 11  1  0  0  0  0
  7 26  1  0  0  0  0
  8 10  2  0  0  0  0
  8 12  1  0  0  0  0
  8 27  1  0  0  0  0
  9 13  1  0  0  0  0
 10 17  1  0  0  0  0
 11 12  2  0  0  0  0
 11 18  1  0  0  0  0
 12 19  1  0  0  0  0
 13 14  2  0  0  0  0
 13 28  1  0  0  0  0
 14 17  1  0  0  0  0
 14 29  1  0  0  0  0
 15 17  2  0  0  0  0
 16 17  2  0  0  0  0
M  END
$$$$
