
  -OEChem-05262117483D

 17 17  0     1  0  0  0  0  0999 V2000
    1.4773   -4.1200    0.9626 C   0  0  0  0  0  0  0  0  0  0  0  0
   -0.1566   -0.8402    0.5546 C   0  0  0  0  0  0  0  0  0  0  0  0
   -1.3193    0.7803    1.5983 C   0  0  0  0  0  0  0  0  0  0  0  0
   -0.7505   -2.9764   -0.6851 C   0  0  0  0  0  0  0  0  0  0  0  0
    0.3120   -2.1511    0.0445 C   0  0  2  0  0  0  0  0  0  0  0  0
    1.9790   -5.1531    0.7237 N   0  0  0  0  0  0  0  0  0  0  0  0
   -0.1783    1.3015    1.0457 N   0  5  0  0  0  0  0  0  0  0  0  0
    0.5142    0.2861    0.4214 N   0  0  0  0  0  0  0  0  0  0  0  0
   -1.3110   -0.6068    1.2728 N   0  0  0  0  0  0  0  0  0  0  0  0
    0.8350   -2.9714    1.2160 N   0  0  0  0  0  0  0  0  0  0  0  0
   -2.2303    1.3243    2.2607 O   0  0  0  0  0  0  0  0  0  0  0  0
   -1.6026   -3.1815   -0.0294 H   0  0  0  0  0  0  0  0  0  0  0  0
   -1.1078   -2.4169   -1.5541 H   0  0  0  0  0  0  0  0  0  0  0  0
   -0.3455   -3.9350   -1.0271 H   0  0  0  0  0  0  0  0  0  0  0  0
    1.1490   -1.9347   -0.6285 H   0  0  0  0  0  0  0  0  0  0  0  0
   -2.0072   -1.2671    1.5853 H   0  0  0  0  0  0  0  0  0  0  0  0
    1.2987   -2.3791    1.8999 H   0  0  0  0  0  0  0  0  0  0  0  0
  1  6  3  0  0  0  0
  1 10  1  0  0  0  0
  2  5  1  0  0  0  0
  2  8  2  0  0  0  0
  2  9  1  0  0  0  0
  3  7  1  0  0  0  0
  3  9  1  0  0  0  0
  3 11  2  0  0  0  0
  4  5  1  0  0  0  0
  4 12  1  0  0  0  0
  4 13  1  0  0  0  0
  4 14  1  0  0  0  0
  5 10  1  0  0  0  0
  5 15  1  0  0  0  0
  7  8  1  0  0  0  0
  9 16  1  0  0  0  0
 10 17  1  0  0  0  0
M  CHG  1   7  -1
M  END
$$$$
