25
0 1 C7H10N2O4S2
C                     0.710280062236     0.489191950911     3.404039581895
C                     0.701257045742    -0.051258380088     2.166387126075
C                     2.886873926601    -0.608497159725     2.790854414802
C                    -0.102604047956     0.415681790825    -0.178890388107
C                    -0.892097879840     1.588873127990    -2.069609530880
C                     6.323550999807    -1.315047887904     1.342183820095
C                    -0.455113684684    -0.091593494776     1.212411787684
N                     4.115086723541    -1.047850343668     2.786245265421
N                     1.906487882802    -0.670877929305     1.836686757537
O                     0.947199848638     0.182379025911    -0.746212274362
O                     4.752704912636    -3.375514866449     1.912220115560
O                     3.913826072658    -1.647917556966     0.262447083373
O                    -1.115229292546     1.120201129403    -0.717122498199
S                     2.252604561398     0.237625751134     4.210638278641
S                     4.657897475946    -1.969738942514     1.504748667911
H                    -0.103810953004     0.995767653656     3.903092739543
H                    -1.803738337572     2.117733631391    -2.344605252746
H                    -0.715771291817     0.742719905859    -2.736780759036
H                    -0.030120803874     2.258407127099    -2.097134995707
H                     6.808550025673    -1.894378969404     0.554687134754
H                     6.259588842343    -0.261658196571     1.069450616560
H                     6.834984178922    -1.449254853973     2.295250582382
H                    -1.292353482920     0.475783092527     1.619079637404
H                    -0.792431516835    -1.129099238909     1.084615205552
H                     2.156146769158    -0.949335517900     0.882040247814
