
  -OEChem-05262117483D

 17 17  0     1  0  0  0  0  0999 V2000
    0.5425   -2.8921   -1.4595 C   0  0  0  0  0  0  0  0  0  0  0  0
    1.7770   -2.5165   -2.2643 C   0  0  0  0  0  0  0  0  0  0  0  0
    0.4628   -1.7888   -2.4864 C   0  0  0  0  0  0  0  0  0  0  0  0
   -1.7723   -0.2187   -0.3181 C   0  0  0  0  0  0  0  0  0  0  0  0
   -1.2783    1.7569   -2.2690 N   0  5  0  0  0  0  0  0  0  0  0  0
    0.3571   -0.4387   -2.0023 N   0  0  0  0  0  0  0  0  0  0  0  0
   -2.1349   -0.7236   -2.8547 O   0  0  0  0  0  0  0  0  0  0  0  0
   -1.3580    0.2999   -2.0500 S   0  0  1  0  0  0  0  0  0  0  0  0
    0.0467   -3.8355   -1.6759 H   0  0  0  0  0  0  0  0  0  0  0  0
    0.5203   -2.5819   -0.4188 H   0  0  0  0  0  0  0  0  0  0  0  0
    2.5590   -1.9682   -1.7460 H   0  0  0  0  0  0  0  0  0  0  0  0
    2.1265   -3.2044   -3.0323 H   0  0  0  0  0  0  0  0  0  0  0  0
   -0.0857   -2.0400   -3.3952 H   0  0  0  0  0  0  0  0  0  0  0  0
   -1.6373   -1.2972   -0.2050 H   0  0  0  0  0  0  0  0  0  0  0  0
   -1.1262    0.3363    0.3650 H   0  0  0  0  0  0  0  0  0  0  0  0
   -2.8207    0.0500   -0.1603 H   0  0  0  0  0  0  0  0  0  0  0  0
    0.8462    0.2019   -2.6307 H   0  0  0  0  0  0  0  0  0  0  0  0
  1  2  1  0  0  0  0
  1  3  1  0  0  0  0
  1  9  1  0  0  0  0
  1 10  1  0  0  0  0
  2  3  1  0  0  0  0
  2 11  1  0  0  0  0
  2 12  1  0  0  0  0
  3  6  1  0  0  0  0
  3 13  1  0  0  0  0
  4  8  1  0  0  0  0
  4 14  1  0  0  0  0
  4 15  1  0  0  0  0
  4 16  1  0  0  0  0
  5  8  2  0  0  0  0
  6  8  1  0  0  0  0
  6 17  1  0  0  0  0
  7  8  2  0  0  0  0
M  CHG  1   5  -1
M  END
$$$$
