
  -OEChem-05262117483D

 25 25  0     0  0  0  0  0  0999 V2000
    4.3992    0.9055   -5.3700 C   0  0  0  0  0  0  0  0  0  0  0  0
    3.9704    0.0766   -4.3735 C   0  0  0  0  0  0  0  0  0  0  0  0
    5.7183   -1.1168   -5.0331 C   0  0  0  0  0  0  0  0  0  0  0  0
    1.9829   -1.1001   -3.5195 C   0  0  0  0  0  0  0  0  0  0  0  0
    1.0648   -2.7599   -4.9339 C   0  0  0  0  0  0  0  0  0  0  0  0
    5.6493   -4.0135   -3.2612 C   0  0  0  0  0  0  0  0  0  0  0  0
    2.7385    0.2248   -3.5220 C   0  0  0  0  0  0  0  0  0  0  0  0
    4.7421   -1.0534   -4.1768 N   0  0  0  0  0  0  0  0  0  0  0  0
    6.5920   -2.2041   -5.0759 N   0  0  0  0  0  0  0  0  0  0  0  0
    1.7879   -1.7870   -2.5366 O   0  0  0  0  0  0  0  0  0  0  0  0
    4.6186   -3.8383   -5.6999 O   0  0  0  0  0  0  0  0  0  0  0  0
    7.0264   -4.6453   -5.4773 O   0  0  0  0  0  0  0  0  0  0  0  0
    1.5940   -1.4258   -4.7682 O   0  0  0  0  0  0  0  0  0  0  0  0
    5.8055    0.2313   -6.1553 S   0  0  0  0  0  0  0  0  0  0  0  0
    5.9149   -3.8067   -5.0245 S   0  0  0  0  0  0  0  0  0  0  0  0
    3.9811    1.8480   -5.6974 H   0  0  0  0  0  0  0  0  0  0  0  0
    0.7376   -2.8140   -5.9717 H   0  0  0  0  0  0  0  0  0  0  0  0
    0.2295   -2.9296   -4.2515 H   0  0  0  0  0  0  0  0  0  0  0  0
    1.8565   -3.4895   -4.7492 H   0  0  0  0  0  0  0  0  0  0  0  0
    5.2277   -5.0124   -3.1341 H   0  0  0  0  0  0  0  0  0  0  0  0
    6.6143   -3.9264   -2.7625 H   0  0  0  0  0  0  0  0  0  0  0  0
    4.9512   -3.2406   -2.9397 H   0  0  0  0  0  0  0  0  0  0  0  0
    2.9971    0.4541   -2.4858 H   0  0  0  0  0  0  0  0  0  0  0  0
    2.0991    1.0190   -3.9158 H   0  0  0  0  0  0  0  0  0  0  0  0
    7.3337   -2.1792   -5.7728 H   0  0  0  0  0  0  0  0  0  0  0  0
  1  2  2  0  0  0  0
  1 14  1  0  0  0  0
  1 16  1  0  0  0  0
  2  7  1  0  0  0  0
  2  8  1  0  0  0  0
  3  8  2  0  0  0  0
  3  9  1  0  0  0  0
  3 14  1  0  0  0  0
  4  7  1  0  0  0  0
  4 10  2  0  0  0  0
  4 13  1  0  0  0  0
  5 13  1  0  0  0  0
  5 17  1  0  0  0  0
  5 18  1  0  0  0  0
  5 19  1  0  0  0  0
  6 15  1  0  0  0  0
  6 20  1  0  0  0  0
  6 21  1  0  0  0  0
  6 22  1  0  0  0  0
  7 23  1  0  0  0  0
  7 24  1  0  0  0  0
  9 15  1  0  0  0  0
  9 25  1  0  0  0  0
 11 15  2  0  0  0  0
 12 15  2  0  0  0  0
M  END
$$$$
