
  -OEChem-05262117483D

 43 43  0     0  0  0  0  0  0999 V2000
   -1.3876   -5.2546    3.5065 C   0  0  0  0  0  0  0  0  0  0  0  0
   -0.2930   -4.3837    3.3260 C   0  0  0  0  0  0  0  0  0  0  0  0
   -2.3829   -4.8338    2.6314 C   0  0  0  0  0  0  0  0  0  0  0  0
   -0.6305   -3.4477    2.3412 C   0  0  0  0  0  0  0  0  0  0  0  0
    0.1987   -2.3550    1.8311 C   0  0  0  0  0  0  0  0  0  0  0  0
   -2.7541   -3.0757    0.9284 C   0  0  0  0  0  0  0  0  0  0  0  0
   -1.0549    1.7651   -1.0176 C   0  0  0  0  0  0  0  0  0  0  0  0
   -1.7006   -0.5131   -1.6266 C   0  0  0  0  0  0  0  0  0  0  0  0
    2.1749    1.1865    1.4858 C   0  0  0  0  0  0  0  0  0  0  0  0
   -0.1603    1.2549    2.2321 C   0  0  0  0  0  0  0  0  0  0  0  0
    2.0571    0.3442   -1.8450 C   0  0  0  0  0  0  0  0  0  0  0  0
    2.3746   -1.8912   -0.8517 C   0  0  0  0  0  0  0  0  0  0  0  0
   -0.2962   -1.6959    0.7598 N   0  0  0  0  0  0  0  0  0  0  0  0
   -1.9341   -3.7496    1.9268 N   0  0  0  0  0  0  0  0  0  0  0  0
   -0.9453    0.3421   -0.7113 N   0  0  0  0  0  0  0  0  0  0  0  0
    0.7754    0.9124    1.1524 N   0  0  0  0  0  0  0  0  0  0  0  0
    1.5751   -0.6662   -0.9077 N   0  0  0  0  0  0  0  0  0  0  0  0
    0.3270   -0.3438    0.1444 P   0  0  0  0  0  0  0  0  0  0  0  0
    1.6854   -2.0182    2.5987 S   0  0  0  0  0  0  0  0  0  0  0  0
   -1.4574   -6.0907    4.1903 H   0  0  0  0  0  0  0  0  0  0  0  0
    0.6596   -4.3990    3.8360 H   0  0  0  0  0  0  0  0  0  0  0  0
   -3.3785   -5.2236    2.4625 H   0  0  0  0  0  0  0  0  0  0  0  0
   -2.7668   -1.9996    1.0987 H   0  0  0  0  0  0  0  0  0  0  0  0
   -2.3701   -3.2560   -0.0778 H   0  0  0  0  0  0  0  0  0  0  0  0
   -3.7694   -3.4729    1.0034 H   0  0  0  0  0  0  0  0  0  0  0  0
   -0.4116    2.3456   -0.3571 H   0  0  0  0  0  0  0  0  0  0  0  0
   -2.0919    2.0935   -0.8725 H   0  0  0  0  0  0  0  0  0  0  0  0
   -0.7780    1.9789   -2.0612 H   0  0  0  0  0  0  0  0  0  0  0  0
   -1.5868   -1.5565   -1.3386 H   0  0  0  0  0  0  0  0  0  0  0  0
   -1.3572   -0.3891   -2.6644 H   0  0  0  0  0  0  0  0  0  0  0  0
   -2.7656   -0.2550   -1.5817 H   0  0  0  0  0  0  0  0  0  0  0  0
    2.8366    0.7590    0.7338 H   0  0  0  0  0  0  0  0  0  0  0  0
    2.4402    0.7442    2.4511 H   0  0  0  0  0  0  0  0  0  0  0  0
    2.3285    2.2729    1.5157 H   0  0  0  0  0  0  0  0  0  0  0  0
   -1.1882    1.0667    1.9160 H   0  0  0  0  0  0  0  0  0  0  0  0
   -0.0630    2.3203    2.4711 H   0  0  0  0  0  0  0  0  0  0  0  0
    0.0484    0.6618    3.1310 H   0  0  0  0  0  0  0  0  0  0  0  0
    1.4452    1.2454   -1.7963 H   0  0  0  0  0  0  0  0  0  0  0  0
    2.0207   -0.0416   -2.8720 H   0  0  0  0  0  0  0  0  0  0  0  0
    3.0941    0.6306   -1.6225 H   0  0  0  0  0  0  0  0  0  0  0  0
    1.8645   -2.6487   -0.2609 H   0  0  0  0  0  0  0  0  0  0  0  0
    3.3566   -1.7101   -0.3977 H   0  0  0  0  0  0  0  0  0  0  0  0
    2.5129   -2.2695   -1.8721 H   0  0  0  0  0  0  0  0  0  0  0  0
  1  2  1  0  0  0  0
  1  3  2  0  0  0  0
  1 20  1  0  0  0  0
  2  4  2  0  0  0  0
  2 21  1  0  0  0  0
  3 14  1  0  0  0  0
  3 22  1  0  0  0  0
  4  5  1  0  0  0  0
  4 14  1  0  0  0  0
  5 13  1  0  0  0  0
  5 19  2  0  0  0  0
  6 14  1  0  0  0  0
  6 23  1  0  0  0  0
  6 24  1  0  0  0  0
  6 25  1  0  0  0  0
  7 15  1  0  0  0  0
  7 26  1  0  0  0  0
  7 27  1  0  0  0  0
  7 28  1  0  0  0  0
  8 15  1  0  0  0  0
  8 29  1  0  0  0  0
  8 30  1  0  0  0  0
  8 31  1  0  0  0  0
  9 16  1  0  0  0  0
  9 32  1  0  0  0  0
  9 33  1  0  0  0  0
  9 34  1  0  0  0  0
 10 16  1  0  0  0  0
 10 35  1  0  0  0  0
 10 36  1  0  0  0  0
 10 37  1  0  0  0  0
 11 17  1  0  0  0  0
 11 38  1  0  0  0  0
 11 39  1  0  0  0  0
 11 40  1  0  0  0  0
 12 17  1  0  0  0  0
 12 41  1  0  0  0  0
 12 42  1  0  0  0  0
 12 43  1  0  0  0  0
 13 18  2  0  0  0  0
 15 18  1  0  0  0  0
 16 18  1  0  0  0  0
 17 18  1  0  0  0  0
M  END
$$$$
