17
-1 1 C5H6N5O
C                     1.477256890505    -4.119982840431     0.962581188615
C                    -0.156645852546    -0.840209403156     0.554622257628
C                    -1.319258005917     0.780319301371     1.598321407166
C                    -0.750542991862    -2.976437074255    -0.685148356980
C                     0.312035295515    -2.151149891636     0.044491971015
N                     1.978999575451    -5.153056693673     0.723670081911
N                    -0.178321914197     1.301508476211     1.045691819242
N                     0.514227187162     0.286146332379     0.421433137464
N                    -1.311044768141    -0.606823964887     1.272831241309
N                     0.835028001541    -2.971426083576     1.216022003952
O                    -2.230262599020     1.324306811599     2.260729950466
H                    -1.602601842246    -3.181464688987    -0.029393931349
H                    -1.107776487713    -2.416945513146    -1.554137163283
H                    -0.345534112697    -3.935036585367    -1.027104406216
H                     1.148959370752    -1.934665267494    -0.628465201386
H                    -2.007164783776    -1.267127764040     1.585285994432
H                     1.298672276865    -2.379139955485     1.899929339830
