
  -OEChem-05262117483D

 17 17  0     1  0  0  0  0  0999 V2000
    1.7528   -3.0914    1.3147 C   0  0  0  0  0  0  0  0  0  0  0  0
   -0.4220   -1.2435   -0.3917 C   0  0  0  0  0  0  0  0  0  0  0  0
   -0.4572    0.9975   -0.1786 C   0  0  0  0  0  0  0  0  0  0  0  0
   -1.0238   -3.6215   -0.9172 C   0  0  0  0  0  0  0  0  0  0  0  0
    0.0418   -2.6560   -0.4001 C   0  0  2  0  0  0  0  0  0  0  0  0
    2.9015   -3.1469    1.5478 N   0  0  0  0  0  0  0  0  0  0  0  0
   -1.7361    0.5158   -0.2968 N   0  5  0  0  0  0  0  0  0  0  0  0
   -1.6812   -0.8564   -0.4174 N   0  0  0  0  0  0  0  0  0  0  0  0
    0.3950   -0.1423   -0.2366 N   0  0  0  0  0  0  0  0  0  0  0  0
    0.4514   -3.0997    1.0025 N   0  0  0  0  0  0  0  0  0  0  0  0
   -0.0355    2.1674   -0.0487 O   0  0  0  0  0  0  0  0  0  0  0  0
   -1.9474   -3.5083   -0.3448 H   0  0  0  0  0  0  0  0  0  0  0  0
   -1.2560   -3.3939   -1.9612 H   0  0  0  0  0  0  0  0  0  0  0  0
   -0.6655   -4.6526   -0.8372 H   0  0  0  0  0  0  0  0  0  0  0  0
    0.9552   -2.7650   -0.9967 H   0  0  0  0  0  0  0  0  0  0  0  0
    1.4019   -0.1071   -0.1647 H   0  0  0  0  0  0  0  0  0  0  0  0
   -0.1366   -2.6627    1.7088 H   0  0  0  0  0  0  0  0  0  0  0  0
  1  6  3  0  0  0  0
  1 10  1  0  0  0  0
  2  5  1  0  0  0  0
  2  8  2  0  0  0  0
  2  9  1  0  0  0  0
  3  7  1  0  0  0  0
  3  9  1  0  0  0  0
  3 11  2  0  0  0  0
  4  5  1  0  0  0  0
  4 12  1  0  0  0  0
  4 13  1  0  0  0  0
  4 14  1  0  0  0  0
  5 10  1  0  0  0  0
  5 15  1  0  0  0  0
  7  8  1  0  0  0  0
  9 16  1  0  0  0  0
 10 17  1  0  0  0  0
M  CHG  1   7  -1
M  END
$$$$
