14
0 1 C5ClH4NO2S
C                     1.200661772854    -0.677743485019     0.324429440722
C                     3.310396853663    -1.801611024018     0.804248430249
C                     0.849728539161    -0.833496753197     1.652451769562
C                     2.449240653261    -1.174088096741    -0.096031407703
C                     2.896933146158    -1.935426959880     2.125183996716
N                     1.700919364292    -1.460384445567     2.488922096508
O                     2.592624642268    -2.330104103807     4.660306915038
O                     4.817750703316    -1.353997796575     3.922683387893
S                     3.862178133475    -2.500548622545     3.818818458813
Cl                    2.911716833394    -0.984623536148    -1.760819763866
H                     0.530284614527    -0.183701619681    -0.368876378756
H                     4.284459123958    -2.165069776452     0.491782680824
H                    -0.088866501731    -0.477135124425     2.064245176827
H                     1.563336009489    -1.606386041398     3.537628532484
