
  -OEChem-05262117483D

 30 31  0     0  0  0  0  0  0999 V2000
    4.9071    0.0182   -1.2826 C   0  0  0  0  0  0  0  0  0  0  0  0
    1.5657   -2.2182    2.1343 C   0  0  0  0  0  0  0  0  0  0  0  0
    1.2623   -0.6530    0.2937 C   0  0  0  0  0  0  0  0  0  0  0  0
    5.3739    1.3221   -1.1702 C   0  0  0  0  0  0  0  0  0  0  0  0
    0.5669   -1.5674    2.8566 C   0  0  0  0  0  0  0  0  0  0  0  0
    0.2434   -0.0201    0.9996 C   0  0  0  0  0  0  0  0  0  0  0  0
    4.2793    0.0199    1.0606 C   0  0  0  0  0  0  0  0  0  0  0  0
    1.9379   -1.7416    0.8699 C   0  0  0  0  0  0  0  0  0  0  0  0
    4.3178   -0.6279   -0.1843 C   0  0  0  0  0  0  0  0  0  0  0  0
    5.3215    1.9890    0.0623 C   0  0  0  0  0  0  0  0  0  0  0  0
   -0.0868   -0.4769    2.2787 C   0  0  0  0  0  0  0  0  0  0  0  0
    4.7875    1.3073    1.1729 C   0  0  0  0  0  0  0  0  0  0  0  0
    2.9042   -2.4975    0.1307 N   0  0  0  0  0  0  0  0  0  0  0  0
    3.9151   -1.9833   -0.4038 N   0  0  0  0  0  0  0  0  0  0  0  0
   -2.7860   -0.4869    2.7177 N   0  0  0  0  0  0  0  0  0  0  0  0
   -1.1788    0.0671    4.6160 O   0  0  0  0  0  0  0  0  0  0  0  0
   -1.5093    1.7113    2.6629 O   0  0  0  0  0  0  0  0  0  0  0  0
    5.8106    3.2537    0.1290 O   0  0  0  0  0  0  0  0  0  0  0  0
   -1.3859    0.3501    3.1926 S   0  0  0  0  0  0  0  0  0  0  0  0
    4.7684    2.1248    2.7313 Cl  0  0  0  0  0  0  0  0  0  0  0  0
    4.9780   -0.5165   -2.2251 H   0  0  0  0  0  0  0  0  0  0  0  0
    2.0774   -3.0828    2.5472 H   0  0  0  0  0  0  0  0  0  0  0  0
    1.5418   -0.3037   -0.6951 H   0  0  0  0  0  0  0  0  0  0  0  0
    5.8076    1.8434   -2.0179 H   0  0  0  0  0  0  0  0  0  0  0  0
    0.2991   -1.8940    3.8563 H   0  0  0  0  0  0  0  0  0  0  0  0
   -0.2758    0.8349    0.5783 H   0  0  0  0  0  0  0  0  0  0  0  0
    3.8780   -0.4704    1.9389 H   0  0  0  0  0  0  0  0  0  0  0  0
   -3.2044   -0.9371    3.5308 H   0  0  0  0  0  0  0  0  0  0  0  0
   -3.4374    0.1659    2.2835 H   0  0  0  0  0  0  0  0  0  0  0  0
    5.7195    3.5855    1.0407 H   0  0  0  0  0  0  0  0  0  0  0  0
  1  4  1  0  0  0  0
  1  9  2  0  0  0  0
  1 21  1  0  0  0  0
  2  5  2  0  0  0  0
  2  8  1  0  0  0  0
  2 22  1  0  0  0  0
  3  6  1  0  0  0  0
  3  8  2  0  0  0  0
  3 23  1  0  0  0  0
  4 10  2  0  0  0  0
  4 24  1  0  0  0  0
  5 11  1  0  0  0  0
  5 25  1  0  0  0  0
  6 11  2  0  0  0  0
  6 26  1  0  0  0  0
  7  9  1  0  0  0  0
  7 12  2  0  0  0  0
  7 27  1  0  0  0  0
  8 13  1  0  0  0  0
  9 14  1  0  0  0  0
 10 12  1  0  0  0  0
 10 18  1  0  0  0  0
 11 19  1  0  0  0  0
 12 20  1  0  0  0  0
 13 14  2  0  0  0  0
 15 19  1  0  0  0  0
 15 28  1  0  0  0  0
 15 29  1  0  0  0  0
 16 19  2  0  0  0  0
 17 19  2  0  0  0  0
 18 30  1  0  0  0  0
M  END
$$$$
