
  -OEChem-05262117483D

 25 26  0     0  0  0  0  0  0999 V2000
   -1.3182   -1.6196   -1.3433 C   0  0  0  0  0  0  0  0  0  0  0  0
   -1.7442   -2.2782   -0.1884 C   0  0  0  0  0  0  0  0  0  0  0  0
   -2.7178   -0.2036    0.6116 C   0  0  0  0  0  0  0  0  0  0  0  0
   -1.5788   -0.2610   -1.5519 C   0  0  0  0  0  0  0  0  0  0  0  0
   -2.2954    0.4168   -0.5567 C   0  0  0  0  0  0  0  0  0  0  0  0
   -2.4371   -1.5590    0.7852 C   0  0  0  0  0  0  0  0  0  0  0  0
    1.8004    3.3753   -1.0878 C   0  0  0  0  0  0  0  0  0  0  0  0
    0.8506    2.6721   -0.1216 C   0  0  0  0  0  0  0  0  0  0  0  0
    0.8395    1.5261   -2.0971 C   0  0  0  0  0  0  0  0  0  0  0  0
   -0.5354    1.5690   -2.7630 C   0  0  0  0  0  0  0  0  0  0  0  0
    1.4787    2.7768   -2.3528 O   0  0  0  0  0  0  0  0  0  0  0  0
    0.7662    1.3587   -0.6889 O   0  0  0  0  0  0  0  0  0  0  0  0
   -1.1861    0.2868   -2.7456 O   0  0  0  0  0  0  0  0  0  0  0  0
   -2.5951    1.7347   -0.7183 F   0  0  0  0  0  0  0  0  0  0  0  0
   -3.0258   -2.4350    2.3851 Br  0  0  0  0  0  0  0  0  0  0  0  0
   -0.7676   -2.1533   -2.1122 H   0  0  0  0  0  0  0  0  0  0  0  0
   -1.5300   -3.3322   -0.0484 H   0  0  0  0  0  0  0  0  0  0  0  0
   -3.2638    0.3715    1.3515 H   0  0  0  0  0  0  0  0  0  0  0  0
    1.6357    4.4529   -1.1635 H   0  0  0  0  0  0  0  0  0  0  0  0
    2.8496    3.1773   -0.8364 H   0  0  0  0  0  0  0  0  0  0  0  0
    1.2371    2.5751    0.8945 H   0  0  0  0  0  0  0  0  0  0  0  0
   -0.1371    3.1501   -0.0965 H   0  0  0  0  0  0  0  0  0  0  0  0
    1.4361    0.6947   -2.4909 H   0  0  0  0  0  0  0  0  0  0  0  0
   -0.4055    1.8012   -3.8217 H   0  0  0  0  0  0  0  0  0  0  0  0
   -1.1533    2.3425   -2.3039 H   0  0  0  0  0  0  0  0  0  0  0  0
  1  2  1  0  0  0  0
  1  4  2  0  0  0  0
  1 16  1  0  0  0  0
  2  6  2  0  0  0  0
  2 17  1  0  0  0  0
  3  5  2  0  0  0  0
  3  6  1  0  0  0  0
  3 18  1  0  0  0  0
  4  5  1  0  0  0  0
  4 13  1  0  0  0  0
  5 14  1  0  0  0  0
  6 15  1  0  0  0  0
  7  8  1  0  0  0  0
  7 11  1  0  0  0  0
  7 19  1  0  0  0  0
  7 20  1  0  0  0  0
  8 12  1  0  0  0  0
  8 21  1  0  0  0  0
  8 22  1  0  0  0  0
  9 10  1  0  0  0  0
  9 11  1  0  0  0  0
  9 12  1  0  0  0  0
  9 23  1  0  0  0  0
 10 13  1  0  0  0  0
 10 24  1  0  0  0  0
 10 25  1  0  0  0  0
M  END
$$$$
