
  -OEChem-05262117483D

 18 19  0     0  0  0  0  0  0999 V2000
    0.3899   -0.1609    1.1183 C   0  0  0  0  0  0  0  0  0  0  0  0
   -1.8071   -2.7894   -1.6494 C   0  0  0  0  0  0  0  0  0  0  0  0
    0.4968   -3.0081   -2.2372 C   0  0  0  0  0  0  0  0  0  0  0  0
   -0.8015   -3.5189   -2.2859 C   0  0  0  0  0  0  0  0  0  0  0  0
   -0.2605   -1.2345   -1.0154 C   0  0  0  0  0  0  0  0  0  0  0  0
    0.7457    1.1754   -1.0131 C   0  0  0  0  0  0  0  0  0  0  0  0
   -0.7047    1.3114   -0.6392 C   0  0  0  0  0  0  0  0  0  0  0  0
    0.0501    0.0412   -0.2738 C   0  0  0  0  0  0  0  0  0  0  0  0
    0.6640   -0.3175    2.2394 N   0  0  0  0  0  0  0  0  0  0  0  0
   -1.5363   -1.6449   -1.0136 N   0  0  0  0  0  0  0  0  0  0  0  0
    0.7676   -1.8636   -1.6014 N   0  0  0  0  0  0  0  0  0  0  0  0
   -1.1878   -5.1477   -3.1942 Br  0  0  0  0  0  0  0  0  0  0  0  0
   -2.8410   -3.1286   -1.6513 H   0  0  0  0  0  0  0  0  0  0  0  0
    1.3270   -3.5241   -2.7148 H   0  0  0  0  0  0  0  0  0  0  0  0
    1.0024    0.9707   -2.0474 H   0  0  0  0  0  0  0  0  0  0  0  0
    1.4827    1.7467   -0.4592 H   0  0  0  0  0  0  0  0  0  0  0  0
   -0.9732    1.9771    0.1739 H   0  0  0  0  0  0  0  0  0  0  0  0
   -1.4571    1.2014   -1.4133 H   0  0  0  0  0  0  0  0  0  0  0  0
  1  8  1  0  0  0  0
  1  9  3  0  0  0  0
  2  4  1  0  0  0  0
  2 10  2  0  0  0  0
  2 13  1  0  0  0  0
  3  4  2  0  0  0  0
  3 11  1  0  0  0  0
  3 14  1  0  0  0  0
  4 12  1  0  0  0  0
  5  8  1  0  0  0  0
  5 10  1  0  0  0  0
  5 11  2  0  0  0  0
  6  7  1  0  0  0  0
  6  8  1  0  0  0  0
  6 15  1  0  0  0  0
  6 16  1  0  0  0  0
  7  8  1  0  0  0  0
  7 17  1  0  0  0  0
  7 18  1  0  0  0  0
M  END
$$$$
