
  -OEChem-05262117483D

 25 26  0     0  0  0  0  0  0999 V2000
   -2.1749   -1.6554   -1.8780 C   0  0  0  0  0  0  0  0  0  0  0  0
   -2.9200   -2.0947   -0.7821 C   0  0  0  0  0  0  0  0  0  0  0  0
   -3.8494    0.1337   -0.5511 C   0  0  0  0  0  0  0  0  0  0  0  0
   -2.2376   -0.3313   -2.3309 C   0  0  0  0  0  0  0  0  0  0  0  0
   -3.1110    0.5352   -1.6569 C   0  0  0  0  0  0  0  0  0  0  0  0
   -3.7447   -1.1881   -0.1169 C   0  0  0  0  0  0  0  0  0  0  0  0
    0.6567    0.4614   -0.5469 C   0  0  0  0  0  0  0  0  0  0  0  0
    1.2546   -0.4079   -1.6519 C   0  0  0  0  0  0  0  0  0  0  0  0
    0.3073    1.4606   -2.6072 C   0  0  0  0  0  0  0  0  0  0  0  0
   -0.8561    1.2555   -3.5756 C   0  0  0  0  0  0  0  0  0  0  0  0
   -0.1639    1.3898   -1.2670 O   0  0  0  0  0  0  0  0  0  0  0  0
    1.3391    0.4974   -2.7588 O   0  0  0  0  0  0  0  0  0  0  0  0
   -1.4969   -0.0225   -3.4393 O   0  0  0  0  0  0  0  0  0  0  0  0
   -3.2549    1.8172   -2.0791 F   0  0  0  0  0  0  0  0  0  0  0  0
   -4.7576   -1.7570    1.4077 Br  0  0  0  0  0  0  0  0  0  0  0  0
   -1.5263   -2.3421   -2.4135 H   0  0  0  0  0  0  0  0  0  0  0  0
   -2.8516   -3.1256   -0.4519 H   0  0  0  0  0  0  0  0  0  0  0  0
   -4.4956    0.8527   -0.0594 H   0  0  0  0  0  0  0  0  0  0  0  0
    0.0170   -0.0923    0.1446 H   0  0  0  0  0  0  0  0  0  0  0  0
    1.4308    1.0016    0.0124 H   0  0  0  0  0  0  0  0  0  0  0  0
    2.2620   -0.7665   -1.4289 H   0  0  0  0  0  0  0  0  0  0  0  0
    0.6059   -1.2553   -1.8973 H   0  0  0  0  0  0  0  0  0  0  0  0
    0.7501    2.4485   -2.8054 H   0  0  0  0  0  0  0  0  0  0  0  0
   -0.4624    1.2566   -4.5941 H   0  0  0  0  0  0  0  0  0  0  0  0
   -1.5669    2.0761   -3.4641 H   0  0  0  0  0  0  0  0  0  0  0  0
  1  2  1  0  0  0  0
  1  4  2  0  0  0  0
  1 16  1  0  0  0  0
  2  6  2  0  0  0  0
  2 17  1  0  0  0  0
  3  5  2  0  0  0  0
  3  6  1  0  0  0  0
  3 18  1  0  0  0  0
  4  5  1  0  0  0  0
  4 13  1  0  0  0  0
  5 14  1  0  0  0  0
  6 15  1  0  0  0  0
  7  8  1  0  0  0  0
  7 11  1  0  0  0  0
  7 19  1  0  0  0  0
  7 20  1  0  0  0  0
  8 12  1  0  0  0  0
  8 21  1  0  0  0  0
  8 22  1  0  0  0  0
  9 10  1  0  0  0  0
  9 11  1  0  0  0  0
  9 12  1  0  0  0  0
  9 23  1  0  0  0  0
 10 13  1  0  0  0  0
 10 24  1  0  0  0  0
 10 25  1  0  0  0  0
M  END
$$$$
