
  -OEChem-05262117483D

 19 19  0     0  0  0  0  0  0999 V2000
    3.5741   -1.9994   -2.5552 C   0  0  0  0  0  0  0  0  0  0  0  0
    5.6254   -3.0499   -1.8197 C   0  0  0  0  0  0  0  0  0  0  0  0
    4.0196   -2.0466   -3.8777 C   0  0  0  0  0  0  0  0  0  0  0  0
    6.0774   -3.1004   -3.1399 C   0  0  0  0  0  0  0  0  0  0  0  0
    4.3679   -2.5075   -1.5165 C   0  0  0  0  0  0  0  0  0  0  0  0
    5.2690   -2.6000   -4.1617 C   0  0  0  0  0  0  0  0  0  0  0  0
    3.2708   -3.3308    0.3670 C   0  0  0  0  0  0  0  0  0  0  0  0
    2.1494   -5.4067    0.5328 C   0  0  0  0  0  0  0  0  0  0  0  0
    3.9409   -2.3982   -0.1694 N   0  0  0  0  0  0  0  0  0  0  0  0
    2.9070   -4.4780   -0.2583 O   0  0  0  0  0  0  0  0  0  0  0  0
    5.8354   -2.6603   -5.8277 Cl  0  0  0  0  0  0  0  0  0  0  0  0
    2.6067   -1.5635   -2.3226 H   0  0  0  0  0  0  0  0  0  0  0  0
    6.2502   -3.4294   -1.0162 H   0  0  0  0  0  0  0  0  0  0  0  0
    3.4018   -1.6552   -4.6801 H   0  0  0  0  0  0  0  0  0  0  0  0
    7.0498   -3.5234   -3.3721 H   0  0  0  0  0  0  0  0  0  0  0  0
    2.9457   -3.2377    1.4070 H   0  0  0  0  0  0  0  0  0  0  0  0
    1.9411   -6.2559   -0.1177 H   0  0  0  0  0  0  0  0  0  0  0  0
    1.2053   -4.9607    0.8640 H   0  0  0  0  0  0  0  0  0  0  0  0
    2.7268   -5.7446    1.4003 H   0  0  0  0  0  0  0  0  0  0  0  0
  1  3  1  0  0  0  0
  1  5  2  0  0  0  0
  1 12  1  0  0  0  0
  2  4  2  0  0  0  0
  2  5  1  0  0  0  0
  2 13  1  0  0  0  0
  3  6  2  0  0  0  0
  3 14  1  0  0  0  0
  4  6  1  0  0  0  0
  4 15  1  0  0  0  0
  5  9  1  0  0  0  0
  6 11  1  0  0  0  0
  7  9  2  0  0  0  0
  7 10  1  0  0  0  0
  7 16  1  0  0  0  0
  8 10  1  0  0  0  0
  8 17  1  0  0  0  0
  8 18  1  0  0  0  0
  8 19  1  0  0  0  0
M  END
$$$$
