28
0 1 C12H11NO4
C                     1.508691043423    -1.816270386360    -5.806168709946
C                     2.416734477274    -0.577089534461    -2.354627826782
C                    -0.370584382872    -0.437109192106    -2.281633672687
C                     0.153622181590    -1.727058797586    -5.694312252466
C                     1.684526734914    -0.956687890189    -3.488664453111
C                     0.370206089959    -0.030265062873    -1.172929283318
C                     0.275301009491    -0.888910904797    -3.441884505049
C                     2.388579534988    -1.436910414382    -4.709415078782
C                     1.787023275228    -0.117080637781    -1.205547607830
C                    -0.338832284411     0.525091507511     0.018696190693
C                     3.111297351925     1.473525725494    -0.053617288048
C                    -2.350987373328     0.515022350005     1.256038426957
N                    -0.458465842393    -1.278287529318    -4.556116896523
O                     3.623548183915    -1.499518312112    -4.769690537996
O                     0.101227372275     1.376698324139     0.767210253628
O                     2.531013719695     0.159190163033    -0.086679830370
O                    -1.579109009395    -0.010869786750     0.156189072069
H                     1.956087959097    -2.175354335541    -6.726120901208
H                     3.498210899952    -0.667798223774    -2.387362877204
H                    -1.454915997065    -0.391560724082    -2.240702725626
H                    -0.514991165592    -2.006391031442    -6.502958949685
H                     3.704036439833     1.518263335278     0.861552882223
H                     2.326586292463     2.234802330934    -0.021350792295
H                     3.762618468471     1.630756260648    -0.922183668058
H                    -3.301336069791    -0.017589612353     1.224081933799
H                    -2.504907688067     1.589959766933     1.134673861526
H                    -1.837117618914     0.330654951309     2.201978394616
H                    -1.467601390825    -1.232592172284    -4.514925054514
