25
0 1 BrC10FH10O3
C                    -0.739515124003    -1.498472388063    -5.039675782486
C                    -1.343684450245    -1.991254409465    -6.197618571401
C                    -3.080591659064    -0.304058827499    -5.994475526053
C                    -1.284555575169    -0.418086186859    -4.335947579713
C                    -2.464676371488     0.152259761943    -4.834636134263
C                    -2.508127879563    -1.382953172311    -6.668925988916
C                     1.659982336985     0.141728421062    -0.534848884388
C                     2.194384521723    -0.226820090078    -1.915993175531
C                     0.775748533214     1.569399120881    -2.117200220763
C                    -0.455367192318     1.388977611432    -2.993995152937
O                     0.548807579061     0.992470223454    -0.837549128775
O                     1.935166440647     0.963077731467    -2.673319377842
O                    -0.677481595218    -0.018770524216    -3.180516228797
F                    -3.040603134281     1.181104388584    -4.160793653681
Br                   -3.343234860803    -2.036812238635    -8.264551391655
H                     0.174247831770    -1.944738155699    -4.659319084064
H                    -0.906437804359    -2.829253635208    -6.729602511538
H                    -3.992188083960     0.173094791670    -6.337546525213
H                     1.290685611604    -0.712422653136     0.037403393565
H                     2.407636905003     0.688531376304     0.054963673625
H                     3.270263350200    -0.414445765156    -1.937692229932
H                     1.651746503343    -1.077325493136    -2.343136463188
H                     0.981082790265     2.645977653925    -2.019702494760
H                    -0.275107394133     1.874003482458    -3.959273166204
H                    -1.319655095204     1.853683966586    -2.510470197818
