30
0 1 C12ClH10N3O3S
C                     4.907069392266     0.018188000651    -1.282647700821
C                     1.565730890916    -2.218222261696     2.134338492581
C                     1.262340091436    -0.653021786266     0.293715164606
C                     5.373862594793     1.322136941614    -1.170161596546
C                     0.566934671415    -1.567428755996     2.856576282287
C                     0.243365365914    -0.020114258616     0.999620381256
C                     4.279275087040     0.019947017450     1.060573430721
C                     1.937910880664    -1.741617108248     0.869933810965
C                     4.317791715994    -0.627905485358    -0.184277607908
C                     5.321538404177     1.988953176529     0.062259921380
C                    -0.086818855807    -0.476927380036     2.278710794114
C                     4.787499753600     1.307343962026     1.172889679695
N                     2.904198971515    -2.497541424875     0.130685170022
N                     3.915112401914    -1.983295176751    -0.403786310471
N                    -2.786006050863    -0.486871630553     2.717681144804
O                    -1.178785396461     0.067084916852     4.615953821291
O                    -1.509297300586     1.711305250234     2.662857935978
O                     5.810588673181     3.253735997596     0.129019748796
S                    -1.385896799921     0.350058741893     3.192612828242
Cl                    4.768416263397     2.124772270388     2.731289603540
H                     4.977955039766    -0.516454880341    -2.225112275982
H                     2.077404231816    -3.082839296932     2.547231239042
H                     1.541763126810    -0.303672279421    -0.695142466574
H                     5.807564991642     1.843405842292    -2.017901170243
H                     0.299148904375    -1.893975889831     3.856335821274
H                    -0.275760869779     0.834905983859     0.578318437406
H                     3.878046194776    -0.470429290268     1.938867865899
H                    -3.204425031978    -0.937066851193     3.530762886809
H                    -3.437419334204     0.165875655619     2.283525618801
H                     5.719473464644     3.585461781325     1.040700498081
