
  -OEChem-05262117483D

 67 69  0     0  0  0  0  0  0999 V2000
  -11.6516   -1.8783   -2.1360 C   0  0  0  0  0  0  0  0  0  0  0  0
  -10.8354   -3.4513   -0.4596 C   0  0  0  0  0  0  0  0  0  0  0  0
   -9.8189   -3.9855    0.3297 C   0  0  0  0  0  0  0  0  0  0  0  0
   -8.2641   -2.3704   -0.5981 C   0  0  0  0  0  0  0  0  0  0  0  0
  -10.5735   -2.3843   -1.3325 C   0  0  0  0  0  0  0  0  0  0  0  0
   -9.2723   -1.8432   -1.3958 C   0  0  0  0  0  0  0  0  0  0  0  0
   -8.5360   -3.4453    0.2513 C   0  0  0  0  0  0  0  0  0  0  0  0
   -7.5989   -4.0714    2.4665 C   0  0  0  0  0  0  0  0  0  0  0  0
   -6.2494   -4.4310    0.6141 C   0  0  0  0  0  0  0  0  0  0  0  0
    1.7200    0.6452    0.7506 C   0  0  0  0  0  0  0  0  0  0  0  0
    0.1509   -1.0069    1.8907 C   0  0  0  0  0  0  0  0  0  0  0  0
   -0.1947   -0.3456   -0.4262 C   0  0  0  0  0  0  0  0  0  0  0  0
    0.0360   -2.4863    1.5130 C   0  0  0  0  0  0  0  0  0  0  0  0
   -0.3009   -1.8000   -0.8645 C   0  0  0  0  0  0  0  0  0  0  0  0
   -6.2789   -4.6620    2.9684 C   0  0  0  0  0  0  0  0  0  0  0  0
   -6.5538   -6.0323    3.6091 C   0  0  0  0  0  0  0  0  0  0  0  0
   -5.6133   -3.6938    3.9543 C   0  0  0  0  0  0  0  0  0  0  0  0
    4.3119    1.8771    3.0553 C   0  0  0  0  0  0  0  0  0  0  0  0
    2.4928    0.7780    2.0646 C   0  0  0  0  0  0  0  0  0  0  0  0
   -3.1371   -4.3034    1.2272 C   0  0  0  0  0  0  0  0  0  0  0  0
   -1.7803   -4.9345    0.8741 C   0  0  0  0  0  0  0  0  0  0  0  0
   -4.1936   -5.3552    1.6082 C   0  0  0  0  0  0  0  0  0  0  0  0
   -0.9840   -4.1081   -0.1339 C   0  0  0  0  0  0  0  0  0  0  0  0
   -8.9614   -0.6880   -2.3241 C   0  0  0  0  0  0  0  0  0  0  0  0
  -12.5505   -1.4983   -2.7703 N   0  0  0  0  0  0  0  0  0  0  0  0
   -7.4960   -3.9726    1.0749 N   0  0  0  0  0  0  0  0  0  0  0  0
   -5.5233   -4.7802    1.7092 N   0  0  0  0  0  0  0  0  0  0  0  0
    0.6300   -0.2352    0.7637 N   0  0  0  0  0  0  0  0  0  0  0  0
   -0.8196   -2.6566    0.2781 N   0  3  0  0  0  0  0  0  0  0  0  0
   -8.5523   -3.7551    3.1440 O   0  0  0  0  0  0  0  0  0  0  0  0
    2.0135    1.2519   -0.2607 O   0  0  0  0  0  0  0  0  0  0  0  0
    3.5513    1.6623    1.8686 O   0  0  0  0  0  0  0  0  0  0  0  0
   -7.6615   -0.3088   -2.2226 F   0  0  0  0  0  0  0  0  0  0  0  0
   -9.1817   -1.0155   -3.6149 F   0  0  0  0  0  0  0  0  0  0  0  0
   -9.7157    0.3952   -2.0409 F   0  0  0  0  0  0  0  0  0  0  0  0
   -5.7777   -4.5464   -0.9762 S   0  0  0  0  0  0  0  0  0  0  0  0
  -11.8384   -3.8614   -0.4100 H   0  0  0  0  0  0  0  0  0  0  0  0
  -10.0254   -4.8100    1.0032 H   0  0  0  0  0  0  0  0  0  0  0  0
   -7.2674   -1.9528   -0.6433 H   0  0  0  0  0  0  0  0  0  0  0  0
   -0.8287   -0.6338    2.2297 H   0  0  0  0  0  0  0  0  0  0  0  0
    0.8279   -0.9344    2.7407 H   0  0  0  0  0  0  0  0  0  0  0  0
    0.2686    0.2407   -1.2215 H   0  0  0  0  0  0  0  0  0  0  0  0
   -1.1967    0.0711   -0.2418 H   0  0  0  0  0  0  0  0  0  0  0  0
    1.0145   -2.9068    1.2715 H   0  0  0  0  0  0  0  0  0  0  0  0
   -0.4207   -3.0657    2.3161 H   0  0  0  0  0  0  0  0  0  0  0  0
   -0.9958   -1.9212   -1.6981 H   0  0  0  0  0  0  0  0  0  0  0  0
    0.6748   -2.2045   -1.1414 H   0  0  0  0  0  0  0  0  0  0  0  0
   -5.6339   -6.4697    4.0077 H   0  0  0  0  0  0  0  0  0  0  0  0
   -6.9851   -6.7254    2.8816 H   0  0  0  0  0  0  0  0  0  0  0  0
   -7.2589   -5.9074    4.4342 H   0  0  0  0  0  0  0  0  0  0  0  0
   -4.6675   -4.1083    4.3180 H   0  0  0  0  0  0  0  0  0  0  0  0
   -6.2716   -3.5372    4.8118 H   0  0  0  0  0  0  0  0  0  0  0  0
   -5.4217   -2.7247    3.4841 H   0  0  0  0  0  0  0  0  0  0  0  0
    5.1043    2.5785    2.7927 H   0  0  0  0  0  0  0  0  0  0  0  0
    4.7611    0.9408    3.4171 H   0  0  0  0  0  0  0  0  0  0  0  0
    3.6924    2.3111    3.8530 H   0  0  0  0  0  0  0  0  0  0  0  0
    2.8557   -0.2181    2.3795 H   0  0  0  0  0  0  0  0  0  0  0  0
    1.8043    1.1356    2.8519 H   0  0  0  0  0  0  0  0  0  0  0  0
   -3.5359   -3.7748    0.3539 H   0  0  0  0  0  0  0  0  0  0  0  0
   -3.0424   -3.5806    2.0481 H   0  0  0  0  0  0  0  0  0  0  0  0
   -1.1894   -5.1490    1.7702 H   0  0  0  0  0  0  0  0  0  0  0  0
   -1.9419   -5.9007    0.3837 H   0  0  0  0  0  0  0  0  0  0  0  0
   -3.9494   -5.8239    2.5639 H   0  0  0  0  0  0  0  0  0  0  0  0
   -4.2101   -6.1380    0.8431 H   0  0  0  0  0  0  0  0  0  0  0  0
   -1.5085   -4.0845   -1.0920 H   0  0  0  0  0  0  0  0  0  0  0  0
    0.0218   -4.5019   -0.2969 H   0  0  0  0  0  0  0  0  0  0  0  0
   -1.7591   -2.3098    0.5078 H   0  0  0  0  0  0  0  0  0  0  0  0
  1  5  1  0  0  0  0
  1 25  3  0  0  0  0
  2  3  1  0  0  0  0
  2  5  2  0  0  0  0
  2 37  1  0  0  0  0
  3  7  2  0  0  0  0
  3 38  1  0  0  0  0
  4  6  2  0  0  0  0
  4  7  1  0  0  0  0
  4 39  1  0  0  0  0
  5  6  1  0  0  0  0
  6 24  1  0  0  0  0
  7 26  1  0  0  0  0
  8 15  1  0  0  0  0
  8 26  1  0  0  0  0
  8 30  2  0  0  0  0
  9 26  1  0  0  0  0
  9 27  1  0  0  0  0
  9 36  2  0  0  0  0
 10 19  1  0  0  0  0
 10 28  1  0  0  0  0
 10 31  2  0  0  0  0
 11 13  1  0  0  0  0
 11 28  1  0  0  0  0
 11 40  1  0  0  0  0
 11 41  1  0  0  0  0
 12 14  1  0  0  0  0
 12 28  1  0  0  0  0
 12 42  1  0  0  0  0
 12 43  1  0  0  0  0
 13 29  1  0  0  0  0
 13 44  1  0  0  0  0
 13 45  1  0  0  0  0
 14 29  1  0  0  0  0
 14 46  1  0  0  0  0
 14 47  1  0  0  0  0
 15 16  1  0  0  0  0
 15 17  1  0  0  0  0
 15 27  1  0  0  0  0
 16 48  1  0  0  0  0
 16 49  1  0  0  0  0
 16 50  1  0  0  0  0
 17 51  1  0  0  0  0
 17 52  1  0  0  0  0
 17 53  1  0  0  0  0
 18 32  1  0  0  0  0
 18 54  1  0  0  0  0
 18 55  1  0  0  0  0
 18 56  1  0  0  0  0
 19 32  1  0  0  0  0
 19 57  1  0  0  0  0
 19 58  1  0  0  0  0
 20 21  1  0  0  0  0
 20 22  1  0  0  0  0
 20 59  1  0  0  0  0
 20 60  1  0  0  0  0
 21 23  1  0  0  0  0
 21 61  1  0  0  0  0
 21 62  1  0  0  0  0
 22 27  1  0  0  0  0
 22 63  1  0  0  0  0
 22 64  1  0  0  0  0
 23 29  1  0  0  0  0
 23 65  1  0  0  0  0
 23 66  1  0  0  0  0
 24 33  1  0  0  0  0
 24 34  1  0  0  0  0
 24 35  1  0  0  0  0
 29 67  1  0  0  0  0
M  CHG  1  29   1
M  END
$$$$
