
  -OEChem-05262117483D

 67 69  0     0  0  0  0  0  0999 V2000
   -9.3434   -4.4985   -3.4541 C   0  0  0  0  0  0  0  0  0  0  0  0
   -7.4849   -3.5009   -2.2339 C   0  0  0  0  0  0  0  0  0  0  0  0
   -6.7052   -3.3594   -1.0895 C   0  0  0  0  0  0  0  0  0  0  0  0
   -8.1056   -4.9754    0.0583 C   0  0  0  0  0  0  0  0  0  0  0  0
   -8.5789   -4.3816   -2.2429 C   0  0  0  0  0  0  0  0  0  0  0  0
   -8.8903   -5.1178   -1.0820 C   0  0  0  0  0  0  0  0  0  0  0  0
   -7.0148   -4.1059    0.0463 C   0  0  0  0  0  0  0  0  0  0  0  0
   -6.7322   -3.4372    2.4284 C   0  0  0  0  0  0  0  0  0  0  0  0
   -4.8982   -4.3741    1.3689 C   0  0  0  0  0  0  0  0  0  0  0  0
    1.2920   -6.2346   -4.2374 C   0  0  0  0  0  0  0  0  0  0  0  0
    0.2314   -6.7379   -1.9790 C   0  0  0  0  0  0  0  0  0  0  0  0
    1.9641   -5.0409   -2.2043 C   0  0  0  0  0  0  0  0  0  0  0  0
   -0.6180   -5.7890   -1.1347 C   0  0  0  0  0  0  0  0  0  0  0  0
    1.1532   -4.0555   -1.3739 C   0  0  0  0  0  0  0  0  0  0  0  0
   -5.5910   -3.4978    3.4459 C   0  0  0  0  0  0  0  0  0  0  0  0
   -6.0021   -4.4131    4.6094 C   0  0  0  0  0  0  0  0  0  0  0  0
   -5.2382   -2.0824    3.9216 C   0  0  0  0  0  0  0  0  0  0  0  0
   -0.0385   -8.4309   -6.8742 C   0  0  0  0  0  0  0  0  0  0  0  0
    0.4216   -7.3297   -4.8564 C   0  0  0  0  0  0  0  0  0  0  0  0
   -2.0325   -3.6266    2.5125 C   0  0  0  0  0  0  0  0  0  0  0  0
   -1.0216   -4.5266    1.7658 C   0  0  0  0  0  0  0  0  0  0  0  0
   -3.1941   -4.4214    3.1667 C   0  0  0  0  0  0  0  0  0  0  0  0
   -0.5415   -3.8541    0.4845 C   0  0  0  0  0  0  0  0  0  0  0  0
  -10.0659   -6.0748   -1.0706 C   0  0  0  0  0  0  0  0  0  0  0  0
   -9.9246   -4.5638   -4.4603 N   0  0  0  0  0  0  0  0  0  0  0  0
   -6.2299   -3.9671    1.2322 N   0  0  0  0  0  0  0  0  0  0  0  0
   -4.5083   -4.0878    2.6291 N   0  0  0  0  0  0  0  0  0  0  0  0
    1.0868   -5.9839   -2.8744 N   0  0  0  0  0  0  0  0  0  0  0  0
    0.2616   -4.7979   -0.3956 N   0  3  0  0  0  0  0  0  0  0  0  0
   -7.8532   -3.0206    2.6113 O   0  0  0  0  0  0  0  0  0  0  0  0
    2.1106   -5.5955   -4.8696 O   0  0  0  0  0  0  0  0  0  0  0  0
    0.7134   -7.4137   -6.2167 O   0  0  0  0  0  0  0  0  0  0  0  0
  -10.2006   -6.6761    0.1334 F   0  0  0  0  0  0  0  0  0  0  0  0
  -11.2238   -5.4378   -1.3397 F   0  0  0  0  0  0  0  0  0  0  0  0
   -9.9093   -7.0504   -1.9936 F   0  0  0  0  0  0  0  0  0  0  0  0
   -3.9983   -5.1002    0.1600 S   0  0  0  0  0  0  0  0  0  0  0  0
   -7.2591   -2.9291   -3.1277 H   0  0  0  0  0  0  0  0  0  0  0  0
   -5.8612   -2.6781   -1.0786 H   0  0  0  0  0  0  0  0  0  0  0  0
   -8.3417   -5.5385    0.9534 H   0  0  0  0  0  0  0  0  0  0  0  0
    0.8282   -7.3928   -1.3238 H   0  0  0  0  0  0  0  0  0  0  0  0
   -0.4532   -7.3804   -2.5312 H   0  0  0  0  0  0  0  0  0  0  0  0
    2.5312   -4.4994   -2.9631 H   0  0  0  0  0  0  0  0  0  0  0  0
    2.6871   -5.5701   -1.5634 H   0  0  0  0  0  0  0  0  0  0  0  0
   -1.2846   -5.1947   -1.7616 H   0  0  0  0  0  0  0  0  0  0  0  0
   -1.2142   -6.3260   -0.3976 H   0  0  0  0  0  0  0  0  0  0  0  0
    1.7998   -3.3981   -0.7888 H   0  0  0  0  0  0  0  0  0  0  0  0
    0.4923   -3.4529   -2.0004 H   0  0  0  0  0  0  0  0  0  0  0  0
   -5.2210   -4.4497    5.3739 H   0  0  0  0  0  0  0  0  0  0  0  0
   -6.2006   -5.4300    4.2595 H   0  0  0  0  0  0  0  0  0  0  0  0
   -6.9118   -4.0184    5.0679 H   0  0  0  0  0  0  0  0  0  0  0  0
   -4.4190   -2.1133    4.6463 H   0  0  0  0  0  0  0  0  0  0  0  0
   -6.1096   -1.6360    4.4060 H   0  0  0  0  0  0  0  0  0  0  0  0
   -4.9431   -1.4463    3.0824 H   0  0  0  0  0  0  0  0  0  0  0  0
    0.2639   -8.4118   -7.9217 H   0  0  0  0  0  0  0  0  0  0  0  0
   -1.1187   -8.2377   -6.8046 H   0  0  0  0  0  0  0  0  0  0  0  0
    0.1775   -9.4227   -6.4519 H   0  0  0  0  0  0  0  0  0  0  0  0
   -0.6443   -7.0897   -4.6881 H   0  0  0  0  0  0  0  0  0  0  0  0
    0.6239   -8.2852   -4.3388 H   0  0  0  0  0  0  0  0  0  0  0  0
   -2.4706   -2.9063    1.8171 H   0  0  0  0  0  0  0  0  0  0  0  0
   -1.5126   -3.0391    3.2744 H   0  0  0  0  0  0  0  0  0  0  0  0
   -0.1659   -4.7621    2.4104 H   0  0  0  0  0  0  0  0  0  0  0  0
   -1.5207   -5.4632    1.5130 H   0  0  0  0  0  0  0  0  0  0  0  0
   -3.2356   -4.2184    4.2367 H   0  0  0  0  0  0  0  0  0  0  0  0
   -3.0349   -5.4984    3.0522 H   0  0  0  0  0  0  0  0  0  0  0  0
    0.1029   -2.9970    0.6939 H   0  0  0  0  0  0  0  0  0  0  0  0
   -1.3892   -3.5245   -0.1190 H   0  0  0  0  0  0  0  0  0  0  0  0
    0.8791   -5.3389    0.2213 H   0  0  0  0  0  0  0  0  0  0  0  0
  1  5  1  0  0  0  0
  1 25  3  0  0  0  0
  2  3  1  0  0  0  0
  2  5  2  0  0  0  0
  2 37  1  0  0  0  0
  3  7  2  0  0  0  0
  3 38  1  0  0  0  0
  4  6  2  0  0  0  0
  4  7  1  0  0  0  0
  4 39  1  0  0  0  0
  5  6  1  0  0  0  0
  6 24  1  0  0  0  0
  7 26  1  0  0  0  0
  8 15  1  0  0  0  0
  8 26  1  0  0  0  0
  8 30  2  0  0  0  0
  9 26  1  0  0  0  0
  9 27  1  0  0  0  0
  9 36  2  0  0  0  0
 10 19  1  0  0  0  0
 10 28  1  0  0  0  0
 10 31  2  0  0  0  0
 11 13  1  0  0  0  0
 11 28  1  0  0  0  0
 11 40  1  0  0  0  0
 11 41  1  0  0  0  0
 12 14  1  0  0  0  0
 12 28  1  0  0  0  0
 12 42  1  0  0  0  0
 12 43  1  0  0  0  0
 13 29  1  0  0  0  0
 13 44  1  0  0  0  0
 13 45  1  0  0  0  0
 14 29  1  0  0  0  0
 14 46  1  0  0  0  0
 14 47  1  0  0  0  0
 15 16  1  0  0  0  0
 15 17  1  0  0  0  0
 15 27  1  0  0  0  0
 16 48  1  0  0  0  0
 16 49  1  0  0  0  0
 16 50  1  0  0  0  0
 17 51  1  0  0  0  0
 17 52  1  0  0  0  0
 17 53  1  0  0  0  0
 18 32  1  0  0  0  0
 18 54  1  0  0  0  0
 18 55  1  0  0  0  0
 18 56  1  0  0  0  0
 19 32  1  0  0  0  0
 19 57  1  0  0  0  0
 19 58  1  0  0  0  0
 20 21  1  0  0  0  0
 20 22  1  0  0  0  0
 20 59  1  0  0  0  0
 20 60  1  0  0  0  0
 21 23  1  0  0  0  0
 21 61  1  0  0  0  0
 21 62  1  0  0  0  0
 22 27  1  0  0  0  0
 22 63  1  0  0  0  0
 22 64  1  0  0  0  0
 23 29  1  0  0  0  0
 23 65  1  0  0  0  0
 23 66  1  0  0  0  0
 24 33  1  0  0  0  0
 24 34  1  0  0  0  0
 24 35  1  0  0  0  0
 29 67  1  0  0  0  0
M  CHG  1  29   1
M  END
$$$$
