53
1 1 C21H28N3O
C                     3.347800358355     1.880578874433     2.408055521219
C                    -1.114588490694     2.994525912388    -2.289196773925
C                    -0.189254625409     2.434768672569    -1.376082150195
C                    -2.083193647464     2.229874939671    -2.945177052390
C                    -1.201215821393     0.308897835584    -1.729953142923
C                    -0.221738612995     1.071749066024    -1.087463507180
C                    -1.456797740642    -1.090697224446    -1.614486114627
C                    -2.114594187045     0.861677249451    -2.651857902841
C                    -2.503332856688    -1.378598281996    -2.461493883868
C                    -0.641170068867    -1.871827500476    -0.627300694016
C                     2.145033386263     0.892756287418    -0.196370365526
C                     3.076626565975    -1.378990465811     0.362922807046
C                     0.717440322032     0.325396797830    -0.143079214685
C                     3.149575041493     0.117665532060     0.669153372526
C                     0.731218138642    -1.174750949407    -0.531033622535
C                     1.297021016422    -3.443052420320     3.978412272931
C                    -3.162436016252    -4.983946140724    -2.343857451263
C                     3.060983336196     0.459663232835     2.178368550100
C                    -3.220630888259    -2.661556477546    -2.747187817358
C                     2.041576802070    -3.008341528126     2.708108381981
C                     1.100191229825    -2.240414853223     1.783955936569
N                     3.564911639441     3.013251107284     2.549159560798
N                    -2.901909989032    -0.195627411306    -3.088087840552
N                     1.672419102125    -1.962571464741     0.402079592256
O                    -2.516724934862    -3.728871250215    -2.136373215998
H                    -1.065143235776     4.060557589074    -2.490183416848
H                     0.538438494495     3.093487511892    -0.911496140523
H                    -2.772340372196     2.690641623409    -3.647335122877
H                    -1.143461468247    -1.861341573583     0.346450806379
H                    -0.527668626986    -2.916755320121    -0.931982479511
H                     2.483066914717     0.876388973878    -1.238654140654
H                     2.144160741292     1.940826530676     0.108425214236
H                     3.417593339583    -1.542756418893    -0.662571662175
H                     3.703825710884    -1.977954720340     1.022461230742
H                     0.321589140253     0.419266887051     0.877825859341
H                     4.157135388122     0.411704711873     0.355317207586
H                     1.214609963359    -1.257734281164    -1.510578290443
H                     0.904336954957    -2.579225102695     4.524325379652
H                     0.458840732696    -4.106433490790     3.743808398842
H                     1.972933183160    -3.980364407661     4.647605222620
H                    -2.557627660902    -5.740968171973    -1.841610153512
H                    -3.226251882676    -5.224419606099    -3.413764932967
H                    -4.173716780303    -4.985329886212    -1.914940414513
H                     3.784638775774    -0.131367967377     2.749287021018
H                     2.072866680113     0.255933605132     2.597962219954
H                    -4.252907303196    -2.613682042843    -2.360826211745
H                    -3.290927471563    -2.821404095638    -3.836417315892
H                     2.432358609048    -3.893785507261     2.189988768345
H                     2.901380229726    -2.395181629245     2.990363362115
H                     0.200440865423    -2.830170651689     1.612204508874
H                     0.791420841281    -1.289919283626     2.214221348602
H                    -3.641847253571    -0.128505716637    -3.774182996106
H                     1.757292617837    -2.887486893731    -0.031285036071
