66
0 1 C25H29N5O6S
C                     1.460631592491     2.815789377263    -9.378028081030
C                    -0.536816545178     1.494554412913    -9.805072169128
C                     0.981549355228     3.796823144550   -10.244692746315
C                    -0.992733261570     2.467055710981   -10.691423750680
C                     0.061835859930     6.865763316288    -7.912429731783
C                    -0.670007342833     6.879451368568    -9.093826871784
C                    -1.756783930368     4.806780028931    -8.419994202147
C                    -1.009892610517     4.767529156013    -7.241951654071
C                     0.684511635085     1.675531621934    -9.144495563246
C                    -0.249917664596     3.638995829797   -10.896217781300
C                    -0.061685245512     5.785124798098    -7.023716411173
C                    -1.557354989357     5.825812768151    -9.350380349808
C                     1.917946167528     0.846338307152    -7.096674369547
C                     2.078770890172     4.458329038531    -4.377821028429
C                    -1.168373353290     3.614715025620    -6.271624972708
C                    -0.250700873326     3.767561115913    -5.053019329818
C                     8.526858010229    -2.103096632078    -6.244820390119
C                     8.599404856121    -1.278396957874    -7.565595060256
C                     7.121276818216    -1.837927111876    -5.657460520852
C                     7.237706800866    -0.558846917431    -7.684027169007
C                     1.058486350510     4.415638741290    -5.511444605486
C                     6.261944009020    -1.424408533987    -6.866997145873
C                     4.951102534889    -0.713893321273    -6.523420851269
C                     3.958653981242    -1.596685842119    -5.758243696485
C                     2.655565069665    -0.880704429906    -5.392783468838
N                     0.705579201154    -0.616845872159    -8.322687345072
N                     1.186187447907    -1.271112161514    -7.337755658451
N                     1.126612894492     0.685039828026    -8.221665325305
N                     1.918916493321    -0.420926656664    -6.569509376388
N                    -0.792697036793     4.676892106711   -11.705548879281
O                     2.478152816385     1.863170420606    -6.667855590422
O                     2.153002609843     5.346477854061    -3.563638629576
O                    -2.161182901046     6.805990083290   -11.764380568435
O                    -3.256701570186     4.621973048017   -10.975559341952
O                     0.802805533332     5.752492963691    -5.965880250118
O                     2.864623771177     3.354864381982    -4.313450658373
S                    -2.130705892117     5.551704894517   -11.013596192389
H                     2.405940717414     2.949788821197    -8.865846296082
H                    -1.118606263375     0.596747129019    -9.628024587739
H                     1.555490877964     4.708982381161   -10.384922309970
H                    -1.944046732756     2.349727666978   -11.198798384011
H                     0.776751318736     7.649630412184    -7.681318977629
H                    -0.542362364680     7.675212923506    -9.821577492084
H                    -2.465782870452     4.014544508751    -8.638770131860
H                    -2.214300222465     3.538455001452    -5.955807584167
H                    -0.934737339027     2.683143087082    -6.800759171854
H                    -0.695522399936     4.420859254394    -4.296458286003
H                    -0.058655430809     2.797305894641    -4.585500810548
H                     8.654439608828    -3.169732195214    -6.455478191076
H                     9.315863734347    -1.826122549459    -5.539688661215
H                     9.432511113578    -0.569608826115    -7.565762433716
H                     8.752677203948    -1.944414976593    -8.420814056399
H                     6.724977518592    -2.704696453705    -5.119141546321
H                     7.156490682862    -1.001870903140    -4.946043727757
H                     7.293340402256     0.438654775860    -7.228932577037
H                     6.916024303169    -0.422891856780    -8.721923017287
H                     1.469181688604     3.851711172293    -6.353940276447
H                     6.029537850221    -2.327571398175    -7.451589312493
H                     5.170976089264     0.185525275476    -5.933061864869
H                     4.486018495377    -0.362775933912    -7.453457313338
H                     3.719345801126    -2.492524168738    -6.343458418926
H                     4.406437196280    -1.942180906829    -4.820039802219
H                     2.850932019948     0.010916502514    -4.791673162589
H                     1.985716453537    -1.536219466351    -4.831464346606
H                    -0.098450530738     5.370046465088   -11.983029368615
H                     2.745933968999     2.789070865347    -5.110036253354
