
  -OEChem-05262117483D

 66 70  0     1  0  0  0  0  0999 V2000
    1.4606    2.8158   -9.3780 C   0  0  0  0  0  0  0  0  0  0  0  0
   -0.5368    1.4946   -9.8051 C   0  0  0  0  0  0  0  0  0  0  0  0
    0.9815    3.7968  -10.2447 C   0  0  0  0  0  0  0  0  0  0  0  0
   -0.9927    2.4671  -10.6914 C   0  0  0  0  0  0  0  0  0  0  0  0
    0.0618    6.8658   -7.9124 C   0  0  0  0  0  0  0  0  0  0  0  0
   -0.6700    6.8795   -9.0938 C   0  0  0  0  0  0  0  0  0  0  0  0
   -1.7568    4.8068   -8.4200 C   0  0  0  0  0  0  0  0  0  0  0  0
   -1.0099    4.7675   -7.2420 C   0  0  0  0  0  0  0  0  0  0  0  0
    0.6845    1.6755   -9.1445 C   0  0  0  0  0  0  0  0  0  0  0  0
   -0.2499    3.6390  -10.8962 C   0  0  0  0  0  0  0  0  0  0  0  0
   -0.0617    5.7851   -7.0237 C   0  0  0  0  0  0  0  0  0  0  0  0
   -1.5574    5.8258   -9.3504 C   0  0  0  0  0  0  0  0  0  0  0  0
    1.9179    0.8463   -7.0967 C   0  0  0  0  0  0  0  0  0  0  0  0
    2.0788    4.4583   -4.3778 C   0  0  0  0  0  0  0  0  0  0  0  0
   -1.1684    3.6147   -6.2716 C   0  0  0  0  0  0  0  0  0  0  0  0
   -0.2507    3.7676   -5.0530 C   0  0  0  0  0  0  0  0  0  0  0  0
    8.5269   -2.1031   -6.2448 C   0  0  0  0  0  0  0  0  0  0  0  0
    8.5994   -1.2784   -7.5656 C   0  0  0  0  0  0  0  0  0  0  0  0
    7.1213   -1.8379   -5.6575 C   0  0  0  0  0  0  0  0  0  0  0  0
    7.2377   -0.5588   -7.6840 C   0  0  0  0  0  0  0  0  0  0  0  0
    1.0585    4.4156   -5.5114 C   0  0  1  0  0  0  0  0  0  0  0  0
    6.2619   -1.4244   -6.8670 C   0  0  0  0  0  0  0  0  0  0  0  0
    4.9511   -0.7139   -6.5234 C   0  0  0  0  0  0  0  0  0  0  0  0
    3.9587   -1.5967   -5.7582 C   0  0  0  0  0  0  0  0  0  0  0  0
    2.6556   -0.8807   -5.3928 C   0  0  0  0  0  0  0  0  0  0  0  0
    0.7056   -0.6168   -8.3227 N   0  0  0  0  0  0  0  0  0  0  0  0
    1.1862   -1.2711   -7.3378 N   0  0  0  0  0  0  0  0  0  0  0  0
    1.1266    0.6850   -8.2217 N   0  0  0  0  0  0  0  0  0  0  0  0
    1.9189   -0.4209   -6.5695 N   0  0  0  0  0  0  0  0  0  0  0  0
   -0.7927    4.6769  -11.7055 N   0  0  0  0  0  0  0  0  0  0  0  0
    2.4782    1.8632   -6.6679 O   0  0  0  0  0  0  0  0  0  0  0  0
    2.1530    5.3465   -3.5636 O   0  0  0  0  0  0  0  0  0  0  0  0
   -2.1612    6.8060  -11.7644 O   0  0  0  0  0  0  0  0  0  0  0  0
   -3.2567    4.6220  -10.9756 O   0  0  0  0  0  0  0  0  0  0  0  0
    0.8028    5.7525   -5.9659 O   0  0  0  0  0  0  0  0  0  0  0  0
    2.8646    3.3549   -4.3135 O   0  0  0  0  0  0  0  0  0  0  0  0
   -2.1307    5.5517  -11.0136 S   0  0  0  0  0  0  0  0  0  0  0  0
    2.4059    2.9498   -8.8658 H   0  0  0  0  0  0  0  0  0  0  0  0
   -1.1186    0.5967   -9.6280 H   0  0  0  0  0  0  0  0  0  0  0  0
    1.5555    4.7090  -10.3849 H   0  0  0  0  0  0  0  0  0  0  0  0
   -1.9440    2.3497  -11.1988 H   0  0  0  0  0  0  0  0  0  0  0  0
    0.7768    7.6496   -7.6813 H   0  0  0  0  0  0  0  0  0  0  0  0
   -0.5424    7.6752   -9.8216 H   0  0  0  0  0  0  0  0  0  0  0  0
   -2.4658    4.0145   -8.6388 H   0  0  0  0  0  0  0  0  0  0  0  0
   -2.2143    3.5385   -5.9558 H   0  0  0  0  0  0  0  0  0  0  0  0
   -0.9347    2.6831   -6.8008 H   0  0  0  0  0  0  0  0  0  0  0  0
   -0.6955    4.4209   -4.2965 H   0  0  0  0  0  0  0  0  0  0  0  0
   -0.0587    2.7973   -4.5855 H   0  0  0  0  0  0  0  0  0  0  0  0
    8.6544   -3.1697   -6.4555 H   0  0  0  0  0  0  0  0  0  0  0  0
    9.3159   -1.8261   -5.5397 H   0  0  0  0  0  0  0  0  0  0  0  0
    9.4325   -0.5696   -7.5658 H   0  0  0  0  0  0  0  0  0  0  0  0
    8.7527   -1.9444   -8.4208 H   0  0  0  0  0  0  0  0  0  0  0  0
    6.7250   -2.7047   -5.1191 H   0  0  0  0  0  0  0  0  0  0  0  0
    7.1565   -1.0019   -4.9460 H   0  0  0  0  0  0  0  0  0  0  0  0
    7.2933    0.4387   -7.2289 H   0  0  0  0  0  0  0  0  0  0  0  0
    6.9160   -0.4229   -8.7219 H   0  0  0  0  0  0  0  0  0  0  0  0
    1.4692    3.8517   -6.3539 H   0  0  0  0  0  0  0  0  0  0  0  0
    6.0295   -2.3276   -7.4516 H   0  0  0  0  0  0  0  0  0  0  0  0
    5.1710    0.1855   -5.9331 H   0  0  0  0  0  0  0  0  0  0  0  0
    4.4860   -0.3628   -7.4535 H   0  0  0  0  0  0  0  0  0  0  0  0
    3.7193   -2.4925   -6.3435 H   0  0  0  0  0  0  0  0  0  0  0  0
    4.4064   -1.9422   -4.8200 H   0  0  0  0  0  0  0  0  0  0  0  0
    2.8509    0.0109   -4.7917 H   0  0  0  0  0  0  0  0  0  0  0  0
    1.9857   -1.5362   -4.8315 H   0  0  0  0  0  0  0  0  0  0  0  0
   -0.0985    5.3700  -11.9830 H   0  0  0  0  0  0  0  0  0  0  0  0
    2.7459    2.7891   -5.1100 H   0  0  0  0  0  0  0  0  0  0  0  0
  1  3  1  0  0  0  0
  1  9  2  0  0  0  0
  1 38  1  0  0  0  0
  2  4  2  0  0  0  0
  2  9  1  0  0  0  0
  2 39  1  0  0  0  0
  3 10  2  0  0  0  0
  3 40  1  0  0  0  0
  4 10  1  0  0  0  0
  4 41  1  0  0  0  0
  5  6  2  0  0  0  0
  5 11  1  0  0  0  0
  5 42  1  0  0  0  0
  6 12  1  0  0  0  0
  6 43  1  0  0  0  0
  7  8  1  0  0  0  0
  7 12  2  0  0  0  0
  7 44  1  0  0  0  0
  8 11  2  0  0  0  0
  8 15  1  0  0  0  0
  9 28  1  0  0  0  0
 10 30  1  0  0  0  0
 11 35  1  0  0  0  0
 12 37  1  0  0  0  0
 13 28  1  0  0  0  0
 13 29  1  0  0  0  0
 13 31  2  0  0  0  0
 14 21  1  0  0  0  0
 14 32  2  0  0  0  0
 14 36  1  0  0  0  0
 15 16  1  0  0  0  0
 15 45  1  0  0  0  0
 15 46  1  0  0  0  0
 16 21  1  0  0  0  0
 16 47  1  0  0  0  0
 16 48  1  0  0  0  0
 17 18  1  0  0  0  0
 17 19  1  0  0  0  0
 17 49  1  0  0  0  0
 17 50  1  0  0  0  0
 18 20  1  0  0  0  0
 18 51  1  0  0  0  0
 18 52  1  0  0  0  0
 19 22  1  0  0  0  0
 19 53  1  0  0  0  0
 19 54  1  0  0  0  0
 20 22  1  0  0  0  0
 20 55  1  0  0  0  0
 20 56  1  0  0  0  0
 21 35  1  0  0  0  0
 21 57  1  0  0  0  0
 22 23  1  0  0  0  0
 22 58  1  0  0  0  0
 23 24  1  0  0  0  0
 23 59  1  0  0  0  0
 23 60  1  0  0  0  0
 24 25  1  0  0  0  0
 24 61  1  0  0  0  0
 24 62  1  0  0  0  0
 25 29  1  0  0  0  0
 25 63  1  0  0  0  0
 25 64  1  0  0  0  0
 26 27  2  0  0  0  0
 26 28  1  0  0  0  0
 27 29  1  0  0  0  0
 30 37  1  0  0  0  0
 30 65  1  0  0  0  0
 33 37  2  0  0  0  0
 34 37  2  0  0  0  0
 36 66  1  0  0  0  0
M  END
$$$$
