
  -OEChem-05262117483D

 66 70  0     1  0  0  0  0  0999 V2000
    2.4839    3.8526   -8.8699 C   0  0  0  0  0  0  0  0  0  0  0  0
    1.0037    2.2707   -9.9785 C   0  0  0  0  0  0  0  0  0  0  0  0
    2.0044    4.8680   -9.6998 C   0  0  0  0  0  0  0  0  0  0  0  0
    0.5459    3.2879  -10.8062 C   0  0  0  0  0  0  0  0  0  0  0  0
    2.4106    1.9857  -13.7340 C   0  0  0  0  0  0  0  0  0  0  0  0
    2.0576    3.3244  -13.8588 C   0  0  0  0  0  0  0  0  0  0  0  0
    3.7521    3.9031  -12.2127 C   0  0  0  0  0  0  0  0  0  0  0  0
    4.1056    2.5614  -12.0650 C   0  0  0  0  0  0  0  0  0  0  0  0
    2.0046    2.5474   -9.0377 C   0  0  0  0  0  0  0  0  0  0  0  0
    1.0691    4.5852  -10.7024 C   0  0  0  0  0  0  0  0  0  0  0  0
    3.3862    1.6019  -12.7997 C   0  0  0  0  0  0  0  0  0  0  0  0
    2.7173    4.2748  -13.0686 C   0  0  0  0  0  0  0  0  0  0  0  0
    3.5529    1.4881   -7.3099 C   0  0  0  0  0  0  0  0  0  0  0  0
    4.4719   -1.6145  -11.4391 C   0  0  0  0  0  0  0  0  0  0  0  0
    5.2027    2.1548  -11.1064 C   0  0  0  0  0  0  0  0  0  0  0  0
    5.5284    0.6660  -11.2372 C   0  0  0  0  0  0  0  0  0  0  0  0
    8.8400   -4.0676   -8.5316 C   0  0  0  0  0  0  0  0  0  0  0  0
    8.8585   -3.2705   -9.8698 C   0  0  0  0  0  0  0  0  0  0  0  0
    8.0105   -3.2141   -7.5498 C   0  0  0  0  0  0  0  0  0  0  0  0
    7.9239   -2.0554   -9.6535 C   0  0  0  0  0  0  0  0  0  0  0  0
    4.2180   -0.1056  -11.4043 C   0  0  1  0  0  0  0  0  0  0  0  0
    7.0369   -2.4367   -8.4535 C   0  0  0  0  0  0  0  0  0  0  0  0
    6.3482   -1.2447   -7.7865 C   0  0  0  0  0  0  0  0  0  0  0  0
    5.4155   -1.6396   -6.6371 C   0  0  0  0  0  0  0  0  0  0  0  0
    4.6070   -0.4690   -6.0749 C   0  0  0  0  0  0  0  0  0  0  0  0
    2.2158    0.1799   -8.5971 N   0  0  0  0  0  0  0  0  0  0  0  0
    2.9084   -0.6102   -7.8640 N   0  0  0  0  0  0  0  0  0  0  0  0
    2.5597    1.4662   -8.2966 N   0  0  0  0  0  0  0  0  0  0  0  0
    3.7217    0.1307   -7.0753 N   0  0  0  0  0  0  0  0  0  0  0  0
    0.7484    5.5759  -11.6746 N   0  0  0  0  0  0  0  0  0  0  0  0
    4.1341    2.4312   -6.7931 O   0  0  0  0  0  0  0  0  0  0  0  0
    5.0060   -2.1728  -12.3652 O   0  0  0  0  0  0  0  0  0  0  0  0
    1.2771    6.3223  -14.0392 O   0  0  0  0  0  0  0  0  0  0  0  0
    2.9949    6.7390  -12.1797 O   0  0  0  0  0  0  0  0  0  0  0  0
    3.5842    0.2563  -12.6390 O   0  0  0  0  0  0  0  0  0  0  0  0
    4.1279   -2.2952  -10.3141 O   0  0  0  0  0  0  0  0  0  0  0  0
    2.0050    5.8950  -12.8437 S   0  0  0  0  0  0  0  0  0  0  0  0
    3.2338    4.0651   -8.1183 H   0  0  0  0  0  0  0  0  0  0  0  0
    0.6250    1.2622  -10.0906 H   0  0  0  0  0  0  0  0  0  0  0  0
    2.3948    5.8766   -9.6116 H   0  0  0  0  0  0  0  0  0  0  0  0
   -0.1818    3.0570  -11.5795 H   0  0  0  0  0  0  0  0  0  0  0  0
    1.9120    1.2147  -14.3136 H   0  0  0  0  0  0  0  0  0  0  0  0
    1.2674    3.6309  -14.5378 H   0  0  0  0  0  0  0  0  0  0  0  0
    4.2601    4.6642  -11.6291 H   0  0  0  0  0  0  0  0  0  0  0  0
    6.0980    2.7562  -11.2943 H   0  0  0  0  0  0  0  0  0  0  0  0
    4.8878    2.3841  -10.0808 H   0  0  0  0  0  0  0  0  0  0  0  0
    6.1413    0.4644  -12.1207 H   0  0  0  0  0  0  0  0  0  0  0  0
    6.0804    0.3113  -10.3644 H   0  0  0  0  0  0  0  0  0  0  0  0
    8.3566   -5.0389   -8.6782 H   0  0  0  0  0  0  0  0  0  0  0  0
    9.8454   -4.2691   -8.1500 H   0  0  0  0  0  0  0  0  0  0  0  0
    9.8689   -2.9516  -10.1417 H   0  0  0  0  0  0  0  0  0  0  0  0
    8.4921   -3.8924  -10.6916 H   0  0  0  0  0  0  0  0  0  0  0  0
    7.5076   -3.8209   -6.7897 H   0  0  0  0  0  0  0  0  0  0  0  0
    8.6582   -2.4999   -7.0224 H   0  0  0  0  0  0  0  0  0  0  0  0
    8.5112   -1.1632   -9.3974 H   0  0  0  0  0  0  0  0  0  0  0  0
    7.3418   -1.8196  -10.5488 H   0  0  0  0  0  0  0  0  0  0  0  0
    3.5259    0.1470  -10.5932 H   0  0  0  0  0  0  0  0  0  0  0  0
    6.2615   -3.1279   -8.8103 H   0  0  0  0  0  0  0  0  0  0  0  0
    7.1064   -0.5393   -7.4191 H   0  0  0  0  0  0  0  0  0  0  0  0
    5.7686   -0.7016   -8.5419 H   0  0  0  0  0  0  0  0  0  0  0  0
    4.7295   -2.4276   -6.9658 H   0  0  0  0  0  0  0  0  0  0  0  0
    5.9940   -2.0574   -5.8065 H   0  0  0  0  0  0  0  0  0  0  0  0
    5.2531    0.3473   -5.7427 H   0  0  0  0  0  0  0  0  0  0  0  0
    3.9958   -0.7865   -5.2240 H   0  0  0  0  0  0  0  0  0  0  0  0
   -0.0898    5.3491  -12.2087 H   0  0  0  0  0  0  0  0  0  0  0  0
    3.6503   -1.7345   -9.6722 H   0  0  0  0  0  0  0  0  0  0  0  0
  1  3  1  0  0  0  0
  1  9  2  0  0  0  0
  1 38  1  0  0  0  0
  2  4  2  0  0  0  0
  2  9  1  0  0  0  0
  2 39  1  0  0  0  0
  3 10  2  0  0  0  0
  3 40  1  0  0  0  0
  4 10  1  0  0  0  0
  4 41  1  0  0  0  0
  5  6  2  0  0  0  0
  5 11  1  0  0  0  0
  5 42  1  0  0  0  0
  6 12  1  0  0  0  0
  6 43  1  0  0  0  0
  7  8  1  0  0  0  0
  7 12  2  0  0  0  0
  7 44  1  0  0  0  0
  8 11  2  0  0  0  0
  8 15  1  0  0  0  0
  9 28  1  0  0  0  0
 10 30  1  0  0  0  0
 11 35  1  0  0  0  0
 12 37  1  0  0  0  0
 13 28  1  0  0  0  0
 13 29  1  0  0  0  0
 13 31  2  0  0  0  0
 14 21  1  0  0  0  0
 14 32  2  0  0  0  0
 14 36  1  0  0  0  0
 15 16  1  0  0  0  0
 15 45  1  0  0  0  0
 15 46  1  0  0  0  0
 16 21  1  0  0  0  0
 16 47  1  0  0  0  0
 16 48  1  0  0  0  0
 17 18  1  0  0  0  0
 17 19  1  0  0  0  0
 17 49  1  0  0  0  0
 17 50  1  0  0  0  0
 18 20  1  0  0  0  0
 18 51  1  0  0  0  0
 18 52  1  0  0  0  0
 19 22  1  0  0  0  0
 19 53  1  0  0  0  0
 19 54  1  0  0  0  0
 20 22  1  0  0  0  0
 20 55  1  0  0  0  0
 20 56  1  0  0  0  0
 21 35  1  0  0  0  0
 21 57  1  0  0  0  0
 22 23  1  0  0  0  0
 22 58  1  0  0  0  0
 23 24  1  0  0  0  0
 23 59  1  0  0  0  0
 23 60  1  0  0  0  0
 24 25  1  0  0  0  0
 24 61  1  0  0  0  0
 24 62  1  0  0  0  0
 25 29  1  0  0  0  0
 25 63  1  0  0  0  0
 25 64  1  0  0  0  0
 26 27  2  0  0  0  0
 26 28  1  0  0  0  0
 27 29  1  0  0  0  0
 30 37  1  0  0  0  0
 30 65  1  0  0  0  0
 33 37  2  0  0  0  0
 34 37  2  0  0  0  0
 36 66  1  0  0  0  0
M  END
$$$$
