49
0 1 C21H21NO6
C                     0.074687886302     0.315002836644    -0.564612546562
C                     3.278174665918    -5.160110197258     4.333218364125
C                     2.218396038201    -4.849251056303     3.473408766262
C                     0.309943828425    -0.437302992676     1.760141057051
C                    -0.173262117504    -2.060453473943     0.002329628585
C                     0.075331577461    -0.741256244029     0.409421920762
C                     1.148880798520    -3.607723927904     5.288244823085
C                     0.321238274595    -1.451033217491     2.721695266161
C                     3.298156318017    -4.709746163796     5.650128590678
C                     1.177340853803    -4.084004378217     3.968659351726
C                     0.097934508872    -2.766462811500     2.302849456000
C                    -0.167677599273    -3.074305779941     0.957858382553
C                     2.226222368059    -3.926545931730     6.136291398940
C                    -0.092737390693    -2.876565898502     5.709156625744
C                     0.585132223714    -1.105052955488     4.168394098955
C                     7.488559246421    -2.719906980571     7.580360935387
C                     6.126917887212    -4.209406237675     9.099103456504
C                     1.679874812140    -2.391384174204     7.963303627585
C                     5.394322485503    -3.790848675633     6.686923835028
C                     4.468426263596    -5.015499707770     6.562460090345
C                     6.580940720702    -3.956680483627     7.653552414372
N                     0.079198693389     1.175734763926    -1.350265583793
O                    -0.857031835556    -3.282625141512     6.554580546427
O                     0.045111198312    -3.847700903346     3.171104346429
O                    -0.365189389459    -1.699268791779     5.076407925342
O                    -0.409402007824    -4.358983372791     0.580842702661
O                     5.163824010549    -6.141704384379     6.009370515132
O                     2.358287981503    -3.537832562049     7.436689534361
H                     4.102914890972    -5.772083035237     3.986197078254
H                     2.192040361932    -5.210413602984     2.449786637140
H                     0.472349436236     0.594710442355     2.055592335667
H                    -0.369071285307    -2.302927641933    -1.036711242760
H                     1.603455791387    -1.379890500994     4.457429278520
H                     0.470850383033    -0.028954253880     4.309193364212
H                     6.946867841402    -1.821789149031     7.901508403173
H                     8.363153838587    -2.831311430752     8.230348467153
H                     7.846158472518    -2.547542426993     6.559454284412
H                     5.499958538956    -3.383691448120     9.456471749667
H                     5.545268221056    -5.131135839936     9.201898288720
H                     6.988887808703    -4.289060674354     9.770044744196
H                     2.267333066035    -2.080700751834     8.829038263922
H                     0.662443511330    -2.639004151351     8.268598613047
H                     1.660468465630    -1.574626820211     7.232933770595
H                     4.792543447430    -2.935420786785     7.013554028518
H                     5.769823004039    -3.559818795631     5.682699564413
H                     4.070528954632    -5.276705743582     7.549530266744
H                     7.185525890272    -4.815906441361     7.325572072856
H                    -0.423190699026    -4.901646527089     1.391568198467
H                     5.894248917843    -6.360637918941     6.607514201019
