
  -OEChem-05262117483D

 53 56  0     1  0  0  0  0  0999 V2000
   -1.8252    1.1340   -0.1810 C   0  0  0  0  0  0  0  0  0  0  0  0
   -2.9174    0.2662   -0.1578 C   0  0  0  0  0  0  0  0  0  0  0  0
    1.3081   -5.1333   -1.2353 C   0  0  0  0  0  0  0  0  0  0  0  0
    0.4680   -3.1853   -2.4286 C   0  0  0  0  0  0  0  0  0  0  0  0
   -0.0023   -5.5704   -1.0280 C   0  0  0  0  0  0  0  0  0  0  0  0
   -0.8409   -3.6118   -2.2142 C   0  0  0  0  0  0  0  0  0  0  0  0
   -1.4841   -1.6349    0.4516 C   0  0  0  0  0  0  0  0  0  0  0  0
   -0.3732   -0.7717    0.4207 C   0  0  0  0  0  0  0  0  0  0  0  0
    1.0359   -0.9602    0.6269 C   0  0  0  0  0  0  0  0  0  0  0  0
   -0.5623    0.6079    0.1106 C   0  0  0  0  0  0  0  0  0  0  0  0
   -2.7215   -1.0885    0.1565 C   0  0  0  0  0  0  0  0  0  0  0  0
    1.5301   -3.9399   -1.9227 C   0  0  0  0  0  0  0  0  0  0  0  0
   -1.0638   -4.7991   -1.5087 C   0  0  0  0  0  0  0  0  0  0  0  0
    1.6417    0.2661    0.4440 C   0  0  0  0  0  0  0  0  0  0  0  0
    1.3158    4.1241   -2.2475 C   0  0  0  0  0  0  0  0  0  0  0  0
    1.8172   -2.2083    0.9159 C   0  0  0  0  0  0  0  0  0  0  0  0
    3.1186    0.5208    0.4943 C   0  0  0  0  0  0  0  0  0  0  0  0
    3.8726   -0.7578    0.9298 C   0  0  0  0  0  0  0  0  0  0  0  0
    3.2465   -2.0429    0.3573 C   0  0  2  0  0  0  0  0  0  0  0  0
    1.6222    5.5337   -4.1219 C   0  0  0  0  0  0  0  0  0  0  0  0
    1.0628    2.6998   -1.8011 C   0  0  0  0  0  0  0  0  0  0  0  0
    0.9434    2.5921   -0.2762 C   0  0  0  0  0  0  0  0  0  0  0  0
    0.6814    1.2293    0.1521 N   0  0  0  0  0  0  0  0  0  0  0  0
    3.3045   -1.9470   -1.1168 N   0  0  0  0  0  0  0  0  0  0  0  0
    1.4544    5.0739   -1.4990 O   0  0  0  0  0  0  0  0  0  0  0  0
    4.1077   -4.3066   -1.5147 O   0  0  0  0  0  0  0  0  0  0  0  0
    3.3454   -2.8020   -3.4560 O   0  0  0  0  0  0  0  0  0  0  0  0
    1.3731    4.2112   -3.5935 O   0  0  0  0  0  0  0  0  0  0  0  0
   -3.8159   -1.9018    0.1641 F   0  0  0  0  0  0  0  0  0  0  0  0
    3.2062   -3.3081   -2.0904 S   0  0  0  0  0  0  0  0  0  0  0  0
   -2.7071   -5.3169   -1.2099 Cl  0  0  0  0  0  0  0  0  0  0  0  0
   -1.9684    2.1840   -0.4201 H   0  0  0  0  0  0  0  0  0  0  0  0
   -3.9208    0.6174   -0.3764 H   0  0  0  0  0  0  0  0  0  0  0  0
    2.1523   -5.7027   -0.8598 H   0  0  0  0  0  0  0  0  0  0  0  0
    0.6560   -2.2697   -2.9810 H   0  0  0  0  0  0  0  0  0  0  0  0
   -0.1984   -6.4942   -0.4931 H   0  0  0  0  0  0  0  0  0  0  0  0
   -1.6797   -3.0273   -2.5763 H   0  0  0  0  0  0  0  0  0  0  0  0
   -1.3960   -2.6898    0.6895 H   0  0  0  0  0  0  0  0  0  0  0  0
    1.8872   -2.3984    1.9952 H   0  0  0  0  0  0  0  0  0  0  0  0
    1.3270   -3.0824    0.4838 H   0  0  0  0  0  0  0  0  0  0  0  0
    3.4818    0.8510   -0.4890 H   0  0  0  0  0  0  0  0  0  0  0  0
    3.3575    1.3358    1.1878 H   0  0  0  0  0  0  0  0  0  0  0  0
    4.9187   -0.6904    0.6212 H   0  0  0  0  0  0  0  0  0  0  0  0
    3.8507   -0.8368    2.0219 H   0  0  0  0  0  0  0  0  0  0  0  0
    3.8665   -2.8982    0.6336 H   0  0  0  0  0  0  0  0  0  0  0  0
    1.6378    5.4137   -5.2046 H   0  0  0  0  0  0  0  0  0  0  0  0
    2.5811    5.9117   -3.7607 H   0  0  0  0  0  0  0  0  0  0  0  0
    0.8269    6.2186   -3.8197 H   0  0  0  0  0  0  0  0  0  0  0  0
    1.8809    2.0724   -2.1718 H   0  0  0  0  0  0  0  0  0  0  0  0
    0.1549    2.3320   -2.2900 H   0  0  0  0  0  0  0  0  0  0  0  0
    1.8602    2.9450    0.1983 H   0  0  0  0  0  0  0  0  0  0  0  0
    0.1422    3.2398    0.0868 H   0  0  0  0  0  0  0  0  0  0  0  0
    2.7146   -1.2118   -1.5032 H   0  0  0  0  0  0  0  0  0  0  0  0
  1  2  1  0  0  0  0
  1 10  2  0  0  0  0
  1 32  1  0  0  0  0
  2 11  2  0  0  0  0
  2 33  1  0  0  0  0
  3  5  2  0  0  0  0
  3 12  1  0  0  0  0
  3 34  1  0  0  0  0
  4  6  1  0  0  0  0
  4 12  2  0  0  0  0
  4 35  1  0  0  0  0
  5 13  1  0  0  0  0
  5 36  1  0  0  0  0
  6 13  2  0  0  0  0
  6 37  1  0  0  0  0
  7  8  2  0  0  0  0
  7 11  1  0  0  0  0
  7 38  1  0  0  0  0
  8  9  1  0  0  0  0
  8 10  1  0  0  0  0
  9 14  2  0  0  0  0
  9 16  1  0  0  0  0
 10 23  1  0  0  0  0
 11 29  1  0  0  0  0
 12 30  1  0  0  0  0
 13 31  1  0  0  0  0
 14 17  1  0  0  0  0
 14 23  1  0  0  0  0
 15 21  1  0  0  0  0
 15 25  2  0  0  0  0
 15 28  1  0  0  0  0
 16 19  1  0  0  0  0
 16 39  1  0  0  0  0
 16 40  1  0  0  0  0
 17 18  1  0  0  0  0
 17 41  1  0  0  0  0
 17 42  1  0  0  0  0
 18 19  1  0  0  0  0
 18 43  1  0  0  0  0
 18 44  1  0  0  0  0
 19 24  1  0  0  0  0
 19 45  1  0  0  0  0
 20 28  1  0  0  0  0
 20 46  1  0  0  0  0
 20 47  1  0  0  0  0
 20 48  1  0  0  0  0
 21 22  1  0  0  0  0
 21 49  1  0  0  0  0
 21 50  1  0  0  0  0
 22 23  1  0  0  0  0
 22 51  1  0  0  0  0
 22 52  1  0  0  0  0
 24 30  1  0  0  0  0
 24 53  1  0  0  0  0
 26 30  2  0  0  0  0
 27 30  2  0  0  0  0
M  END
$$$$
