49
0 1 C20H22O6S
C                    -2.845291890484     1.909615298950     1.860774623703
C                     3.393970630769    -0.464574484193    -0.255764406010
C                    -1.874561769707     0.923563153670     1.656475437276
C                     2.129946999079    -0.592086792328     0.326882886191
C                    -3.460443009124     1.770993809587    -0.461222030144
C                     1.142411157319    -0.656489913161    -1.895874556495
C                    -2.500416471120     0.789554237463    -0.695914144533
C                    -3.658503942377     2.340079586363     0.809292245790
C                     3.557283634617    -0.444174840307    -1.643137890814
C                     2.419159172545    -0.575680330258    -2.462536913317
C                     1.011213749049    -0.658050054581    -0.495190026424
C                    -1.703210267689     0.368014005115     0.391251605214
C                    -0.103537066755    -0.639670973331    -2.730345419101
C                    -2.268115290496     0.272550727357    -2.097637375384
C                    -4.710734222317     3.403648207722     1.010456544086
C                     5.378374978828     2.009242883849    -1.090416120220
C                     4.399419480950     1.976502213566    -3.424287367796
C                     2.597213444785    -1.853921831742    -4.447266382563
C                     4.926595528622    -0.242151459852    -2.256129326130
C                     5.309690925487     1.253718344729    -2.423251633297
O                    -0.427600666104    -1.397039107643    -3.612876314734
O                    -0.248517710410    -1.398803971850     1.691554504611
O                    -1.236525176067    -2.046714430147    -0.580430473614
O                    -0.843520300919     0.412723166332    -2.284637541831
O                     5.867266214205    -0.926703285946    -1.414272668402
O                     2.557644991456    -0.548068789465    -3.831571714259
S                    -0.583240589815    -1.061898575125     0.298661378703
H                    -2.971215381086     2.335512421902     2.852983327779
H                     4.275995135561    -0.409839817298     0.372353713335
H                    -1.269615452567     0.561564681624     2.480978569772
H                     2.011944423470    -0.665112501260     1.402437191452
H                    -4.066532026242     2.117853754618    -1.296323793696
H                    -2.546328632057    -0.776262396036    -2.216657717523
H                    -2.793116784963     0.882470871061    -2.835791889527
H                    -4.478762835514     4.299372914703     0.423383393615
H                    -5.695279387320     3.049019666066     0.687381929318
H                    -4.784910928725     3.699394010498     2.059904246208
H                     4.380768984709     2.142255962630    -0.659687556417
H                     5.997471679794     1.482300129243    -0.358340751539
H                     5.806998496854     3.005076213689    -1.244750685462
H                     3.378266598528     2.061966232835    -3.039287763780
H                     4.772345377728     2.989919059637    -3.606217863104
H                     4.346409550754     1.450846851861    -4.381574948060
H                     2.750193199949    -1.675618274703    -5.512968752271
H                     1.653056825493    -2.379698914789    -4.288600353682
H                     3.431918865189    -2.440631696766    -4.044937510798
H                     4.931923083691    -0.691890873702    -3.255667774879
H                     6.323278076660     1.236696306685    -2.854552274708
H                     6.754960350092    -0.750435346633    -1.764436653058
