
  -OEChem-05262117483D

 50 51  0     1  0  0  0  0  0999 V2000
    0.4159    2.4289   -1.2681 C   0  0  0  0  0  0  0  0  0  0  0  0
   -0.3498    2.2349    1.7243 C   0  0  0  0  0  0  0  0  0  0  0  0
   -0.5516    0.1567   -0.6177 C   0  0  0  0  0  0  0  0  0  0  0  0
   -0.2534   -1.1912    0.0266 C   0  0  0  0  0  0  0  0  0  0  0  0
    2.0696   -0.8994   -0.0306 C   0  0  0  0  0  0  0  0  0  0  0  0
    1.9545    0.5190   -0.6129 C   0  0  1  0  0  0  0  0  0  0  0  0
    0.5777    1.1772   -0.3660 C   0  0  1  0  0  0  0  0  0  0  0  0
    1.5132    4.0224   -3.5796 C   0  0  0  0  0  0  0  0  0  0  0  0
    0.3602    2.2123   -4.9035 C   0  0  0  0  0  0  0  0  0  0  0  0
   -1.0247    3.8109   -3.5318 C   0  0  0  0  0  0  0  0  0  0  0  0
   -1.8611    2.9474    4.2934 C   0  0  0  0  0  0  0  0  0  0  0  0
    0.3502    4.0718    4.7710 C   0  0  0  0  0  0  0  0  0  0  0  0
   -1.0566    4.8799    2.8386 C   0  0  0  0  0  0  0  0  0  0  0  0
    0.3125    3.0767   -3.6443 C   0  0  0  0  0  0  0  0  0  0  0  0
   -0.6586    3.6766    3.6940 C   0  0  0  0  0  0  0  0  0  0  0  0
    0.6968    1.6046    1.0298 N   0  0  0  0  0  0  0  0  0  0  0  0
    0.3199    3.5542   -0.8304 O   0  0  0  0  0  0  0  0  0  0  0  0
   -1.4973    2.2470    1.3232 O   0  0  0  0  0  0  0  0  0  0  0  0
    2.7580    1.1192    2.5409 O   0  0  0  0  0  0  0  0  0  0  0  0
    2.6334    3.4000    1.4769 O   0  0  0  0  0  0  0  0  0  0  0  0
    0.9882   -1.7149   -0.4526 O   0  0  0  0  0  0  0  0  0  0  0  0
    2.9190    1.4010    0.0174 O   0  0  0  0  0  0  0  0  0  0  0  0
    0.4187    2.0654   -2.5577 O   0  0  0  0  0  0  0  0  0  0  0  0
    0.1312    2.7299    2.8640 O   0  0  0  0  0  0  0  0  0  0  0  0
    2.3440    1.9823    1.4495 S   0  0  0  0  0  0  0  0  0  0  0  0
   -0.6212    0.0192   -1.6994 H   0  0  0  0  0  0  0  0  0  0  0  0
   -1.4959    0.5672   -0.2590 H   0  0  0  0  0  0  0  0  0  0  0  0
   -0.2285   -1.1120    1.1227 H   0  0  0  0  0  0  0  0  0  0  0  0
   -1.0193   -1.9190   -0.2505 H   0  0  0  0  0  0  0  0  0  0  0  0
    2.9886   -1.3628   -0.3957 H   0  0  0  0  0  0  0  0  0  0  0  0
    2.1173   -0.8535    1.0642 H   0  0  0  0  0  0  0  0  0  0  0  0
    2.1898    0.5296   -1.6758 H   0  0  0  0  0  0  0  0  0  0  0  0
    1.4890    4.6422   -2.6830 H   0  0  0  0  0  0  0  0  0  0  0  0
    2.4488    3.4546   -3.5929 H   0  0  0  0  0  0  0  0  0  0  0  0
    1.5009    4.6767   -4.4571 H   0  0  0  0  0  0  0  0  0  0  0  0
   -0.4737    1.5044   -4.9193 H   0  0  0  0  0  0  0  0  0  0  0  0
    1.2961    1.6478   -4.9508 H   0  0  0  0  0  0  0  0  0  0  0  0
    0.2935    2.8461   -5.7924 H   0  0  0  0  0  0  0  0  0  0  0  0
   -1.8518    3.0950   -3.4984 H   0  0  0  0  0  0  0  0  0  0  0  0
   -1.0637    4.4393   -2.6418 H   0  0  0  0  0  0  0  0  0  0  0  0
   -1.1599    4.4450   -4.4139 H   0  0  0  0  0  0  0  0  0  0  0  0
   -2.5720    2.6519    3.5208 H   0  0  0  0  0  0  0  0  0  0  0  0
   -1.5338    2.0561    4.8376 H   0  0  0  0  0  0  0  0  0  0  0  0
   -2.3677    3.6119    5.0008 H   0  0  0  0  0  0  0  0  0  0  0  0
    1.2279    4.5404    4.3183 H   0  0  0  0  0  0  0  0  0  0  0  0
    0.6786    3.1922    5.3316 H   0  0  0  0  0  0  0  0  0  0  0  0
   -0.1102    4.7793    5.4668 H   0  0  0  0  0  0  0  0  0  0  0  0
   -0.1748    5.3052    2.3514 H   0  0  0  0  0  0  0  0  0  0  0  0
   -1.7845    4.6061    2.0736 H   0  0  0  0  0  0  0  0  0  0  0  0
   -1.4998    5.6450    3.4839 H   0  0  0  0  0  0  0  0  0  0  0  0
  1  7  1  0  0  0  0
  1 17  2  0  0  0  0
  1 23  1  0  0  0  0
  2 16  1  0  0  0  0
  2 18  2  0  0  0  0
  2 24  1  0  0  0  0
  3  4  1  0  0  0  0
  3  7  1  0  0  0  0
  3 26  1  0  0  0  0
  3 27  1  0  0  0  0
  4 21  1  0  0  0  0
  4 28  1  0  0  0  0
  4 29  1  0  0  0  0
  5  6  1  0  0  0  0
  5 21  1  0  0  0  0
  5 30  1  0  0  0  0
  5 31  1  0  0  0  0
  6  7  1  0  0  0  0
  6 22  1  0  0  0  0
  6 32  1  0  0  0  0
  7 16  1  0  0  0  0
  8 14  1  0  0  0  0
  8 33  1  0  0  0  0
  8 34  1  0  0  0  0
  8 35  1  0  0  0  0
  9 14  1  0  0  0  0
  9 36  1  0  0  0  0
  9 37  1  0  0  0  0
  9 38  1  0  0  0  0
 10 14  1  0  0  0  0
 10 39  1  0  0  0  0
 10 40  1  0  0  0  0
 10 41  1  0  0  0  0
 11 15  1  0  0  0  0
 11 42  1  0  0  0  0
 11 43  1  0  0  0  0
 11 44  1  0  0  0  0
 12 15  1  0  0  0  0
 12 45  1  0  0  0  0
 12 46  1  0  0  0  0
 12 47  1  0  0  0  0
 13 15  1  0  0  0  0
 13 48  1  0  0  0  0
 13 49  1  0  0  0  0
 13 50  1  0  0  0  0
 14 23  1  0  0  0  0
 15 24  1  0  0  0  0
 16 25  1  0  0  0  0
 19 25  2  0  0  0  0
 20 25  2  0  0  0  0
 22 25  1  0  0  0  0
M  END
$$$$
