
  -OEChem-05262117483D

 67 70  0     1  0  0  0  0  0999 V2000
    8.4967   -5.0600    0.4358 C   0  0  0  0  0  0  0  0  0  0  0  0
    7.3086   -4.3310    0.5129 C   0  0  0  0  0  0  0  0  0  0  0  0
    4.7612   -2.6725   -1.6216 C   0  0  0  0  0  0  0  0  0  0  0  0
    5.2404   -2.1245    0.6748 C   0  0  0  0  0  0  0  0  0  0  0  0
    3.5844   -1.9275   -1.5533 C   0  0  0  0  0  0  0  0  0  0  0  0
    4.0624   -1.3899    0.7482 C   0  0  0  0  0  0  0  0  0  0  0  0
    9.2830   -5.0381   -0.7175 C   0  0  0  0  0  0  0  0  0  0  0  0
    7.6473   -3.5707   -1.7522 C   0  0  0  0  0  0  0  0  0  0  0  0
    2.2002    0.8075   -2.4063 C   0  0  0  0  0  0  0  0  0  0  0  0
   -0.5123    0.5376   -2.9547 C   0  0  0  0  0  0  0  0  0  0  0  0
    5.6153   -2.7830   -0.5123 C   0  0  0  0  0  0  0  0  0  0  0  0
    6.8717   -3.5658   -0.5819 C   0  0  0  0  0  0  0  0  0  0  0  0
    3.2145   -1.2711   -0.3675 C   0  0  0  0  0  0  0  0  0  0  0  0
    1.3739    0.0818   -1.5307 C   0  0  0  0  0  0  0  0  0  0  0  0
    0.0053   -0.0534   -1.7981 C   0  0  0  0  0  0  0  0  0  0  0  0
    8.8446   -4.2931   -1.8222 C   0  0  0  0  0  0  0  0  0  0  0  0
    1.6705    1.4212   -3.5420 C   0  0  0  0  0  0  0  0  0  0  0  0
    0.2925    1.2686   -3.8267 C   0  0  0  0  0  0  0  0  0  0  0  0
    1.9513   -0.4938   -0.2902 C   0  0  0  0  0  0  0  0  0  0  0  0
    0.1705    1.2722    2.0925 C   0  0  0  0  0  0  0  0  0  0  0  0
   -0.8471   -0.8486   -0.8465 C   0  0  0  0  0  0  0  0  0  0  0  0
   -1.0258   -0.1613    0.5145 C   0  0  1  0  0  0  0  0  0  0  0  0
   -1.6103   -1.1326    1.5473 C   0  0  0  0  0  0  0  0  0  0  0  0
    1.3523    2.2020    4.0173 C   0  0  0  0  0  0  0  0  0  0  0  0
    3.7646    2.4261   -4.1110 C   0  0  0  0  0  0  0  0  0  0  0  0
    0.1338    1.4200   -6.1982 C   0  0  0  0  0  0  0  0  0  0  0  0
    8.5892   -6.5764   -4.0813 C   0  0  0  0  0  0  0  0  0  0  0  0
    1.4364   -0.3406    0.8908 N   0  0  0  0  0  0  0  0  0  0  0  0
    0.2572    0.4333    0.9688 N   0  0  0  0  0  0  0  0  0  0  0  0
    9.6301   -4.2266   -3.0098 N   0  0  0  0  0  0  0  0  0  0  0  0
    1.3555    1.4871    2.7496 N   0  0  0  0  0  0  0  0  0  0  0  0
   -0.8896    1.8210    2.4026 O   0  0  0  0  0  0  0  0  0  0  0  0
   10.5969   -5.1631   -5.1209 O   0  0  0  0  0  0  0  0  0  0  0  0
   10.9538   -6.4161   -2.9177 O   0  0  0  0  0  0  0  0  0  0  0  0
    2.3940    2.1848   -4.4180 O   0  0  0  0  0  0  0  0  0  0  0  0
   -0.2966    1.8775   -4.9064 O   0  0  0  0  0  0  0  0  0  0  0  0
   10.1134   -5.6382   -3.8246 S   0  0  0  0  0  0  0  0  0  0  0  0
    8.8234   -5.6477    1.2894 H   0  0  0  0  0  0  0  0  0  0  0  0
    6.7058   -4.3745    1.4150 H   0  0  0  0  0  0  0  0  0  0  0  0
    5.0005   -3.2018   -2.5400 H   0  0  0  0  0  0  0  0  0  0  0  0
    5.8960   -2.1675    1.5400 H   0  0  0  0  0  0  0  0  0  0  0  0
    2.9356   -1.8731   -2.4217 H   0  0  0  0  0  0  0  0  0  0  0  0
    3.7896   -0.8911    1.6718 H   0  0  0  0  0  0  0  0  0  0  0  0
   10.2188   -5.5825   -0.7717 H   0  0  0  0  0  0  0  0  0  0  0  0
    7.3328   -2.9766   -2.6076 H   0  0  0  0  0  0  0  0  0  0  0  0
    3.2523    0.9092   -2.1685 H   0  0  0  0  0  0  0  0  0  0  0  0
   -1.5674    0.4484   -3.1996 H   0  0  0  0  0  0  0  0  0  0  0  0
   -1.8401   -1.0233   -1.2700 H   0  0  0  0  0  0  0  0  0  0  0  0
   -0.3958   -1.8358   -0.6886 H   0  0  0  0  0  0  0  0  0  0  0  0
   -1.6964    0.6919    0.3993 H   0  0  0  0  0  0  0  0  0  0  0  0
   -0.9133   -1.9557    1.7379 H   0  0  0  0  0  0  0  0  0  0  0  0
   -2.5500   -1.5577    1.1772 H   0  0  0  0  0  0  0  0  0  0  0  0
   -1.8169   -0.6145    2.4859 H   0  0  0  0  0  0  0  0  0  0  0  0
    2.3761    2.5002    4.2583 H   0  0  0  0  0  0  0  0  0  0  0  0
    0.9505    1.5976    4.8415 H   0  0  0  0  0  0  0  0  0  0  0  0
    0.7352    3.0963    3.9213 H   0  0  0  0  0  0  0  0  0  0  0  0
    4.1363    3.0772   -4.9030 H   0  0  0  0  0  0  0  0  0  0  0  0
    4.3441    1.4945   -4.1036 H   0  0  0  0  0  0  0  0  0  0  0  0
    3.8714    2.9312   -3.1436 H   0  0  0  0  0  0  0  0  0  0  0  0
   -0.4767    1.9595   -6.9245 H   0  0  0  0  0  0  0  0  0  0  0  0
   -0.0455    0.3422   -6.2994 H   0  0  0  0  0  0  0  0  0  0  0  0
    1.1912    1.6393   -6.3669 H   0  0  0  0  0  0  0  0  0  0  0  0
    8.8781   -7.5194   -4.5486 H   0  0  0  0  0  0  0  0  0  0  0  0
    8.1228   -6.7579   -3.1123 H   0  0  0  0  0  0  0  0  0  0  0  0
    7.9344   -6.0050   -4.7402 H   0  0  0  0  0  0  0  0  0  0  0  0
    9.3258   -3.5323   -3.6887 H   0  0  0  0  0  0  0  0  0  0  0  0
    2.0780    0.7994    2.5748 H   0  0  0  0  0  0  0  0  0  0  0  0
  1  2  1  0  0  0  0
  1  7  2  0  0  0  0
  1 38  1  0  0  0  0
  2 12  2  0  0  0  0
  2 39  1  0  0  0  0
  3  5  2  0  0  0  0
  3 11  1  0  0  0  0
  3 40  1  0  0  0  0
  4  6  1  0  0  0  0
  4 11  2  0  0  0  0
  4 41  1  0  0  0  0
  5 13  1  0  0  0  0
  5 42  1  0  0  0  0
  6 13  2  0  0  0  0
  6 43  1  0  0  0  0
  7 16  1  0  0  0  0
  7 44  1  0  0  0  0
  8 12  1  0  0  0  0
  8 16  2  0  0  0  0
  8 45  1  0  0  0  0
  9 14  2  0  0  0  0
  9 17  1  0  0  0  0
  9 46  1  0  0  0  0
 10 15  2  0  0  0  0
 10 18  1  0  0  0  0
 10 47  1  0  0  0  0
 11 12  1  0  0  0  0
 13 19  1  0  0  0  0
 14 15  1  0  0  0  0
 14 19  1  0  0  0  0
 15 21  1  0  0  0  0
 16 30  1  0  0  0  0
 17 18  2  0  0  0  0
 17 35  1  0  0  0  0
 18 36  1  0  0  0  0
 19 28  2  0  0  0  0
 20 29  1  0  0  0  0
 20 31  1  0  0  0  0
 20 32  2  0  0  0  0
 21 22  1  0  0  0  0
 21 48  1  0  0  0  0
 21 49  1  0  0  0  0
 22 23  1  0  0  0  0
 22 29  1  0  0  0  0
 22 50  1  0  0  0  0
 23 51  1  0  0  0  0
 23 52  1  0  0  0  0
 23 53  1  0  0  0  0
 24 31  1  0  0  0  0
 24 54  1  0  0  0  0
 24 55  1  0  0  0  0
 24 56  1  0  0  0  0
 25 35  1  0  0  0  0
 25 57  1  0  0  0  0
 25 58  1  0  0  0  0
 25 59  1  0  0  0  0
 26 36  1  0  0  0  0
 26 60  1  0  0  0  0
 26 61  1  0  0  0  0
 26 62  1  0  0  0  0
 27 37  1  0  0  0  0
 27 63  1  0  0  0  0
 27 64  1  0  0  0  0
 27 65  1  0  0  0  0
 28 29  1  0  0  0  0
 30 37  1  0  0  0  0
 30 66  1  0  0  0  0
 31 67  1  0  0  0  0
 33 37  2  0  0  0  0
 34 37  2  0  0  0  0
M  END
$$$$
