
  -OEChem-05262117483D

 50 51  0     1  0  0  0  0  0999 V2000
    0.7548   -0.1469    1.4055 C   0  0  0  0  0  0  0  0  0  0  0  0
    0.8712   -0.3616   -1.5187 C   0  0  0  0  0  0  0  0  0  0  0  0
   -1.6837   -0.1098    0.4560 C   0  0  0  0  0  0  0  0  0  0  0  0
   -2.5107    0.2099    1.7003 C   0  0  0  0  0  0  0  0  0  0  0  0
   -1.4050    2.2519    2.0797 C   0  0  0  0  0  0  0  0  0  0  0  0
   -0.4033    2.0310    0.9564 C   0  0  1  0  0  0  0  0  0  0  0  0
   -0.2953    0.5522    0.5041 C   0  0  1  0  0  0  0  0  0  0  0  0
    1.5918   -1.2934    4.0980 C   0  0  0  0  0  0  0  0  0  0  0  0
    0.0906   -3.1622    3.3140 C   0  0  0  0  0  0  0  0  0  0  0  0
    2.2101   -2.6683    2.0422 C   0  0  0  0  0  0  0  0  0  0  0  0
    1.0305   -1.9732   -4.0577 C   0  0  0  0  0  0  0  0  0  0  0  0
    2.2983    0.0688   -4.8271 C   0  0  0  0  0  0  0  0  0  0  0  0
    3.2792   -1.3869   -3.0131 C   0  0  0  0  0  0  0  0  0  0  0  0
    1.0809   -2.0785    2.8889 C   0  0  0  0  0  0  0  0  0  0  0  0
    1.9941   -0.8578   -3.6510 C   0  0  0  0  0  0  0  0  0  0  0  0
    0.2691    0.6930   -0.8414 N   0  0  0  0  0  0  0  0  0  0  0  0
    1.8848    0.2857    1.5111 O   0  0  0  0  0  0  0  0  0  0  0  0
    0.9444   -1.4771   -1.0298 O   0  0  0  0  0  0  0  0  0  0  0  0
   -0.8236    2.2385   -2.6670 O   0  0  0  0  0  0  0  0  0  0  0  0
    1.3188    2.9744   -1.5513 O   0  0  0  0  0  0  0  0  0  0  0  0
   -2.6523    1.6227    1.8699 O   0  0  0  0  0  0  0  0  0  0  0  0
   -0.8366    2.7506   -0.2286 O   0  0  0  0  0  0  0  0  0  0  0  0
    0.2358   -1.1946    2.0420 O   0  0  0  0  0  0  0  0  0  0  0  0
    1.3142    0.0598   -2.7015 O   0  0  0  0  0  0  0  0  0  0  0  0
    0.0539    2.2653   -1.5151 S   0  0  0  0  0  0  0  0  0  0  0  0
   -1.5702   -1.1874    0.3271 H   0  0  0  0  0  0  0  0  0  0  0  0
   -2.2095    0.2878   -0.4166 H   0  0  0  0  0  0  0  0  0  0  0  0
   -3.5243   -0.1819    1.5924 H   0  0  0  0  0  0  0  0  0  0  0  0
   -2.0602   -0.2324    2.5993 H   0  0  0  0  0  0  0  0  0  0  0  0
   -0.9346    1.8887    3.0088 H   0  0  0  0  0  0  0  0  0  0  0  0
   -1.5974    3.3215    2.1880 H   0  0  0  0  0  0  0  0  0  0  0  0
    0.5834    2.4018    1.2495 H   0  0  0  0  0  0  0  0  0  0  0  0
    2.2965   -0.5162    3.8004 H   0  0  0  0  0  0  0  0  0  0  0  0
    0.7572   -0.8335    4.6372 H   0  0  0  0  0  0  0  0  0  0  0  0
    2.0992   -1.9798    4.7834 H   0  0  0  0  0  0  0  0  0  0  0  0
   -0.3043   -3.6862    2.4390 H   0  0  0  0  0  0  0  0  0  0  0  0
   -0.7471   -2.7270    3.8674 H   0  0  0  0  0  0  0  0  0  0  0  0
    0.5902   -3.8903    3.9593 H   0  0  0  0  0  0  0  0  0  0  0  0
    1.8077   -3.1057    1.1249 H   0  0  0  0  0  0  0  0  0  0  0  0
    2.9471   -1.9117    1.7725 H   0  0  0  0  0  0  0  0  0  0  0  0
    2.7094   -3.4553    2.6168 H   0  0  0  0  0  0  0  0  0  0  0  0
    0.8083   -2.6349   -3.2193 H   0  0  0  0  0  0  0  0  0  0  0  0
    0.0959   -1.5486   -4.4364 H   0  0  0  0  0  0  0  0  0  0  0  0
    1.4852   -2.5654   -4.8582 H   0  0  0  0  0  0  0  0  0  0  0  0
    2.9413    0.8939   -4.5091 H   0  0  0  0  0  0  0  0  0  0  0  0
    1.3745    0.4891   -5.2336 H   0  0  0  0  0  0  0  0  0  0  0  0
    2.8083   -0.4908   -5.6165 H   0  0  0  0  0  0  0  0  0  0  0  0
    3.8997   -0.5563   -2.6640 H   0  0  0  0  0  0  0  0  0  0  0  0
    3.0653   -2.0478   -2.1722 H   0  0  0  0  0  0  0  0  0  0  0  0
    3.8469   -1.9468   -3.7631 H   0  0  0  0  0  0  0  0  0  0  0  0
  1  7  1  0  0  0  0
  1 17  2  0  0  0  0
  1 23  1  0  0  0  0
  2 16  1  0  0  0  0
  2 18  2  0  0  0  0
  2 24  1  0  0  0  0
  3  4  1  0  0  0  0
  3  7  1  0  0  0  0
  3 26  1  0  0  0  0
  3 27  1  0  0  0  0
  4 21  1  0  0  0  0
  4 28  1  0  0  0  0
  4 29  1  0  0  0  0
  5  6  1  0  0  0  0
  5 21  1  0  0  0  0
  5 30  1  0  0  0  0
  5 31  1  0  0  0  0
  6  7  1  0  0  0  0
  6 22  1  0  0  0  0
  6 32  1  0  0  0  0
  7 16  1  0  0  0  0
  8 14  1  0  0  0  0
  8 33  1  0  0  0  0
  8 34  1  0  0  0  0
  8 35  1  0  0  0  0
  9 14  1  0  0  0  0
  9 36  1  0  0  0  0
  9 37  1  0  0  0  0
  9 38  1  0  0  0  0
 10 14  1  0  0  0  0
 10 39  1  0  0  0  0
 10 40  1  0  0  0  0
 10 41  1  0  0  0  0
 11 15  1  0  0  0  0
 11 42  1  0  0  0  0
 11 43  1  0  0  0  0
 11 44  1  0  0  0  0
 12 15  1  0  0  0  0
 12 45  1  0  0  0  0
 12 46  1  0  0  0  0
 12 47  1  0  0  0  0
 13 15  1  0  0  0  0
 13 48  1  0  0  0  0
 13 49  1  0  0  0  0
 13 50  1  0  0  0  0
 14 23  1  0  0  0  0
 15 24  1  0  0  0  0
 16 25  1  0  0  0  0
 19 25  2  0  0  0  0
 20 25  2  0  0  0  0
 22 25  1  0  0  0  0
M  END
$$$$
