34
0 1 C10H17N3O2S2
C                     7.828990101100    -0.594441398077    -1.951402745785
C                     6.692646934188    -0.694416144393     0.117630294150
C                     8.526702458588    -0.785864173646    -3.276404695151
C                    -0.797100299196    -0.756926419511     2.168422039997
C                    11.468477467733    -1.272959804912    -4.562726383386
C                     0.625025142050    -1.039737982944     2.664571173656
C                     1.695855371224    -0.712752552793     1.616782886599
C                     3.118799539575    -1.013159740032     2.107750549850
C                    10.196323086411    -2.122829285132    -4.501547200624
C                     4.162362288395    -0.677083272948     1.046133687505
N                     7.561517591094     0.591832284548    -1.469312088453
N                     6.911173605559     0.529130738327    -0.264425777507
N                     9.383390366000    -1.852489608330    -3.313298633940
O                     8.291720529716    -0.055859438348    -4.229951426460
O                     5.888355947508    -2.671626455276     1.690235609790
S                     7.281882990672    -1.931211057960    -0.956954283289
S                     5.842511399542    -1.155665697044     1.657249517700
H                    -0.920819491543     0.299087530402     1.902181592123
H                    -1.031008643926    -1.352633318429     1.278655466233
H                    -1.540995211301    -0.996894150227     2.935302457469
H                    11.215222113133    -0.209860230357    -4.583407200290
H                    12.113607126246    -1.461875010767    -3.697733716999
H                    12.037160000891    -1.509914384715    -5.468154215996
H                     0.711700691376    -2.095630470813     2.951152505577
H                     0.819553960299    -0.457676648668     3.574688701710
H                     1.618717225100     0.345784852735     1.334486286678
H                     1.498654393273    -1.290455006759     0.703944953758
H                     3.201421977766    -2.073836286224     2.369187809644
H                     3.321930276261    -0.439579629455     3.020924494345
H                    10.437027982148    -3.190288814227    -4.499297054455
H                     9.565886149571    -1.923736149395    -5.370193623979
H                     4.211376385598     0.392802369613     0.820306159245
H                     4.000169589743    -1.240438039365     0.121978273409
H                     9.688336348509    -2.249850537982    -2.433017048376
