
  -OEChem-05262117483D

 49 51  0     1  0  0  0  0  0999 V2000
   -2.3092    2.0451    2.3506 C   0  0  0  0  0  0  0  0  0  0  0  0
    4.0290   -0.2689    0.3661 C   0  0  0  0  0  0  0  0  0  0  0  0
   -1.3182    1.0797    2.1493 C   0  0  0  0  0  0  0  0  0  0  0  0
    2.7453   -0.3906    0.9088 C   0  0  0  0  0  0  0  0  0  0  0  0
   -2.8551    1.9592    0.0088 C   0  0  0  0  0  0  0  0  0  0  0  0
    1.8339   -0.3327   -1.3459 C   0  0  0  0  0  0  0  0  0  0  0  0
   -1.8728    0.9984   -0.2235 C   0  0  0  0  0  0  0  0  0  0  0  0
   -3.1006    2.4891    1.2873 C   0  0  0  0  0  0  0  0  0  0  0  0
    4.2460   -0.1854   -1.0106 C   0  0  0  0  0  0  0  0  0  0  0  0
    3.1260   -0.2253   -1.8719 C   0  0  0  0  0  0  0  0  0  0  0  0
    1.6552   -0.4062    0.0488 C   0  0  0  0  0  0  0  0  0  0  0  0
   -1.1019    0.5597    0.8752 C   0  0  0  0  0  0  0  0  0  0  0  0
    0.6129   -0.3283   -2.2191 C   0  0  0  0  0  0  0  0  0  0  0  0
   -1.5900    0.5261   -1.6315 C   0  0  0  0  0  0  0  0  0  0  0  0
   -4.1980    3.5043    1.4958 C   0  0  0  0  0  0  0  0  0  0  0  0
    5.8741   -2.5459   -1.8451 C   0  0  0  0  0  0  0  0  0  0  0  0
    7.6035   -0.9851   -2.8358 C   0  0  0  0  0  0  0  0  0  0  0  0
    3.0562    1.0435   -3.8887 C   0  0  0  0  0  0  0  0  0  0  0  0
    5.6648   -0.0435   -1.5368 C   0  0  1  0  0  0  0  0  0  0  0  0
    6.1229   -1.1700   -2.4778 C   0  0  0  0  0  0  0  0  0  0  0  0
    0.3355   -1.0760   -3.1211 O   0  0  0  0  0  0  0  0  0  0  0  0
    0.3358   -1.2224    2.1719 O   0  0  0  0  0  0  0  0  0  0  0  0
   -0.5705   -1.8204   -0.1475 O   0  0  0  0  0  0  0  0  0  0  0  0
   -0.1648    0.7069   -1.7797 O   0  0  0  0  0  0  0  0  0  0  0  0
    5.8247    1.2080   -2.2324 O   0  0  0  0  0  0  0  0  0  0  0  0
    3.3034   -0.2099   -3.2292 O   0  0  0  0  0  0  0  0  0  0  0  0
    0.0392   -0.8522    0.7787 S   0  0  0  0  0  0  0  0  0  0  0  0
   -2.4687    2.4450    3.3488 H   0  0  0  0  0  0  0  0  0  0  0  0
    4.8859   -0.2565    1.0357 H   0  0  0  0  0  0  0  0  0  0  0  0
   -0.7305    0.7066    2.9811 H   0  0  0  0  0  0  0  0  0  0  0  0
    2.5922   -0.5079    1.9758 H   0  0  0  0  0  0  0  0  0  0  0  0
   -3.4404    2.3202   -0.8350 H   0  0  0  0  0  0  0  0  0  0  0  0
   -1.8382   -0.5255   -1.7864 H   0  0  0  0  0  0  0  0  0  0  0  0
   -2.1124    1.1425   -2.3662 H   0  0  0  0  0  0  0  0  0  0  0  0
   -4.2140    4.2451    0.6903 H   0  0  0  0  0  0  0  0  0  0  0  0
   -5.1789    3.0148    1.5085 H   0  0  0  0  0  0  0  0  0  0  0  0
   -4.0785    4.0336    2.4447 H   0  0  0  0  0  0  0  0  0  0  0  0
    6.3991   -2.6434   -0.8862 H   0  0  0  0  0  0  0  0  0  0  0  0
    4.8111   -2.7319   -1.6676 H   0  0  0  0  0  0  0  0  0  0  0  0
    6.2446   -3.3369   -2.5048 H   0  0  0  0  0  0  0  0  0  0  0  0
    8.2376   -1.0796   -1.9447 H   0  0  0  0  0  0  0  0  0  0  0  0
    7.9213   -1.7517   -3.5506 H   0  0  0  0  0  0  0  0  0  0  0  0
    7.7846   -0.0037   -3.2806 H   0  0  0  0  0  0  0  0  0  0  0  0
    3.0985    0.8318   -4.9579 H   0  0  0  0  0  0  0  0  0  0  0  0
    3.8324    1.7646   -3.6165 H   0  0  0  0  0  0  0  0  0  0  0  0
    2.0639    1.4344   -3.6378 H   0  0  0  0  0  0  0  0  0  0  0  0
    6.3344   -0.0540   -0.6630 H   0  0  0  0  0  0  0  0  0  0  0  0
    5.5247   -1.0908   -3.3892 H   0  0  0  0  0  0  0  0  0  0  0  0
    5.6850    1.9207   -1.5890 H   0  0  0  0  0  0  0  0  0  0  0  0
  1  3  2  0  0  0  0
  1  8  1  0  0  0  0
  1 28  1  0  0  0  0
  2  4  1  0  0  0  0
  2  9  2  0  0  0  0
  2 29  1  0  0  0  0
  3 12  1  0  0  0  0
  3 30  1  0  0  0  0
  4 11  2  0  0  0  0
  4 31  1  0  0  0  0
  5  7  1  0  0  0  0
  5  8  2  0  0  0  0
  5 32  1  0  0  0  0
  6 10  2  0  0  0  0
  6 11  1  0  0  0  0
  6 13  1  0  0  0  0
  7 12  2  0  0  0  0
  7 14  1  0  0  0  0
  8 15  1  0  0  0  0
  9 10  1  0  0  0  0
  9 19  1  0  0  0  0
 10 26  1  0  0  0  0
 11 27  1  0  0  0  0
 12 27  1  0  0  0  0
 13 21  2  0  0  0  0
 13 24  1  0  0  0  0
 14 24  1  0  0  0  0
 14 33  1  0  0  0  0
 14 34  1  0  0  0  0
 15 35  1  0  0  0  0
 15 36  1  0  0  0  0
 15 37  1  0  0  0  0
 16 20  1  0  0  0  0
 16 38  1  0  0  0  0
 16 39  1  0  0  0  0
 16 40  1  0  0  0  0
 17 20  1  0  0  0  0
 17 41  1  0  0  0  0
 17 42  1  0  0  0  0
 17 43  1  0  0  0  0
 18 26  1  0  0  0  0
 18 44  1  0  0  0  0
 18 45  1  0  0  0  0
 18 46  1  0  0  0  0
 19 20  1  0  0  0  0
 19 25  1  0  0  0  0
 19 47  1  0  0  0  0
 20 48  1  0  0  0  0
 22 27  2  0  0  0  0
 23 27  2  0  0  0  0
 25 49  1  0  0  0  0
M  END
$$$$
