53
0 1 C22ClFH22N2O4S
C                    -4.847449319028    -1.610544845096     2.343963630670
C                    -5.410786093420    -2.672320137806     3.051883329709
C                     0.624601906117    -5.108690269952     4.347694498857
C                    -0.697320480596    -4.365321497580     2.442950635972
C                    -0.428808026244    -5.929728090776     4.758014200508
C                    -1.752884296500    -5.174114099540     2.856862672993
C                    -3.421269771795    -2.877795240663     4.476086437102
C                    -2.836857520135    -1.816221702057     3.761460205392
C                    -1.558305804386    -1.164756887439     3.832172086971
C                    -3.566376079162    -1.185365921455     2.711373643500
C                    -4.693182514927    -3.272399172923     4.099154012661
C                     0.479233634864    -4.333899843828     3.197259501578
C                    -1.608697339284    -5.951044073794     4.010868288210
C                    -1.552026338890    -0.176761211850     2.870930192959
C                    -3.209288593886    -1.471358908861    -0.527977719395
C                    -0.358458620471    -1.469854738515     4.679566287870
C                    -0.406876811217     0.747850961555     2.581843154027
C                     0.741758946504     0.512318058663     3.591082579946
C                     0.909584085675    -0.974443701229     3.952061184628
C                    -3.150630998742    -3.824501726804    -0.348233525025
C                    -2.463574984376    -0.176058141716    -0.288210351047
C                    -3.016734543276     0.552065209845     0.955310807042
N                    -2.769133515965    -0.164448962108     2.193239641536
N                     1.215423954328    -1.689899195962     2.695521452224
O                    -4.359529854097    -1.527518591775    -0.920309872722
O                     2.852863971859    -3.312045118963     3.721224316723
O                     2.093586656131    -3.538626756499     1.276965036092
O                    -2.464350414202    -2.556720693497    -0.222346341271
F                    -5.287514987167    -4.300698567117     4.767192366469
S                     1.821190406184    -3.249636392952     2.684774402836
Cl                   -2.943655678493    -6.949572090410     4.537297878507
H                    -5.392872148355    -1.155431065161     1.523971718019
H                    -6.401973342602    -3.042653071543     2.810458578337
H                     1.548505341900    -5.060760684400     4.915169222074
H                    -0.803575983600    -3.755061712067     1.551183169090
H                    -0.337083284937    -6.541963210148     5.649394838849
H                    -2.686716848332    -5.191268532430     2.307158630695
H                    -2.908737512780    -3.385310740968     5.286748489853
H                    -0.412673301964    -0.970305397855     5.655981925640
H                    -0.293335501125    -2.540108455577     4.888629916021
H                    -0.039058511710     0.605231046231     1.556268641461
H                    -0.726384538748     1.795601322482     2.636716237806
H                     1.677540823135     0.900515872155     3.181105324743
H                     0.529628170197     1.057903922197     4.516243536577
H                     1.783986681765    -1.097465861355     4.593943441353
H                    -2.388630013202    -4.586586750977    -0.189719819804
H                    -3.589816650472    -3.921445488935    -1.342517545703
H                    -3.936654026095    -3.890246983922     0.407904161146
H                    -2.620998494583     0.461408480443    -1.163234550439
H                    -1.394194171582    -0.363830261294    -0.175737867793
H                    -2.555093891624     1.540284595100     1.023967856470
H                    -4.092495799160     0.705372234655     0.843623146510
H                     0.499794720132    -1.600572045469     1.977162467971
