
  -OEChem-05262117483D

 31 33  0     0  0  0  0  0  0999 V2000
   -2.3665    5.3216    0.5093 C   0  0  0  0  0  0  0  0  0  0  0  0
   -0.6957    3.8622   -0.6055 C   0  0  0  0  0  0  0  0  0  0  0  0
   -1.7104   -2.5168    1.7586 C   0  0  0  0  0  0  0  0  0  0  0  0
   -1.4936   -1.2224    1.2696 C   0  0  0  0  0  0  0  0  0  0  0  0
   -0.1639    2.6026   -0.7750 C   0  0  0  0  0  0  0  0  0  0  0  0
    0.3315   -2.0699   -0.1024 C   0  0  0  0  0  0  0  0  0  0  0  0
   -2.2451    2.9042    0.9670 C   0  0  0  0  0  0  0  0  0  0  0  0
   -1.7738    4.0389    0.2922 C   0  0  0  0  0  0  0  0  0  0  0  0
   -0.9233   -3.5796    1.3233 C   0  0  0  0  0  0  0  0  0  0  0  0
    0.0983   -3.3477    0.3897 C   0  0  0  0  0  0  0  0  0  0  0  0
   -0.4687   -0.9934    0.3345 C   0  0  0  0  0  0  0  0  0  0  0  0
   -0.7147    1.5146   -0.0414 C   0  0  0  0  0  0  0  0  0  0  0  0
   -0.9580   -5.0416    1.7180 C   0  0  0  0  0  0  0  0  0  0  0  0
    0.8351   -4.6354    0.0829 C   0  0  0  0  0  0  0  0  0  0  0  0
   -0.1442   -5.7247    0.5895 C   0  0  0  0  0  0  0  0  0  0  0  0
   -2.8500    6.3687    0.6863 N   0  0  0  0  0  0  0  0  0  0  0  0
   -1.7403    1.6796    0.8129 N   0  0  0  0  0  0  0  0  0  0  0  0
   -0.1690    0.2687   -0.2257 N   0  0  0  0  0  0  0  0  0  0  0  0
   -0.2958    4.7112   -1.1517 H   0  0  0  0  0  0  0  0  0  0  0  0
   -2.5089   -2.6789    2.4796 H   0  0  0  0  0  0  0  0  0  0  0  0
   -2.1070   -0.3966    1.5980 H   0  0  0  0  0  0  0  0  0  0  0  0
    0.6652    2.4403   -1.4591 H   0  0  0  0  0  0  0  0  0  0  0  0
    1.1247   -1.8969   -0.8298 H   0  0  0  0  0  0  0  0  0  0  0  0
   -3.0737    2.9970    1.6668 H   0  0  0  0  0  0  0  0  0  0  0  0
   -0.4697   -5.1831    2.6920 H   0  0  0  0  0  0  0  0  0  0  0  0
   -1.9736   -5.4400    1.8081 H   0  0  0  0  0  0  0  0  0  0  0  0
    1.0859   -4.7485   -0.9768 H   0  0  0  0  0  0  0  0  0  0  0  0
    1.7795   -4.6683    0.6431 H   0  0  0  0  0  0  0  0  0  0  0  0
    0.3661   -6.6331    0.9216 H   0  0  0  0  0  0  0  0  0  0  0  0
   -0.8226   -6.0035   -0.2241 H   0  0  0  0  0  0  0  0  0  0  0  0
    0.5973    0.2475   -0.8858 H   0  0  0  0  0  0  0  0  0  0  0  0
  1  8  1  0  0  0  0
  1 16  3  0  0  0  0
  2  5  1  0  0  0  0
  2  8  2  0  0  0  0
  2 19  1  0  0  0  0
  3  4  2  0  0  0  0
  3  9  1  0  0  0  0
  3 20  1  0  0  0  0
  4 11  1  0  0  0  0
  4 21  1  0  0  0  0
  5 12  2  0  0  0  0
  5 22  1  0  0  0  0
  6 10  1  0  0  0  0
  6 11  2  0  0  0  0
  6 23  1  0  0  0  0
  7  8  1  0  0  0  0
  7 17  2  0  0  0  0
  7 24  1  0  0  0  0
  9 10  2  0  0  0  0
  9 13  1  0  0  0  0
 10 14  1  0  0  0  0
 11 18  1  0  0  0  0
 12 17  1  0  0  0  0
 12 18  1  0  0  0  0
 13 15  1  0  0  0  0
 13 25  1  0  0  0  0
 13 26  1  0  0  0  0
 14 15  1  0  0  0  0
 14 27  1  0  0  0  0
 14 28  1  0  0  0  0
 15 29  1  0  0  0  0
 15 30  1  0  0  0  0
 18 31  1  0  0  0  0
M  END
$$$$
