
  -OEChem-05262117483D

 27 28  0     0  0  0  0  0  0999 V2000
    2.0443    2.3057    2.5221 C   0  0  0  0  0  0  0  0  0  0  0  0
    2.1772   -1.6729   -0.0298 C   0  0  0  0  0  0  0  0  0  0  0  0
    1.1100   -0.9272    0.4690 C   0  0  0  0  0  0  0  0  0  0  0  0
    3.1840   -2.1403    0.8206 C   0  0  0  0  0  0  0  0  0  0  0  0
    2.0239   -1.1422    2.7079 C   0  0  0  0  0  0  0  0  0  0  0  0
    1.7654    2.4554    1.1383 C   0  0  0  0  0  0  0  0  0  0  0  0
    1.0282   -0.6529    1.8464 C   0  0  0  0  0  0  0  0  0  0  0  0
    3.0939   -1.8658    2.1868 C   0  0  0  0  0  0  0  0  0  0  0  0
    0.6142    2.1375    0.4524 C   0  0  0  0  0  0  0  0  0  0  0  0
    2.0794    3.0400   -0.9038 C   0  0  0  0  0  0  0  0  0  0  0  0
   -0.0989    0.0807    2.4609 C   0  0  0  0  0  0  0  0  0  0  0  0
    2.5475    3.5572   -2.2160 C   0  0  0  0  0  0  0  0  0  0  0  0
    2.2585    2.1738    3.6609 N   0  0  0  0  0  0  0  0  0  0  0  0
    2.6837    3.0197    0.2365 N   0  0  0  0  0  0  0  0  0  0  0  0
   -0.8631    1.0170    2.0138 N   0  0  0  0  0  0  0  0  0  0  0  0
   -0.5963    1.5287    0.7276 N   0  0  0  0  0  0  0  0  0  0  0  0
    0.7987    2.5009   -0.8520 O   0  0  0  0  0  0  0  0  0  0  0  0
    4.3477   -2.4469    3.2667 Cl  0  0  0  0  0  0  0  0  0  0  0  0
    2.2333   -1.8922   -1.0925 H   0  0  0  0  0  0  0  0  0  0  0  0
    0.3356   -0.5734   -0.2012 H   0  0  0  0  0  0  0  0  0  0  0  0
    4.0230   -2.7097    0.4334 H   0  0  0  0  0  0  0  0  0  0  0  0
    1.9787   -0.9286    3.7713 H   0  0  0  0  0  0  0  0  0  0  0  0
   -0.3510   -0.2092    3.4807 H   0  0  0  0  0  0  0  0  0  0  0  0
    2.5346    2.7691   -2.9755 H   0  0  0  0  0  0  0  0  0  0  0  0
    1.9057    4.3724   -2.5657 H   0  0  0  0  0  0  0  0  0  0  0  0
    3.5662    3.9287   -2.1009 H   0  0  0  0  0  0  0  0  0  0  0  0
   -1.3893    2.0884    0.4258 H   0  0  0  0  0  0  0  0  0  0  0  0
  1  6  1  0  0  0  0
  1 13  3  0  0  0  0
  2  3  1  0  0  0  0
  2  4  2  0  0  0  0
  2 19  1  0  0  0  0
  3  7  2  0  0  0  0
  3 20  1  0  0  0  0
  4  8  1  0  0  0  0
  4 21  1  0  0  0  0
  5  7  1  0  0  0  0
  5  8  2  0  0  0  0
  5 22  1  0  0  0  0
  6  9  2  0  0  0  0
  6 14  1  0  0  0  0
  7 11  1  0  0  0  0
  8 18  1  0  0  0  0
  9 16  1  0  0  0  0
  9 17  1  0  0  0  0
 10 12  1  0  0  0  0
 10 14  2  0  0  0  0
 10 17  1  0  0  0  0
 11 15  2  0  0  0  0
 11 23  1  0  0  0  0
 12 24  1  0  0  0  0
 12 25  1  0  0  0  0
 12 26  1  0  0  0  0
 15 16  1  0  0  0  0
 16 27  1  0  0  0  0
M  END
$$$$
