33
0 1 C17H13N3
C                     2.602658334317    -2.981069406888     6.594012154529
C                    -0.259677470396     2.901917513932     7.489798092605
C                     0.839897574901     2.652435055257     6.659087716719
C                    -0.781558110513     1.870017529204     8.277310182294
C                     1.401863970822     1.377347386447     6.598633459110
C                    -0.212245745347     0.596463601162     8.228338705024
C                     1.003140240515    -0.003199749381     0.664135333207
C                     0.456092387351     0.147736455690     1.936075567095
C                     2.811803513968    -1.414363570463     1.476659819858
C                     0.870829374601     0.323613385962     7.370421688289
C                     2.170390436342    -0.774255025789     0.417735527580
C                     2.283289865062    -1.278552848188     2.771438918817
C                     1.116426587736    -0.500998688247     2.984802704484
C                     1.882786612339    -1.370280055462     4.887743094393
C                     1.453744160591    -1.024915443517     7.363553253850
C                     1.959540956816    -1.722916784680     6.310180533230
C                     2.695597748994    -0.889556903169    -0.996084831893
N                     3.105814536261    -3.995297306995     6.867964714652
N                     2.727351350319    -1.810121013790     3.971599978903
N                     0.877755976199    -0.587552246351     4.346137262621
H                    -0.695685450018     3.896274703942     7.533846126274
H                     1.267564239987     3.455896995877     6.065409360429
H                    -1.625758769280     2.059021345782     8.934818073656
H                     2.268662057557     1.199049089429     5.969872341828
H                    -0.615394921165    -0.201201049654     8.847855768491
H                     0.517657075711     0.487628428049    -0.176542926250
H                    -0.439594769215     0.742076500456     2.095572689953
H                     3.704769128015    -2.012722356304     1.317631066458
H                     1.492328307266    -1.522127106807     8.330378083854
H                     2.935940571100     0.095397268192    -1.412359888581
H                     3.602112792059    -1.499251384543    -1.035679161987
H                     1.953700740156    -1.350129627584    -1.658474113142
H                     0.137200944892    -0.131009248729     4.861286646907
