
  -OEChem-05262117483D

 27 28  0     0  0  0  0  0  0999 V2000
    1.4544   -1.5876   -2.7168 C   0  0  0  0  0  0  0  0  0  0  0  0
    1.5926   -1.3869   -1.5285 C   0  0  0  0  0  0  0  0  0  0  0  0
    1.1021    0.0239    1.8913 C   0  0  0  0  0  0  0  0  0  0  0  0
    0.9369   -0.2017    0.5248 C   0  0  0  0  0  0  0  0  0  0  0  0
    2.0666   -0.6781    2.6121 C   0  0  0  0  0  0  0  0  0  0  0  0
    6.0766   -5.0931    3.4697 C   0  0  0  0  0  0  0  0  0  0  0  0
    2.7278   -1.8598    0.5948 C   0  0  0  0  0  0  0  0  0  0  0  0
    6.0519   -2.9473    4.5545 C   0  0  0  0  0  0  0  0  0  0  0  0
    6.9307   -5.5333    4.4774 C   0  0  0  0  0  0  0  0  0  0  0  0
    1.7522   -1.1457   -0.1250 C   0  0  0  0  0  0  0  0  0  0  0  0
    5.6128   -3.7716    3.5145 C   0  0  0  0  0  0  0  0  0  0  0  0
    2.8835   -1.6228    1.9665 C   0  0  0  0  0  0  0  0  0  0  0  0
    6.9190   -3.5046    5.5028 C   0  0  0  0  0  0  0  0  0  0  0  0
    4.6974   -3.3057    2.4095 C   0  0  0  0  0  0  0  0  0  0  0  0
    7.3503   -4.7524    5.4886 N   0  0  0  0  0  0  0  0  0  0  0  0
    3.8460   -2.2860    2.7619 N   0  0  0  0  0  0  0  0  0  0  0  0
    4.7353   -3.8306    1.3006 O   0  0  0  0  0  0  0  0  0  0  0  0
    7.4889   -2.4783    6.8129 Cl  0  0  0  0  0  0  0  0  0  0  0  0
    1.3365   -1.7682   -3.7643 H   0  0  0  0  0  0  0  0  0  0  0  0
    0.4768    0.7511    2.4015 H   0  0  0  0  0  0  0  0  0  0  0  0
    0.1879    0.3413   -0.0426 H   0  0  0  0  0  0  0  0  0  0  0  0
    2.1875   -0.4936    3.6779 H   0  0  0  0  0  0  0  0  0  0  0  0
    5.7724   -5.7458    2.6588 H   0  0  0  0  0  0  0  0  0  0  0  0
    3.3483   -2.5887    0.0935 H   0  0  0  0  0  0  0  0  0  0  0  0
    5.7833   -1.8985    4.6255 H   0  0  0  0  0  0  0  0  0  0  0  0
    7.3032   -6.5553    4.4831 H   0  0  0  0  0  0  0  0  0  0  0  0
    3.8365   -2.0282    3.7402 H   0  0  0  0  0  0  0  0  0  0  0  0
  1  2  3  0  0  0  0
  1 19  1  0  0  0  0
  2 10  1  0  0  0  0
  3  4  2  0  0  0  0
  3  5  1  0  0  0  0
  3 20  1  0  0  0  0
  4 10  1  0  0  0  0
  4 21  1  0  0  0  0
  5 12  2  0  0  0  0
  5 22  1  0  0  0  0
  6  9  2  0  0  0  0
  6 11  1  0  0  0  0
  6 23  1  0  0  0  0
  7 10  2  0  0  0  0
  7 12  1  0  0  0  0
  7 24  1  0  0  0  0
  8 11  2  0  0  0  0
  8 13  1  0  0  0  0
  8 25  1  0  0  0  0
  9 15  1  0  0  0  0
  9 26  1  0  0  0  0
 11 14  1  0  0  0  0
 12 16  1  0  0  0  0
 13 15  2  0  0  0  0
 13 18  1  0  0  0  0
 14 16  1  0  0  0  0
 14 17  2  0  0  0  0
 16 27  1  0  0  0  0
M  END
$$$$
