
  -OEChem-05262117483D

 31 33  0     0  0  0  0  0  0999 V2000
    4.7186    2.9768   -1.5604 C   0  0  0  0  0  0  0  0  0  0  0  0
    3.6776    0.9597   -0.5605 C   0  0  0  0  0  0  0  0  0  0  0  0
   -1.3550   -2.3892    2.0890 C   0  0  0  0  0  0  0  0  0  0  0  0
   -1.0312   -1.1031    1.6434 C   0  0  0  0  0  0  0  0  0  0  0  0
    2.5380    0.2973   -0.1438 C   0  0  0  0  0  0  0  0  0  0  0  0
    0.3888   -2.0416   -0.0942 C   0  0  0  0  0  0  0  0  0  0  0  0
    2.2859    2.8211   -1.1857 C   0  0  0  0  0  0  0  0  0  0  0  0
    3.5703    2.2542   -1.1096 C   0  0  0  0  0  0  0  0  0  0  0  0
   -0.7922   -3.4971    1.4572 C   0  0  0  0  0  0  0  0  0  0  0  0
    0.0773   -3.3165    0.3705 C   0  0  0  0  0  0  0  0  0  0  0  0
   -0.1616   -0.9227    0.5559 C   0  0  0  0  0  0  0  0  0  0  0  0
    1.2881    0.9492   -0.2867 C   0  0  0  0  0  0  0  0  0  0  0  0
   -0.9598   -4.9714    1.7614 C   0  0  0  0  0  0  0  0  0  0  0  0
    0.5578   -4.6565   -0.1482 C   0  0  0  0  0  0  0  0  0  0  0  0
   -0.4602   -5.6527    0.4620 C   0  0  0  0  0  0  0  0  0  0  0  0
    5.6550    3.5678   -1.9284 N   0  0  0  0  0  0  0  0  0  0  0  0
    1.1797    2.1979   -0.7916 N   0  0  0  0  0  0  0  0  0  0  0  0
    0.0948    0.3935    0.1022 N   0  0  0  0  0  0  0  0  0  0  0  0
    4.6528    0.4926   -0.4579 H   0  0  0  0  0  0  0  0  0  0  0  0
   -2.0364   -2.5125    2.9276 H   0  0  0  0  0  0  0  0  0  0  0  0
   -1.4487   -0.2299    2.1388 H   0  0  0  0  0  0  0  0  0  0  0  0
    2.6019   -0.6860    0.3057 H   0  0  0  0  0  0  0  0  0  0  0  0
    1.0195   -1.9067   -0.9684 H   0  0  0  0  0  0  0  0  0  0  0  0
    2.1596    3.8255   -1.5855 H   0  0  0  0  0  0  0  0  0  0  0  0
   -0.3312   -5.2535    2.6171 H   0  0  0  0  0  0  0  0  0  0  0  0
   -1.9888   -5.2444    2.0156 H   0  0  0  0  0  0  0  0  0  0  0  0
    0.6002   -4.7050   -1.2407 H   0  0  0  0  0  0  0  0  0  0  0  0
    1.5721   -4.8575    0.2226 H   0  0  0  0  0  0  0  0  0  0  0  0
   -0.0322   -6.6434    0.6379 H   0  0  0  0  0  0  0  0  0  0  0  0
   -1.3027   -5.7726   -0.2275 H   0  0  0  0  0  0  0  0  0  0  0  0
   -0.6785    1.0486    0.0819 H   0  0  0  0  0  0  0  0  0  0  0  0
  1  8  1  0  0  0  0
  1 16  3  0  0  0  0
  2  5  1  0  0  0  0
  2  8  2  0  0  0  0
  2 19  1  0  0  0  0
  3  4  2  0  0  0  0
  3  9  1  0  0  0  0
  3 20  1  0  0  0  0
  4 11  1  0  0  0  0
  4 21  1  0  0  0  0
  5 12  2  0  0  0  0
  5 22  1  0  0  0  0
  6 10  1  0  0  0  0
  6 11  2  0  0  0  0
  6 23  1  0  0  0  0
  7  8  1  0  0  0  0
  7 17  2  0  0  0  0
  7 24  1  0  0  0  0
  9 10  2  0  0  0  0
  9 13  1  0  0  0  0
 10 14  1  0  0  0  0
 11 18  1  0  0  0  0
 12 17  1  0  0  0  0
 12 18  1  0  0  0  0
 13 15  1  0  0  0  0
 13 25  1  0  0  0  0
 13 26  1  0  0  0  0
 14 15  1  0  0  0  0
 14 27  1  0  0  0  0
 14 28  1  0  0  0  0
 15 29  1  0  0  0  0
 15 30  1  0  0  0  0
 18 31  1  0  0  0  0
M  END
$$$$
