27
0 1 C14ClH9N2O
C                     1.454366891040    -1.587637869627    -2.716800572758
C                     1.592569346138    -1.386891123900    -1.528512952796
C                     1.102096431828     0.023869861030     1.891295120415
C                     0.936931180740    -0.201688167860     0.524843884327
C                     2.066560660505    -0.678063467895     2.612127690622
C                     6.076574586816    -5.093114923025     3.469748198783
C                     2.727835616260    -1.859782337056     0.594761338619
C                     6.051948917851    -2.947301365509     4.554464911107
C                     6.930741393453    -5.533337640377     4.477392758673
C                     1.752166509947    -1.145719933080    -0.125022164226
C                     5.612841970648    -3.771569929623     3.514546616320
C                     2.883458712135    -1.622848987843     1.966470103756
C                     6.918986430815    -3.504585056417     5.502752181870
C                     4.697412556462    -3.305664892836     2.409494073591
N                     7.350253077882    -4.752428253498     5.488589420590
N                     3.845982463855    -2.285968380182     2.761942934316
O                     4.735327008210    -3.830646125108     1.300553517724
Cl                    7.488875424512    -2.478316924822     6.812908657270
H                     1.336546802192    -1.768174162904    -3.764292906876
H                     0.476834731690     0.751095108904     2.401510699811
H                     0.187936667232     0.341306695881    -0.042585800617
H                     2.187453310992    -0.493576787363     3.677945071705
H                     5.772441346418    -5.745802110541     2.658816244488
H                     3.348347178334    -2.588676271179     0.093548857487
H                     5.783299253140    -1.898470779267     4.625492621521
H                     7.303178404572    -6.555332401408     4.483133400057
H                     3.836474874497    -2.028223078660     3.740195102763
