
  -OEChem-05262117483D

 33 35  0     0  0  0  0  0  0999 V2000
    0.8616   -2.2015    6.7926 C   0  0  0  0  0  0  0  0  0  0  0  0
    7.4315   -2.9127    6.2122 C   0  0  0  0  0  0  0  0  0  0  0  0
    6.6623   -2.4310    5.1468 C   0  0  0  0  0  0  0  0  0  0  0  0
    6.8080   -3.2505    7.4195 C   0  0  0  0  0  0  0  0  0  0  0  0
    5.2815   -2.2817    5.2693 C   0  0  0  0  0  0  0  0  0  0  0  0
    5.4303   -3.1042    7.5494 C   0  0  0  0  0  0  0  0  0  0  0  0
    0.3093   -0.0031    0.7681 C   0  0  0  0  0  0  0  0  0  0  0  0
   -0.1867   -0.3725    2.0153 C   0  0  0  0  0  0  0  0  0  0  0  0
    2.6009   -0.5417    1.3867 C   0  0  0  0  0  0  0  0  0  0  0  0
    4.6368   -2.6179    6.4807 C   0  0  0  0  0  0  0  0  0  0  0  0
    1.6893   -0.0805    0.4390 C   0  0  0  0  0  0  0  0  0  0  0  0
    2.1275   -0.9214    2.6541 C   0  0  0  0  0  0  0  0  0  0  0  0
    0.7451   -0.8327    2.9520 C   0  0  0  0  0  0  0  0  0  0  0  0
    1.9115   -1.6091    4.6939 C   0  0  0  0  0  0  0  0  0  0  0  0
    3.2116   -2.5152    6.7531 C   0  0  0  0  0  0  0  0  0  0  0  0
    2.0988   -2.1147    6.0558 C   0  0  0  0  0  0  0  0  0  0  0  0
    2.1449    0.3414   -0.9400 C   0  0  0  0  0  0  0  0  0  0  0  0
   -0.1706   -2.2483    7.3347 N   0  0  0  0  0  0  0  0  0  0  0  0
    2.8192   -1.4045    3.7513 N   0  0  0  0  0  0  0  0  0  0  0  0
    0.6358   -1.2763    4.2563 N   0  0  0  0  0  0  0  0  0  0  0  0
    8.5074   -3.0245    6.1039 H   0  0  0  0  0  0  0  0  0  0  0  0
    7.1444   -2.1682    4.2086 H   0  0  0  0  0  0  0  0  0  0  0  0
    7.3950   -3.6255    8.2535 H   0  0  0  0  0  0  0  0  0  0  0  0
    4.6913   -1.9086    4.4419 H   0  0  0  0  0  0  0  0  0  0  0  0
    4.9519   -3.3683    8.4898 H   0  0  0  0  0  0  0  0  0  0  0  0
   -0.3854    0.3595    0.0138 H   0  0  0  0  0  0  0  0  0  0  0  0
   -1.2472   -0.3036    2.2414 H   0  0  0  0  0  0  0  0  0  0  0  0
    3.6615   -0.6104    1.1597 H   0  0  0  0  0  0  0  0  0  0  0  0
    2.9676   -2.8368    7.7634 H   0  0  0  0  0  0  0  0  0  0  0  0
    1.8964    1.3907   -1.1361 H   0  0  0  0  0  0  0  0  0  0  0  0
    3.2261    0.2272   -1.0553 H   0  0  0  0  0  0  0  0  0  0  0  0
    1.6600   -0.2582   -1.7188 H   0  0  0  0  0  0  0  0  0  0  0  0
   -0.2127   -1.3511    4.8045 H   0  0  0  0  0  0  0  0  0  0  0  0
  1 16  1  0  0  0  0
  1 18  3  0  0  0  0
  2  3  1  0  0  0  0
  2  4  2  0  0  0  0
  2 21  1  0  0  0  0
  3  5  2  0  0  0  0
  3 22  1  0  0  0  0
  4  6  1  0  0  0  0
  4 23  1  0  0  0  0
  5 10  1  0  0  0  0
  5 24  1  0  0  0  0
  6 10  2  0  0  0  0
  6 25  1  0  0  0  0
  7  8  2  0  0  0  0
  7 11  1  0  0  0  0
  7 26  1  0  0  0  0
  8 13  1  0  0  0  0
  8 27  1  0  0  0  0
  9 11  2  0  0  0  0
  9 12  1  0  0  0  0
  9 28  1  0  0  0  0
 10 15  1  0  0  0  0
 11 17  1  0  0  0  0
 12 13  2  0  0  0  0
 12 19  1  0  0  0  0
 13 20  1  0  0  0  0
 14 16  1  0  0  0  0
 14 19  2  0  0  0  0
 14 20  1  0  0  0  0
 15 16  2  0  0  0  0
 15 29  1  0  0  0  0
 17 30  1  0  0  0  0
 17 31  1  0  0  0  0
 17 32  1  0  0  0  0
 20 33  1  0  0  0  0
M  END
$$$$
