27
0 1 C12ClH9N4O
C                     1.301594192335     2.650195884225     3.300796361954
C                     3.139033720330    -0.895464071329     2.131810316706
C                     1.893698696224    -0.641567946628     2.709878320997
C                     3.308813058022    -0.817459212311     0.747446961214
C                     0.955464453645    -0.240817906822     0.509133671297
C                     1.196520389669     2.805793537259     1.891862853478
C                     0.800733799261    -0.287475821327     1.905517228920
C                     2.204693719303    -0.496790702818    -0.046723918779
C                     0.122281941752     2.489633114883     1.096320250903
C                     1.774670564597     3.255227610567    -0.119321211133
C                    -0.491829872847     0.033476395943     2.553485600370
C                     2.435065329313     3.653294769541    -1.389027163587
N                     1.365010529965     2.494584594293     4.454153227077
N                     2.242523116398     3.275928467412     1.090289959081
N                    -1.352476211007     0.958577142792     2.301191829555
N                    -1.113052014080     1.882646491506     1.280173670359
O                     0.481766372246     2.780629118268    -0.196016023174
Cl                    2.401159590732    -0.385815362437    -1.791495579382
H                     3.988714749961    -1.143523508983     2.761393352032
H                     1.777142356640    -0.672830180454     3.789339689774
H                     4.276222343088    -1.000030694682     0.290853734092
H                     0.116643299275     0.005521805440    -0.131706593166
H                    -0.782661423830    -0.595103382892     3.394598769409
H                     2.517298044365     2.792814831155    -2.060530739107
H                     1.860337195237     4.431469373887    -1.900837138043
H                     3.432579474144     4.030824698555    -1.162865290582
H                    -1.907068908796     2.510402759474     1.209484331729
