27
0 1 C14ClH9N2O
C                     1.074678030134     2.861144674438     1.882596389007
C                     1.263353518712     1.681044918205     1.673623535915
C                     0.948899327708    -1.762205213305     0.260150189690
C                     0.710416674625    -0.407259379882     0.481080622082
C                     1.944468936794    -2.453179843125     0.956391614453
C                     6.265365144979    -4.949218891565     3.211990117631
C                     2.488264482696    -0.397652284041     2.131735533383
C                     5.412036544461    -3.389481334735     4.831501738268
C                     7.268987264846    -5.265129267126     4.123985245805
C                     1.487138243019     0.287890294086     1.427312653227
C                     5.320587478021    -3.977078730485     3.566659464142
C                     2.719734299464    -1.760962583503     1.901638518719
C                     6.460965319534    -3.800466900070     5.663734810994
C                     4.231066016544    -3.651791646966     2.575616373415
N                     7.372713099696    -4.698680809024     5.339169234143
N                     3.740534199519    -2.371376814677     2.666136776185
O                     3.850369655146    -4.490120137353     1.763210385416
Cl                    6.583552279030    -3.081020377273     7.264001293666
H                     0.905385244428     3.901478203998     2.063999347554
H                     0.350756705467    -2.300044869701    -0.470298599372
H                    -0.064763104215     0.120156988328    -0.065565495619
H                     2.126629190262    -3.502843338421     0.774176564684
H                     6.201366278492    -5.440228158728     2.247131265633
H                     3.083973143774     0.145392708657     2.861828747110
H                     4.685581196511    -2.671794839465     5.198243204486
H                     8.027833322315    -6.005645573244     3.880993367874
H                     4.226943905993    -1.749499245135     3.299012674913
