27
0 1 C12ClH9N4O
C                     0.412593316828     5.024470563267     3.725237157471
C                     0.574373632971    -2.099788877628     1.594170768672
C                     0.316515209237    -0.843007226570     2.145906348740
C                     1.213803661334    -3.091507145558     2.342224886650
C                     1.314220778632    -1.567545132648     4.235300328539
C                     0.974401880354     4.647328722236     2.476651789352
C                     0.694542363742    -0.561314084464     3.472777886483
C                     1.574231635962    -2.810728887348     3.663071265590
C                     1.176202334326     3.391286231198     1.953480115594
C                     1.865272349529     4.902347046589     0.532492992738
C                     0.427351995149     0.738546237573     4.126208419811
C                     2.466645154133     5.356051754615    -0.748210458093
N                    -0.045442500288     5.368021960083     4.741265879377
N                     1.429267608472     5.587816989852     1.532716032752
N                     0.508953322412     1.929253456829     3.641907759693
N                     0.906240886935     2.104565368718     2.347008526924
O                     1.738521246937     3.523402889076     0.721560427001
Cl                    2.361338233030    -4.049715626462     4.621892877670
H                     0.267823417998    -2.315398761257     0.574411273346
H                    -0.225514535815    -0.103785822378     1.564274753985
H                     1.419365094162    -4.068218778601     1.916207264755
H                     1.597182088631    -1.375013963661     5.266060941815
H                     0.144427468258     0.716858713943     5.177278177085
H                     3.482855748954     4.965596449976    -0.865169289864
H                     1.873979828237     5.015139480968    -1.603382045251
H                     2.500535700037     6.445882467254    -0.748711022692
H                     1.406512665615     1.363795189832     1.854516611052
