20
0 1 C4Cl3H7NO4P
C                    -1.565790883736    -0.316703993207    -0.231025736544
C                     2.383820395619     1.129692467729     0.622495928988
C                     1.259690850399    -2.550017521101    -1.349206620818
C                    -2.754107449691     0.352696595036     0.555054494865
N                    -0.502190564662     0.518743090226    -0.446542447941
O                    -1.610543696782    -1.487247549863    -0.545697768638
O                     0.773293754218     0.094936672348    -2.794205133149
O                     1.924945234653     1.179323056382    -0.750509082186
O                     1.383945633586    -1.280560816406    -0.644735432075
P                     0.919134845309     0.081129750991    -1.330487389749
Cl                   -2.169930687182     0.687828274420     2.234876479245
Cl                   -3.217896486734     1.912718769829    -0.236828212285
Cl                   -4.152040798028    -0.730475994063     0.603433828129
H                     2.997445150221     2.018943162505     0.764514048114
H                     2.976602992477     0.227690517797     0.784423261144
H                     1.535389324893     1.144968961826     1.313382397885
H                     1.953729432145    -3.227839700064    -0.852527082256
H                     1.531110064586    -2.423130314130    -2.398342981527
H                     0.233198458794    -2.903677520292    -1.256320399034
H                    -0.639983113800     1.512665809871    -0.285332918213
