
  -OEChem-05262117483D

 20 19  0     1  0  0  0  0  0999 V2000
   -0.5176   -1.2701    1.3926 C   0  0  0  0  0  0  0  0  0  0  0  0
   -0.9156   -2.7176    1.1758 C   0  0  0  0  0  0  0  0  0  0  0  0
    1.2786    1.0461   -1.9417 C   0  0  0  0  0  0  0  0  0  0  0  0
    0.7885    2.2323    2.8201 C   0  0  0  0  0  0  0  0  0  0  0  0
   -0.4167   -0.5115    0.2298 N   0  0  0  0  0  0  0  0  0  0  0  0
   -0.2972   -0.7917    2.4957 O   0  0  0  0  0  0  0  0  0  0  0  0
   -1.4852    1.9296    0.7023 O   0  0  0  0  0  0  0  0  0  0  0  0
    0.0170    1.4180   -1.3468 O   0  0  0  0  0  0  0  0  0  0  0  0
   -0.2857    1.2089    0.2266 P   0  0  2  0  0  0  0  0  0  0  0  0
    1.5060    1.6993    1.2129 S   0  0  0  0  0  0  0  0  0  0  0  0
   -0.3631   -3.1718    0.3475 H   0  0  0  0  0  0  0  0  0  0  0  0
   -1.9847   -2.7716    0.9421 H   0  0  0  0  0  0  0  0  0  0  0  0
   -0.7290   -3.2764    2.0928 H   0  0  0  0  0  0  0  0  0  0  0  0
    1.1428    1.1347   -3.0198 H   0  0  0  0  0  0  0  0  0  0  0  0
    1.5482    0.0166   -1.6844 H   0  0  0  0  0  0  0  0  0  0  0  0
    2.0656    1.7292   -1.6118 H   0  0  0  0  0  0  0  0  0  0  0  0
    1.6211    2.6594    3.3828 H   0  0  0  0  0  0  0  0  0  0  0  0
    0.3770    1.3658    3.3355 H   0  0  0  0  0  0  0  0  0  0  0  0
    0.0200    2.9854    2.6499 H   0  0  0  0  0  0  0  0  0  0  0  0
   -0.7527   -0.9304   -0.6331 H   0  0  0  0  0  0  0  0  0  0  0  0
  1  2  1  0  0  0  0
  1  5  1  0  0  0  0
  1  6  2  0  0  0  0
  2 11  1  0  0  0  0
  2 12  1  0  0  0  0
  2 13  1  0  0  0  0
  3  8  1  0  0  0  0
  3 14  1  0  0  0  0
  3 15  1  0  0  0  0
  3 16  1  0  0  0  0
  4 10  1  0  0  0  0
  4 17  1  0  0  0  0
  4 18  1  0  0  0  0
  4 19  1  0  0  0  0
  5  9  1  0  0  0  0
  5 20  1  0  0  0  0
  7  9  2  0  0  0  0
  8  9  1  0  0  0  0
  9 10  1  0  0  0  0
M  END
$$$$
