48
0 1 C24Cl2H16O4S2
C                     3.895913519329    -0.559386810480    -2.719417756240
C                     4.713864548939    -0.654943054089    -0.454865574657
C                     1.814095298688    -0.228889262932     0.333397158198
C                     1.720317783728     1.228089853199    -1.583688011550
C                     5.097332608272    -1.091049577092    -3.190976088421
C                     5.923596784316    -1.179238964832    -0.909068730573
C                     0.606657866744     0.289482350183     0.804342152825
C                     0.508254665616     1.750170485259    -1.133144549971
C                     7.635850510615    -4.031760781290    -6.865674917235
C                     7.956197878334    -4.550846333839    -4.511937812118
C                    -2.089128025916     3.193382405367     3.317191753636
C                    -2.532347288600     1.469836921118     4.974014579876
C                     7.941908590783    -5.351376082367    -7.203621009739
C                     8.271616939313    -5.869110264490    -4.852212347849
C                    -2.335888952655     4.174522875948     4.281351329701
C                    -2.769282913275     2.450797434405     5.938741968380
C                     3.678281728955    -0.332055185959    -1.349660374401
C                     2.394307333241     0.226246821823    -0.863034255615
C                     6.107562606303    -1.392177366105    -2.275936905385
C                    -0.041715192979     1.274922031052     0.058115183211
C                     7.646755916283    -3.641151232078    -5.525399733504
C                    -2.197107768193     1.847097530683     3.672332993925
C                     8.261273466925    -6.260178456883    -6.192287894186
C                    -2.672815209546     3.797892437065     5.582680282543
O                     7.326620060696    -1.974185443987    -2.650997963415
O                    -1.233328146657     1.885242412647     0.474801659305
O                     7.273241013520    -2.316929850848    -5.269054952388
O                    -1.923963113501     0.802353742997     2.782099775821
S                     8.075537388415    -1.461406133299    -4.063172994520
S                    -2.427070260718     0.941230740285     1.182973934627
Cl                    8.651248532662    -7.920520211030    -6.612966943542
Cl                   -2.976848424867     5.035549226846     6.791636744129
H                     3.099882211017    -0.354003890293    -3.429657950265
H                     4.587929146558    -0.461571493482     0.606688950613
H                     2.301777575809    -1.017264033186     0.899829635148
H                     2.156719344192     1.619542820925    -2.498245955538
H                     5.237105883585    -1.286757539752    -4.248539067033
H                     6.730770887193    -1.413342104985    -0.221346826064
H                     0.176843324277    -0.068958288846     1.733398345862
H                    -0.012611510038     2.525734642550    -1.686778357487
H                     7.390650995322    -3.302023470987    -7.631268095268
H                     7.943306560554    -4.243054494501    -3.472210645556
H                    -1.808781279971     3.476718748548     2.308693371609
H                    -2.607698646705     0.415107554175     5.220256886489
H                     7.939965118683    -5.667518004708    -8.241807492727
H                     8.513465656883    -6.589346446689    -4.077152639319
H                    -2.256047245453     5.225493100281     4.022467603954
H                    -3.034193602319     2.171321714148     6.953381769444
