
  -OEChem-05262117483D

 48 51  0     0  0  0  0  0  0999 V2000
    3.6324   -4.1042   -1.5926 C   0  0  0  0  0  0  0  0  0  0  0  0
    5.0765   -4.0285    0.3390 C   0  0  0  0  0  0  0  0  0  0  0  0
    2.6288   -3.3063    1.9353 C   0  0  0  0  0  0  0  0  0  0  0  0
    1.9698   -2.1138   -0.0565 C   0  0  0  0  0  0  0  0  0  0  0  0
    4.6952   -4.5447   -2.3804 C   0  0  0  0  0  0  0  0  0  0  0  0
    6.1443   -4.4756   -0.4363 C   0  0  0  0  0  0  0  0  0  0  0  0
    1.7521   -2.5359    2.6967 C   0  0  0  0  0  0  0  0  0  0  0  0
    1.0936   -1.3316    0.6945 C   0  0  0  0  0  0  0  0  0  0  0  0
    7.7145   -1.4739   -0.3218 C   0  0  0  0  0  0  0  0  0  0  0  0
    6.0217   -1.3411   -2.0535 C   0  0  0  0  0  0  0  0  0  0  0  0
    1.9339    3.1658    1.2442 C   0  0  0  0  0  0  0  0  0  0  0  0
   -0.2849    2.2599    1.6529 C   0  0  0  0  0  0  0  0  0  0  0  0
    6.8684   -0.8024    0.5633 C   0  0  0  0  0  0  0  0  0  0  0  0
    5.1727   -0.6777   -1.1659 C   0  0  0  0  0  0  0  0  0  0  0  0
    1.3978    4.0892    0.3474 C   0  0  0  0  0  0  0  0  0  0  0  0
   -0.8208    3.1907    0.7566 C   0  0  0  0  0  0  0  0  0  0  0  0
    3.8166   -3.7882   -0.2337 C   0  0  0  0  0  0  0  0  0  0  0  0
    2.7702   -3.0954    0.5514 C   0  0  0  0  0  0  0  0  0  0  0  0
    5.9579   -4.6756   -1.8019 C   0  0  0  0  0  0  0  0  0  0  0  0
    1.0031   -1.5409    2.0685 C   0  0  0  0  0  0  0  0  0  0  0  0
    7.2757   -1.7661   -1.6145 C   0  0  0  0  0  0  0  0  0  0  0  0
    1.0896    2.2621    1.8960 C   0  0  0  0  0  0  0  0  0  0  0  0
    5.5896   -0.4291    0.1428 C   0  0  0  0  0  0  0  0  0  0  0  0
    0.0204    4.0962    0.1106 C   0  0  0  0  0  0  0  0  0  0  0  0
    7.0995   -4.9208   -2.5849 O   0  0  0  0  0  0  0  0  0  0  0  0
    0.1324   -0.7130    2.7915 O   0  0  0  0  0  0  0  0  0  0  0  0
    8.1719   -2.5098   -2.4033 O   0  0  0  0  0  0  0  0  0  0  0  0
    1.7411    1.3583    2.7399 O   0  0  0  0  0  0  0  0  0  0  0  0
    7.5590   -3.5975   -3.5325 S   0  0  0  0  0  0  0  0  0  0  0  0
    0.8770    0.4107    3.8142 S   0  0  0  0  0  0  0  0  0  0  0  0
    4.4766    0.3223    1.2727 Cl  0  0  0  0  0  0  0  0  0  0  0  0
   -0.6579    5.2555   -1.0227 Cl  0  0  0  0  0  0  0  0  0  0  0  0
    2.6520   -3.9827   -2.0447 H   0  0  0  0  0  0  0  0  0  0  0  0
    5.2530   -3.7724    1.3790 H   0  0  0  0  0  0  0  0  0  0  0  0
    3.2091   -4.0847    2.4224 H   0  0  0  0  0  0  0  0  0  0  0  0
    2.0787   -1.9136   -1.1181 H   0  0  0  0  0  0  0  0  0  0  0  0
    4.5636   -4.7371   -3.4412 H   0  0  0  0  0  0  0  0  0  0  0  0
    7.1388   -4.5835   -0.0157 H   0  0  0  0  0  0  0  0  0  0  0  0
    1.6586   -2.6885    3.7680 H   0  0  0  0  0  0  0  0  0  0  0  0
    0.5110   -0.5375    0.2375 H   0  0  0  0  0  0  0  0  0  0  0  0
    8.6991   -1.8069   -0.0083 H   0  0  0  0  0  0  0  0  0  0  0  0
    5.6855   -1.5673   -3.0590 H   0  0  0  0  0  0  0  0  0  0  0  0
    3.0006    3.1323    1.4412 H   0  0  0  0  0  0  0  0  0  0  0  0
   -0.9349    1.5447    2.1433 H   0  0  0  0  0  0  0  0  0  0  0  0
    7.1908   -0.5955    1.5789 H   0  0  0  0  0  0  0  0  0  0  0  0
    4.1830   -0.3696   -1.4857 H   0  0  0  0  0  0  0  0  0  0  0  0
    2.0438    4.7971   -0.1618 H   0  0  0  0  0  0  0  0  0  0  0  0
   -1.8878    3.2013    0.5581 H   0  0  0  0  0  0  0  0  0  0  0  0
  1  5  1  0  0  0  0
  1 17  2  0  0  0  0
  1 33  1  0  0  0  0
  2  6  2  0  0  0  0
  2 17  1  0  0  0  0
  2 34  1  0  0  0  0
  3  7  2  0  0  0  0
  3 18  1  0  0  0  0
  3 35  1  0  0  0  0
  4  8  1  0  0  0  0
  4 18  2  0  0  0  0
  4 36  1  0  0  0  0
  5 19  2  0  0  0  0
  5 37  1  0  0  0  0
  6 19  1  0  0  0  0
  6 38  1  0  0  0  0
  7 20  1  0  0  0  0
  7 39  1  0  0  0  0
  8 20  2  0  0  0  0
  8 40  1  0  0  0  0
  9 13  2  0  0  0  0
  9 21  1  0  0  0  0
  9 41  1  0  0  0  0
 10 14  1  0  0  0  0
 10 21  2  0  0  0  0
 10 42  1  0  0  0  0
 11 15  2  0  0  0  0
 11 22  1  0  0  0  0
 11 43  1  0  0  0  0
 12 16  1  0  0  0  0
 12 22  2  0  0  0  0
 12 44  1  0  0  0  0
 13 23  1  0  0  0  0
 13 45  1  0  0  0  0
 14 23  2  0  0  0  0
 14 46  1  0  0  0  0
 15 24  1  0  0  0  0
 15 47  1  0  0  0  0
 16 24  2  0  0  0  0
 16 48  1  0  0  0  0
 17 18  1  0  0  0  0
 19 25  1  0  0  0  0
 20 26  1  0  0  0  0
 21 27  1  0  0  0  0
 22 28  1  0  0  0  0
 23 31  1  0  0  0  0
 24 32  1  0  0  0  0
 25 29  1  0  0  0  0
 26 30  1  0  0  0  0
 27 29  1  0  0  0  0
 28 30  1  0  0  0  0
M  END
$$$$
