
  -OEChem-05262117483D

 14 14  0     0  0  0  0  0  0999 V2000
    0.3401   -3.2542    0.8002 C   0  0  0  0  0  0  0  0  0  0  0  0
    0.3819   -2.0129    0.2040 C   0  0  0  0  0  0  0  0  0  0  0  0
    0.8025   -0.7065    0.8335 C   0  0  0  0  0  0  0  0  0  0  0  0
   -0.0393   -4.2825   -0.0251 N   0  0  0  0  0  0  0  0  0  0  0  0
   -0.3032   -3.9330   -1.2295 N   0  0  0  0  0  0  0  0  0  0  0  0
    2.0338    0.1429   -1.0272 N   0  0  0  0  0  0  0  0  0  0  0  0
    2.0897   -0.1808    0.3679 N   0  0  0  0  0  0  0  0  0  0  0  0
   -0.0876   -2.2173   -1.4343 S   0  0  0  0  0  0  0  0  0  0  0  0
    0.5703   -3.4684    1.8382 H   0  0  0  0  0  0  0  0  0  0  0  0
    0.0508    0.0647    0.6501 H   0  0  0  0  0  0  0  0  0  0  0  0
    0.8788   -0.8499    1.9164 H   0  0  0  0  0  0  0  0  0  0  0  0
    2.6078    0.9702   -1.1743 H   0  0  0  0  0  0  0  0  0  0  0  0
    2.4037   -0.6087   -1.6109 H   0  0  0  0  0  0  0  0  0  0  0  0
    2.8250   -0.8615    0.5624 H   0  0  0  0  0  0  0  0  0  0  0  0
  1  2  2  0  0  0  0
  1  4  1  0  0  0  0
  1  9  1  0  0  0  0
  2  3  1  0  0  0  0
  2  8  1  0  0  0  0
  3  7  1  0  0  0  0
  3 10  1  0  0  0  0
  3 11  1  0  0  0  0
  4  5  2  0  0  0  0
  5  8  1  0  0  0  0
  6  7  1  0  0  0  0
  6 12  1  0  0  0  0
  6 13  1  0  0  0  0
  7 14  1  0  0  0  0
M  END
$$$$
