
  -OEChem-05262117483D

 20 19  0     1  0  0  0  0  0999 V2000
   -1.0624   -1.7617    0.6054 C   0  0  0  0  0  0  0  0  0  0  0  0
   -1.3746   -1.4778    2.0551 C   0  0  0  0  0  0  0  0  0  0  0  0
    1.2641    1.3179   -1.8482 C   0  0  0  0  0  0  0  0  0  0  0  0
    1.0203    2.5725    2.3471 C   0  0  0  0  0  0  0  0  0  0  0  0
   -0.5165   -0.7029   -0.1493 N   0  0  0  0  0  0  0  0  0  0  0  0
   -1.2496   -2.8383    0.0625 O   0  0  0  0  0  0  0  0  0  0  0  0
   -1.5539    1.5918    0.8694 O   0  0  0  0  0  0  0  0  0  0  0  0
    0.0115    1.5718   -1.1780 O   0  0  0  0  0  0  0  0  0  0  0  0
   -0.3756    0.9408    0.2550 P   0  0  2  0  0  0  0  0  0  0  0  0
    1.3383    0.9767    1.4877 S   0  0  0  0  0  0  0  0  0  0  0  0
   -2.0840   -0.6496    2.1371 H   0  0  0  0  0  0  0  0  0  0  0  0
   -0.4673   -1.1861    2.5924 H   0  0  0  0  0  0  0  0  0  0  0  0
   -1.7929   -2.3805    2.4992 H   0  0  0  0  0  0  0  0  0  0  0  0
    1.2093    1.8541   -2.7954 H   0  0  0  0  0  0  0  0  0  0  0  0
    1.4018    0.2485   -2.0389 H   0  0  0  0  0  0  0  0  0  0  0  0
    2.0982    1.6901   -1.2490 H   0  0  0  0  0  0  0  0  0  0  0  0
    1.7316    2.6182    3.1738 H   0  0  0  0  0  0  0  0  0  0  0  0
   -0.0014    2.5873    2.7262 H   0  0  0  0  0  0  0  0  0  0  0  0
    1.1832    3.4159    1.6750 H   0  0  0  0  0  0  0  0  0  0  0  0
   -0.4402   -0.9459   -1.1350 H   0  0  0  0  0  0  0  0  0  0  0  0
  1  2  1  0  0  0  0
  1  5  1  0  0  0  0
  1  6  2  0  0  0  0
  2 11  1  0  0  0  0
  2 12  1  0  0  0  0
  2 13  1  0  0  0  0
  3  8  1  0  0  0  0
  3 14  1  0  0  0  0
  3 15  1  0  0  0  0
  3 16  1  0  0  0  0
  4 10  1  0  0  0  0
  4 17  1  0  0  0  0
  4 18  1  0  0  0  0
  4 19  1  0  0  0  0
  5  9  1  0  0  0  0
  5 20  1  0  0  0  0
  7  9  2  0  0  0  0
  8  9  1  0  0  0  0
  9 10  1  0  0  0  0
M  END
$$$$
