48
0 1 C24Cl2H16O4S2
C                     5.112783677931    -2.824049510723     0.501155721584
C                     6.504560880229    -1.805766843157     2.194641850017
C                     3.828211079130    -2.178002703436     3.824973985714
C                     2.973831220457    -1.078178383921     1.849565618485
C                     6.242206053611    -3.116836572587    -0.260247658840
C                     7.640749283975    -2.067971145318     1.425128204410
C                     2.631492052212    -1.913454024521     4.495499022612
C                     1.787948451621    -0.783174043086     2.518745402245
C                     5.725187848254    -1.507193583044    -3.247614761379
C                     6.411993646468     0.031307610771    -1.499565207796
C                    -0.668590417934    -2.284489007080     0.650266000690
C                     0.545126543007    -3.892301588527     2.005437491151
C                     4.388884621040    -1.167372943773    -3.032331798139
C                     5.075116007975     0.367695694439    -1.277554174373
C                     0.124463257840    -2.604060399921    -0.452717183974
C                     1.344452662094    -4.208586997268     0.905138415010
C                     5.225901487501    -2.150324983741     1.728240683135
C                     4.001463602652    -1.793394590012     2.485822123490
C                     7.493149578259    -2.699884047358     0.191084361451
C                     1.612462488056    -1.239152831965     3.823973221648
C                     6.725546241216    -0.922142990206    -2.468864316976
C                    -0.441770349022    -2.914482847966     1.875415840558
C                     4.074580737531    -0.240034534047    -2.038284171505
C                     1.134292732224    -3.556431833937    -0.311307428137
O                     8.603020533497    -2.897026895193    -0.651434984899
O                     0.361439115858    -1.036658102785     4.435959273183
O                     8.027414102837    -1.374424460249    -2.729952505022
O                    -1.257759877466    -2.480478825398     2.930680602544
S                     9.119195045168    -1.507607304371    -1.454130518164
S                    -0.615558590385    -2.409667447920     4.486461469620
Cl                    2.388739346505     0.160438259235    -1.731895731297
Cl                    2.166310173125    -3.932405098225    -1.686052188768
H                     4.133631760056    -3.108363455883     0.131215940056
H                     6.606954215112    -1.287237889782     3.144392385728
H                     4.616947933599    -2.728902490434     4.330730373967
H                     3.095505238138    -0.762748612395     0.818968774973
H                     6.158272769384    -3.619921452027    -1.217491227435
H                     8.627328574425    -1.759488200543     1.758969871465
H                     2.473759941731    -2.251875889671     5.515569996935
H                     0.983965636581    -0.247700443834     2.025469515628
H                     6.000012460670    -2.246662239996    -3.993509778128
H                     7.191914588527     0.473381072500    -0.889529692877
H                    -1.443210020362    -1.527019567082     0.580222464636
H                     0.724670914770    -4.369543569706     2.962437273096
H                     3.601111006682    -1.633795034321    -3.614187584111
H                     4.816212485709     1.091169351062    -0.511221360061
H                    -0.026037333843    -2.103239398798    -1.403095630780
H                     2.130329615369    -4.951076716333     0.999042546201
