
  -OEChem-05262117483D

 20 19  0     0  0  0  0  0  0999 V2000
   -1.3057    0.4676    1.1522 C   0  0  0  0  0  0  0  0  0  0  0  0
    2.5515    0.3370   -1.4029 C   0  0  0  0  0  0  0  0  0  0  0  0
    1.3552   -1.9521    1.1553 C   0  0  0  0  0  0  0  0  0  0  0  0
   -2.6723    1.1635    1.5023 C   0  0  0  0  0  0  0  0  0  0  0  0
   -1.1763    0.1275   -0.1678 N   0  0  0  0  0  0  0  0  0  0  0  0
   -0.4704    0.2593    2.0070 O   0  0  0  0  0  0  0  0  0  0  0  0
   -0.1578   -0.9356   -2.3078 O   0  0  0  0  0  0  0  0  0  0  0  0
    1.3331    0.4330   -0.6229 O   0  0  0  0  0  0  0  0  0  0  0  0
    0.5212   -1.9181   -0.0315 O   0  0  0  0  0  0  0  0  0  0  0  0
    0.1682   -0.6357   -0.9019 P   0  0  0  0  0  0  0  0  0  0  0  0
   -4.0114    0.0114    1.1202 Cl  0  0  0  0  0  0  0  0  0  0  0  0
   -2.7198    1.5980    3.2187 Cl  0  0  0  0  0  0  0  0  0  0  0  0
   -2.8493    2.6484    0.4873 Cl  0  0  0  0  0  0  0  0  0  0  0  0
    3.1435    1.2129   -1.1387 H   0  0  0  0  0  0  0  0  0  0  0  0
    2.3160    0.3421   -2.4691 H   0  0  0  0  0  0  0  0  0  0  0  0
    3.1005   -0.5738   -1.1455 H   0  0  0  0  0  0  0  0  0  0  0  0
    2.0779   -2.7555    1.0013 H   0  0  0  0  0  0  0  0  0  0  0  0
    0.7177   -2.1653    2.0126 H   0  0  0  0  0  0  0  0  0  0  0  0
    1.8601   -0.9986    1.3086 H   0  0  0  0  0  0  0  0  0  0  0  0
   -1.9296    0.3455   -0.8142 H   0  0  0  0  0  0  0  0  0  0  0  0
  1  4  1  0  0  0  0
  1  5  1  0  0  0  0
  1  6  2  0  0  0  0
  2  8  1  0  0  0  0
  2 14  1  0  0  0  0
  2 15  1  0  0  0  0
  2 16  1  0  0  0  0
  3  9  1  0  0  0  0
  3 17  1  0  0  0  0
  3 18  1  0  0  0  0
  3 19  1  0  0  0  0
  4 11  1  0  0  0  0
  4 12  1  0  0  0  0
  4 13  1  0  0  0  0
  5 10  1  0  0  0  0
  5 20  1  0  0  0  0
  7 10  2  0  0  0  0
  8 10  1  0  0  0  0
  9 10  1  0  0  0  0
M  END
$$$$
