42
0 1 C19H20O3
C                     5.614387564986     2.556190352096     6.623489082032
C                     6.000144241670     2.966241829695     7.702156954873
C                    -1.017080043562    -3.750587412916    -5.785285720888
C                    -1.674441278751    -4.154422259521    -4.614350297923
C                     0.078448992160    -2.892010184109    -5.687836737398
C                     5.824942049385     2.491111159750     4.162813353757
C                     4.063298012636     1.229545016444     5.236894673085
C                    -1.241821065172    -3.705814290049    -3.368695539655
C                     0.525814199536    -2.431954307075    -4.441787546313
C                     5.392113255317     2.042716803243     2.922970681088
C                     3.619973575982     0.774212278854     3.993604072215
C                     5.167327587025     2.091641744669     5.347138891649
C                    -0.138570974107    -2.841529250012    -3.277382498218
C                     4.285904814931     1.180498575930     2.827494025731
C                     6.481945587238     3.406609933194     9.017734782003
C                     1.487265695350    -1.301281946030    -0.364075974149
C                     2.662640269516    -0.358171494208    -0.085604044851
C                     1.321610891840    -1.573476150826    -1.852224263001
C                     2.824791766430    -0.086083183065     1.402374727374
O                     7.706957253645     2.780706933777     9.420294004607
O                     0.209829866169    -2.455748956149    -2.008899511341
O                     3.939558663929     0.796506588824     1.563821153864
H                    -1.356242889101    -4.101612432395    -6.755745405651
H                    -2.529600260907    -4.823032315221    -4.672938004633
H                     0.598618379013    -2.570165096714    -6.586581876770
H                     6.679952173991     3.157175788399     4.230975521949
H                     3.546037274781     0.913852878857     6.138270659294
H                    -1.740956790341    -4.009800069925    -2.453026471694
H                     1.379681243158    -1.765680378257    -4.395939182979
H                     5.894047904588     2.345571323954     2.008741514901
H                     2.764097172406     0.110876119654     3.948223998963
H                     6.692815942805     4.479708893239     9.001729679680
H                     5.693789753472     3.235688419410     9.765201148145
H                     1.634069111074    -2.257121565151     0.152272245234
H                     0.554052132685    -0.872078470948     0.018918577416
H                     2.516903018869     0.597268601410    -0.602888341676
H                     3.596126845287    -0.788282132491    -0.466758059868
H                     1.138047376828    -0.637576172425    -2.397962439611
H                     2.229184040613    -2.036346636774    -2.264005679110
H                     3.008013305961    -1.020785363558     1.949414621713
H                     1.918584000696     0.379868749407     1.812488833095
H                     7.612911218293     1.827007677720     9.266933390021
