51
0 1 C23H23NO4
C                    -7.705930702774    -7.912188210012   -11.838673132902
C                    -8.145042989375    -6.587715003932   -12.105339843602
C                    -6.722971465996    -8.142318081289   -10.899460547496
C                    -5.124502042672    -7.222863014974    -9.212269833959
C                    -2.671442841368    -0.543045633002    -6.025905376760
C                    -1.315018926035    -2.243254915562    -5.004513999461
C                    -7.597400256358    -5.516434079819   -11.431096167317
C                    -3.344371390573    -1.512616628141    -6.773163950887
C                    -1.973056640203    -3.221991064194    -5.746124437672
C                    -4.609881608050    -6.119325289636    -8.568938615947
C                    -6.139615981225    -7.058062504570   -10.189158243941
C                    -1.646859445967    -0.882879067778    -5.136138358488
C                    -6.582515239866    -5.723191373766   -10.457438738755
C                    -2.991278674644    -2.863088278832    -6.639997945184
C                    -5.119171555961    -4.837470873080    -8.909014085796
C                     0.275273328231     0.732585172714    -5.304788151548
C                    -1.108869122234     0.133810294832    -0.747979382281
C                     0.374453446173     0.525768335747    -0.846827859573
C                    -1.385436241120    -0.665388509510    -2.042087765001
C                     0.538347343721     0.863988134579    -2.335354610675
C                    -0.283452592830    -0.229226809200    -3.056152477439
C                    -4.613535380894    -3.572064665384    -8.250839711613
C                    -0.886582810826     0.229025039221    -4.411814451674
N                    -6.062899785134    -4.639746517700    -9.810979496041
O                     0.497763812083     1.917793044811    -5.447114664569
O                     1.062971598339    -0.198668079433    -5.879090033382
O                    -1.762003226363     1.326830224879    -4.204204097604
O                    -3.578892247342    -3.891196592426    -7.322791860459
H                    -8.149373818002    -8.743640841604   -12.379954256246
H                    -8.920345172196    -6.421620364200   -12.848783944349
H                    -6.382828843559    -9.154476406368   -10.691691228593
H                    -4.760468376242    -8.221378431880    -8.979585793623
H                    -2.954218595378     0.499576106443    -6.122071190182
H                    -0.555610189146    -2.564419264102    -4.297703905656
H                    -7.920037315658    -4.496991244137   -11.621442559397
H                    -4.134677938110    -1.203394057670    -7.447402388317
H                    -1.718333448564    -4.271917809277    -5.635829836146
H                    -3.833656841805    -6.204880210967    -7.817990771769
H                    -1.345369064728    -0.434027528619     0.157217485644
H                    -1.723114098987     1.040975537936    -0.737369225746
H                     0.646977328370     1.357215231058    -0.189153134512
H                     1.010990711438    -0.328122277428    -0.580538441640
H                    -1.321266677940    -1.742253830143    -1.857900148970
H                    -2.385427146967    -0.465906788364    -2.432509276383
H                     0.104016596560     1.849563819283    -2.530611534431
H                     1.580722042077     0.892033939358    -2.666520096281
H                     0.389172409744    -1.072738161732    -3.243220659033
H                    -4.238136258004    -2.892210678770    -9.025474882435
H                    -5.447990913237    -3.076604462243    -7.738950937378
H                     0.634296993544    -1.072593839231    -5.800497401360
H                    -1.255938195502     2.124708377531    -4.452271827465
