32
0 1 C12H17NO2
C                     1.125432495931    -1.417780107872    -5.532105366574
C                    -0.030766934540    -0.809743035981    -6.023267364863
C                     1.419640096974    -1.382315529647    -4.166469650777
C                    -0.597944186079    -0.100988094216    -3.788376423206
C                    -0.907167243393    -0.146013978578    -5.152045160852
C                     0.555108687904    -0.718116451754    -3.287569477029
C                    -0.092260390356    -0.838502647899    -0.942606489905
C                    -3.379397947654    -0.507712280142    -5.548125269983
C                     3.152487452941    -1.444253314400    -1.130739376047
C                    -2.193340926054     0.467696238144    -5.659343634998
C                     0.245181983653    -0.547309118537     0.528658638171
C                     2.253863463399    -0.260353854123    -1.509149416723
N                     0.874936736983    -0.621159052725    -1.890322291615
O                    -1.235173869142    -1.222994829179    -1.205024955375
O                    -0.843804013988    -0.895501627036     1.347807291061
H                     1.801140701897    -1.931585223290    -6.210957059800
H                    -0.255382329481    -0.848608048752    -7.086923490966
H                     2.310596118230    -1.876831992859    -3.796589518104
H                    -1.266840076850     0.410890043557    -3.105036788640
H                    -3.194674280400    -1.413487390588    -6.135122642278
H                    -4.302366845900    -0.044601145565    -5.913778790190
H                    -3.535344952900    -0.812438611774    -4.508450529008
H                     2.727850009880    -2.027101889737    -0.309340211857
H                     3.307311316599    -2.122705330662    -1.972571268282
H                     4.132052610591    -1.073394780690    -0.810474168382
H                    -2.418399062400     1.376061718663    -5.089036226173
H                    -2.068537481352     0.774084874148    -6.703981211526
H                     1.135560672571    -1.101259336982     0.845641677104
H                     0.470082213519     0.526071892962     0.627105951511
H                     2.683588167450     0.280355562038    -2.354863485269
H                     2.214163684162     0.451650754309    -0.680448284372
H                    -1.551480598433    -1.170161951095     0.727434172329
