
  -OEChem-05262117483D

 42 43  0     0  0  0  0  0  0999 V2000
    5.6144    2.5562    6.6235 C   0  0  0  0  0  0  0  0  0  0  0  0
    6.0001    2.9662    7.7022 C   0  0  0  0  0  0  0  0  0  0  0  0
   -1.0171   -3.7506   -5.7853 C   0  0  0  0  0  0  0  0  0  0  0  0
   -1.6744   -4.1544   -4.6144 C   0  0  0  0  0  0  0  0  0  0  0  0
    0.0784   -2.8920   -5.6878 C   0  0  0  0  0  0  0  0  0  0  0  0
    5.8249    2.4911    4.1628 C   0  0  0  0  0  0  0  0  0  0  0  0
    4.0633    1.2295    5.2369 C   0  0  0  0  0  0  0  0  0  0  0  0
   -1.2418   -3.7058   -3.3687 C   0  0  0  0  0  0  0  0  0  0  0  0
    0.5258   -2.4320   -4.4418 C   0  0  0  0  0  0  0  0  0  0  0  0
    5.3921    2.0427    2.9230 C   0  0  0  0  0  0  0  0  0  0  0  0
    3.6200    0.7742    3.9936 C   0  0  0  0  0  0  0  0  0  0  0  0
    5.1673    2.0916    5.3471 C   0  0  0  0  0  0  0  0  0  0  0  0
   -0.1386   -2.8415   -3.2774 C   0  0  0  0  0  0  0  0  0  0  0  0
    4.2859    1.1805    2.8275 C   0  0  0  0  0  0  0  0  0  0  0  0
    6.4819    3.4066    9.0177 C   0  0  0  0  0  0  0  0  0  0  0  0
    1.4873   -1.3013   -0.3641 C   0  0  0  0  0  0  0  0  0  0  0  0
    2.6626   -0.3582   -0.0856 C   0  0  0  0  0  0  0  0  0  0  0  0
    1.3216   -1.5735   -1.8522 C   0  0  0  0  0  0  0  0  0  0  0  0
    2.8248   -0.0861    1.4024 C   0  0  0  0  0  0  0  0  0  0  0  0
    7.7070    2.7807    9.4203 O   0  0  0  0  0  0  0  0  0  0  0  0
    0.2098   -2.4557   -2.0089 O   0  0  0  0  0  0  0  0  0  0  0  0
    3.9396    0.7965    1.5638 O   0  0  0  0  0  0  0  0  0  0  0  0
   -1.3562   -4.1016   -6.7557 H   0  0  0  0  0  0  0  0  0  0  0  0
   -2.5296   -4.8230   -4.6729 H   0  0  0  0  0  0  0  0  0  0  0  0
    0.5986   -2.5702   -6.5866 H   0  0  0  0  0  0  0  0  0  0  0  0
    6.6800    3.1572    4.2310 H   0  0  0  0  0  0  0  0  0  0  0  0
    3.5460    0.9139    6.1383 H   0  0  0  0  0  0  0  0  0  0  0  0
   -1.7410   -4.0098   -2.4530 H   0  0  0  0  0  0  0  0  0  0  0  0
    1.3797   -1.7657   -4.3959 H   0  0  0  0  0  0  0  0  0  0  0  0
    5.8940    2.3456    2.0087 H   0  0  0  0  0  0  0  0  0  0  0  0
    2.7641    0.1109    3.9482 H   0  0  0  0  0  0  0  0  0  0  0  0
    6.6928    4.4797    9.0017 H   0  0  0  0  0  0  0  0  0  0  0  0
    5.6938    3.2357    9.7652 H   0  0  0  0  0  0  0  0  0  0  0  0
    1.6341   -2.2571    0.1523 H   0  0  0  0  0  0  0  0  0  0  0  0
    0.5541   -0.8721    0.0189 H   0  0  0  0  0  0  0  0  0  0  0  0
    2.5169    0.5973   -0.6029 H   0  0  0  0  0  0  0  0  0  0  0  0
    3.5961   -0.7883   -0.4668 H   0  0  0  0  0  0  0  0  0  0  0  0
    1.1380   -0.6376   -2.3980 H   0  0  0  0  0  0  0  0  0  0  0  0
    2.2292   -2.0363   -2.2640 H   0  0  0  0  0  0  0  0  0  0  0  0
    3.0080   -1.0208    1.9494 H   0  0  0  0  0  0  0  0  0  0  0  0
    1.9186    0.3799    1.8125 H   0  0  0  0  0  0  0  0  0  0  0  0
    7.6129    1.8270    9.2669 H   0  0  0  0  0  0  0  0  0  0  0  0
  1  2  3  0  0  0  0
  1 12  1  0  0  0  0
  2 15  1  0  0  0  0
  3  4  1  0  0  0  0
  3  5  2  0  0  0  0
  3 23  1  0  0  0  0
  4  8  2  0  0  0  0
  4 24  1  0  0  0  0
  5  9  1  0  0  0  0
  5 25  1  0  0  0  0
  6 10  2  0  0  0  0
  6 12  1  0  0  0  0
  6 26  1  0  0  0  0
  7 11  1  0  0  0  0
  7 12  2  0  0  0  0
  7 27  1  0  0  0  0
  8 13  1  0  0  0  0
  8 28  1  0  0  0  0
  9 13  2  0  0  0  0
  9 29  1  0  0  0  0
 10 14  1  0  0  0  0
 10 30  1  0  0  0  0
 11 14  2  0  0  0  0
 11 31  1  0  0  0  0
 13 21  1  0  0  0  0
 14 22  1  0  0  0  0
 15 20  1  0  0  0  0
 15 32  1  0  0  0  0
 15 33  1  0  0  0  0
 16 17  1  0  0  0  0
 16 18  1  0  0  0  0
 16 34  1  0  0  0  0
 16 35  1  0  0  0  0
 17 19  1  0  0  0  0
 17 36  1  0  0  0  0
 17 37  1  0  0  0  0
 18 21  1  0  0  0  0
 18 38  1  0  0  0  0
 18 39  1  0  0  0  0
 19 22  1  0  0  0  0
 19 40  1  0  0  0  0
 19 41  1  0  0  0  0
 20 42  1  0  0  0  0
M  END
$$$$
