42
0 1 C20H19NO2
C                     2.771025948922     0.375007621715    -1.976635508013
C                     2.343394251867    -0.408096315974    -1.151750955167
C                     3.964148528764     3.305433160843    -4.792247605618
C                    -1.056959526088    -4.158102962193    -2.992477451530
C                     4.447422892015     1.996380861320    -4.906117100833
C                     3.094451842107     3.640535693146    -3.747804729262
C                    -0.378317233576    -3.038365741284    -3.483197581557
C                    -1.652301409149    -4.099485711520    -1.728410818900
C                     4.063031095651     1.024929112165    -3.981857973296
C                     2.705685903962     2.678357848693    -2.815033918585
C                    -0.291164720955    -1.871610775949    -2.718222233794
C                    -1.564002381183    -2.930190309275    -0.968542295808
C                     3.190085832432     1.358277273845    -2.928088221598
C                    -0.881026137900    -1.800863804630    -1.446883917815
C                     0.097080951323     1.649142983217    -0.232018351280
C                    -0.688587924181     0.799677969015    -1.221628234325
C                    -0.772159674538    -0.582709666319    -0.554195571459
C                     0.438069108982    -0.591921281571     0.434538539176
C                     1.501557110194     1.320809124865     1.765762384849
C                     1.732303996806    -1.243464546711    -0.113067797032
N                     0.597861650310     0.822883157009     0.739950684474
O                     0.269226933547     2.865370445513    -0.290980927126
O                     2.598193422769    -1.429976653016     1.022476444586
H                     4.264207586191     4.060298493329    -5.514459724938
H                    -1.125452588790    -5.063600550943    -3.589740740001
H                     5.122551643643     1.734473644537    -5.716569408905
H                     2.717190184771     4.655721398712    -3.657790934295
H                     0.085796363725    -3.070967301462    -4.465719305201
H                    -2.188501013076    -4.960175839094    -1.336735379783
H                     4.431873988074     0.006516050042    -4.065338557003
H                     2.029959547218     2.935576925813    -2.003668536404
H                     0.253019844283    -1.021651563150    -3.116339532308
H                    -2.034505163582    -2.891774181656     0.012220532748
H                    -1.667586841049     1.244164510574    -1.412580608395
H                    -0.139778831674     0.797587771950    -2.165212670174
H                    -1.656782846901    -0.573134760328     0.090447328688
H                     0.191718067036    -1.152079113831     1.343463619304
H                     1.391203150860     0.720675997253     2.672139614293
H                     1.239633827591     2.360308507096     1.969876322209
H                     2.545394401443     1.270527844038     1.440579644492
H                     1.469231505347    -2.221774543643    -0.533993569971
H                     3.476392775386    -1.672248447766     0.687408303510
