32
0 1 C12H17NO2
C                     1.323934059172    -0.967620066933    -5.537291488450
C                     0.133355133638    -0.415002777088    -6.016502606824
C                     1.540020488046    -1.089888985633    -4.162530265117
C                    -0.625975480819    -0.084587506013    -3.753459802690
C                    -0.859006169271     0.027544308828    -5.129587144619
C                     0.561131290781    -0.640885641408    -3.270867802869
C                    -0.078111276556    -1.404621349222    -1.059059094881
C                    -3.249084693959    -0.543560495969    -5.727246257644
C                     1.484500326374     1.582650935344    -1.193373171710
C                    -2.179683624262     0.560661074495    -5.638605439409
C                     0.175151650570    -1.426913002722     0.456504314767
C                     1.885863904822     0.110205255245    -1.313577722485
N                     0.803216614065    -0.727473479612    -1.855519692913
O                    -1.057510473649    -2.016184916254    -1.495730181174
O                    -0.855581434907    -2.133233808695     1.102736037739
H                     2.082441273889    -1.313616897474    -6.234611148822
H                    -0.029595584909    -0.329255997267    -7.088748242158
H                     2.453774728270    -1.540488672291    -3.784424263208
H                    -1.380977557988     0.246554092534    -3.046198521812
H                    -2.933039198290    -1.336922480970    -6.412546049266
H                    -4.200921479072    -0.138234512653    -6.087311830551
H                    -3.418031006178    -1.000984340808    -4.747287027016
H                     1.193594521245     1.983498005084    -2.168622365321
H                     0.640097273200     1.704982984886    -0.507711930885
H                     2.323701975034     2.175503457679    -0.814581234425
H                    -2.536475569357     1.356655493864    -4.975057260068
H                    -2.038825630919     1.013320805699    -6.626472382058
H                     1.145529783833    -1.905307992251     0.654600586474
H                     0.224021584026    -0.400751479168     0.844536585752
H                     2.197203739772    -0.287070794382    -0.346687348592
H                     2.747235633810     0.012225655183    -1.979221380079
H                    -1.427613056546    -2.465877164539     0.379163155098
