
  -OEChem-05262117483D

 58 62  0     1  0  0  0  0  0999 V2000
   -4.3576    3.7608   -0.8482 C   0  0  0  0  0  0  0  0  0  0  0  0
   -3.6661    2.8650   -1.6711 C   0  0  0  0  0  0  0  0  0  0  0  0
   -3.7556    4.2175    0.3279 C   0  0  0  0  0  0  0  0  0  0  0  0
   -2.3859    2.4304   -1.3208 C   0  0  0  0  0  0  0  0  0  0  0  0
   -2.4718    3.7829    0.6707 C   0  0  0  0  0  0  0  0  0  0  0  0
   -1.6225    0.5613    3.2755 C   0  0  0  0  0  0  0  0  0  0  0  0
    0.1911    2.1347    3.3007 C   0  0  0  0  0  0  0  0  0  0  0  0
   -1.7864    0.7183    4.6564 C   0  0  0  0  0  0  0  0  0  0  0  0
    0.0495    2.2936    4.6754 C   0  0  0  0  0  0  0  0  0  0  0  0
   -1.7790   -1.7197   -0.8170 C   0  0  0  0  0  0  0  0  0  0  0  0
    0.3054   -2.8358   -1.4680 C   0  0  0  0  0  0  0  0  0  0  0  0
   -1.7687    2.8871   -0.1472 C   0  0  0  0  0  0  0  0  0  0  0  0
   -0.6423    1.2638    2.5728 C   0  0  0  0  0  0  0  0  0  0  0  0
    0.4032   -0.8231   -0.1281 C   0  0  0  0  0  0  0  0  0  0  0  0
   -0.9811   -0.7908   -0.1453 C   0  0  0  0  0  0  0  0  0  0  0  0
   -0.9465    1.5856    5.3660 C   0  0  0  0  0  0  0  0  0  0  0  0
   -1.1010   -2.7462   -1.4846 C   0  0  0  0  0  0  0  0  0  0  0  0
    1.0561   -1.8777   -0.7826 C   0  0  0  0  0  0  0  0  0  0  0  0
    0.6528    2.1804   -0.8118 C   0  0  0  0  0  0  0  0  0  0  0  0
   -0.4014    2.4088    0.2804 C   0  0  2  0  0  0  0  0  0  0  0  0
    1.7263    1.3813   -0.0811 C   0  0  1  0  0  0  0  0  0  0  0  0
   -0.4370    1.0660    1.0900 C   0  0  1  0  0  0  0  0  0  0  0  0
    0.9265    0.3147    0.7100 C   0  0  1  0  0  0  0  0  0  0  0  0
   -2.0069    1.1064    7.4555 C   0  0  0  0  0  0  0  0  0  0  0  0
   -3.1510   -3.7126   -2.2485 C   0  0  0  0  0  0  0  0  0  0  0  0
    3.1231   -2.9541   -1.3687 C   0  0  0  0  0  0  0  0  0  0  0  0
   -1.5126    0.2353    0.5776 O   0  0  0  0  0  0  0  0  0  0  0  0
    2.7107    0.8861   -0.9685 O   0  0  0  0  0  0  0  0  0  0  0  0
    1.6679   -0.2307    1.7964 O   0  0  0  0  0  0  0  0  0  0  0  0
   -1.0152    1.8109    6.7138 O   0  0  0  0  0  0  0  0  0  0  0  0
   -1.7277   -3.7353   -2.1923 O   0  0  0  0  0  0  0  0  0  0  0  0
    2.4238   -1.9065   -0.6970 O   0  0  0  0  0  0  0  0  0  0  0  0
   -5.3536    4.0999   -1.1221 H   0  0  0  0  0  0  0  0  0  0  0  0
   -4.1264    2.5030   -2.5873 H   0  0  0  0  0  0  0  0  0  0  0  0
   -4.2824    4.9135    0.9762 H   0  0  0  0  0  0  0  0  0  0  0  0
   -1.8705    1.7238   -1.9645 H   0  0  0  0  0  0  0  0  0  0  0  0
   -2.0111    4.1385    1.5898 H   0  0  0  0  0  0  0  0  0  0  0  0
   -2.2749   -0.1141    2.7344 H   0  0  0  0  0  0  0  0  0  0  0  0
    0.9635    2.7107    2.7957 H   0  0  0  0  0  0  0  0  0  0  0  0
   -2.5672    0.1590    5.1596 H   0  0  0  0  0  0  0  0  0  0  0  0
    0.6963    2.9648    5.2329 H   0  0  0  0  0  0  0  0  0  0  0  0
   -2.8571   -1.6266   -0.7977 H   0  0  0  0  0  0  0  0  0  0  0  0
    0.7621   -3.6624   -1.9973 H   0  0  0  0  0  0  0  0  0  0  0  0
    0.2729    1.5748   -1.6390 H   0  0  0  0  0  0  0  0  0  0  0  0
    1.0316    3.1183   -1.2259 H   0  0  0  0  0  0  0  0  0  0  0  0
    0.0031    3.1654    0.9576 H   0  0  0  0  0  0  0  0  0  0  0  0
    2.2102    2.0292    0.6713 H   0  0  0  0  0  0  0  0  0  0  0  0
   -1.8858    1.4244    8.4919 H   0  0  0  0  0  0  0  0  0  0  0  0
   -1.8599    0.0214    7.3885 H   0  0  0  0  0  0  0  0  0  0  0  0
   -3.0176    1.3606    7.1132 H   0  0  0  0  0  0  0  0  0  0  0  0
   -3.4392   -4.5720   -2.8553 H   0  0  0  0  0  0  0  0  0  0  0  0
   -3.5167   -2.7933   -2.7218 H   0  0  0  0  0  0  0  0  0  0  0  0
   -3.5911   -3.8088   -1.2485 H   0  0  0  0  0  0  0  0  0  0  0  0
    4.1810   -2.7789   -1.1703 H   0  0  0  0  0  0  0  0  0  0  0  0
    2.9410   -2.9213   -2.4488 H   0  0  0  0  0  0  0  0  0  0  0  0
    2.8344   -3.9336   -0.9718 H   0  0  0  0  0  0  0  0  0  0  0  0
    2.9556   -0.0148   -0.6907 H   0  0  0  0  0  0  0  0  0  0  0  0
    1.6874    0.4203    2.5188 H   0  0  0  0  0  0  0  0  0  0  0  0
  1  2  1  0  0  0  0
  1  3  2  0  0  0  0
  1 33  1  0  0  0  0
  2  4  2  0  0  0  0
  2 34  1  0  0  0  0
  3  5  1  0  0  0  0
  3 35  1  0  0  0  0
  4 12  1  0  0  0  0
  4 36  1  0  0  0  0
  5 12  2  0  0  0  0
  5 37  1  0  0  0  0
  6  8  2  0  0  0  0
  6 13  1  0  0  0  0
  6 38  1  0  0  0  0
  7  9  1  0  0  0  0
  7 13  2  0  0  0  0
  7 39  1  0  0  0  0
  8 16  1  0  0  0  0
  8 40  1  0  0  0  0
  9 16  2  0  0  0  0
  9 41  1  0  0  0  0
 10 15  2  0  0  0  0
 10 17  1  0  0  0  0
 10 42  1  0  0  0  0
 11 17  2  0  0  0  0
 11 18  1  0  0  0  0
 11 43  1  0  0  0  0
 12 20  1  0  0  0  0
 13 22  1  0  0  0  0
 14 15  1  0  0  0  0
 14 18  2  0  0  0  0
 14 23  1  0  0  0  0
 15 27  1  0  0  0  0
 16 30  1  0  0  0  0
 17 31  1  0  0  0  0
 18 32  1  0  0  0  0
 19 20  1  0  0  0  0
 19 21  1  0  0  0  0
 19 44  1  0  0  0  0
 19 45  1  0  0  0  0
 20 22  1  0  0  0  0
 20 46  1  0  0  0  0
 21 23  1  0  0  0  0
 21 28  1  0  0  0  0
 21 47  1  0  0  0  0
 22 23  1  0  0  0  0
 22 27  1  0  0  0  0
 23 29  1  0  0  0  0
 24 30  1  0  0  0  0
 24 48  1  0  0  0  0
 24 49  1  0  0  0  0
 24 50  1  0  0  0  0
 25 31  1  0  0  0  0
 25 51  1  0  0  0  0
 25 52  1  0  0  0  0
 25 53  1  0  0  0  0
 26 32  1  0  0  0  0
 26 54  1  0  0  0  0
 26 55  1  0  0  0  0
 26 56  1  0  0  0  0
 28 57  1  0  0  0  0
 29 58  1  0  0  0  0
M  END
$$$$
