
  -OEChem-05262117483D

 69 73  0     1  0  0  0  0  0999 V2000
    6.8337    3.5619    6.0806 C   0  0  0  0  0  0  0  0  0  0  0  0
    7.0650    2.7996    4.9308 C   0  0  0  0  0  0  0  0  0  0  0  0
    5.8641    4.5716    6.0679 C   0  0  0  0  0  0  0  0  0  0  0  0
  -10.6220   -6.1377   -1.1408 C   0  0  0  0  0  0  0  0  0  0  0  0
   -1.0884    0.3208   -0.2163 C   0  0  0  0  0  0  0  0  0  0  0  0
    0.4869    3.6585    0.1373 C   0  0  0  0  0  0  0  0  0  0  0  0
    1.5331    1.7091   -0.8472 C   0  0  0  0  0  0  0  0  0  0  0  0
    6.3392    3.0548    3.7653 C   0  0  0  0  0  0  0  0  0  0  0  0
    5.1297    4.8212    4.9089 C   0  0  0  0  0  0  0  0  0  0  0  0
   -9.6736   -5.2035   -1.5501 C   0  0  0  0  0  0  0  0  0  0  0  0
   -2.3303   -0.3002   -0.3108 C   0  0  0  0  0  0  0  0  0  0  0  0
    1.7221    4.2985    0.2105 C   0  0  0  0  0  0  0  0  0  0  0  0
    2.7766    2.3347   -0.7801 C   0  0  0  0  0  0  0  0  0  0  0  0
   -2.0954    2.4185   -0.8367 C   0  0  0  0  0  0  0  0  0  0  0  0
  -10.2707   -7.0564   -0.1422 C   0  0  0  0  0  0  0  0  0  0  0  0
   -8.1569   -6.1979    0.0278 C   0  0  0  0  0  0  0  0  0  0  0  0
    0.3731    2.3609   -0.3919 C   0  0  0  0  0  0  0  0  0  0  0  0
   -0.9484    1.6952   -0.4827 C   0  0  0  0  0  0  0  0  0  0  0  0
    5.3706    4.0716    3.7471 C   0  0  0  0  0  0  0  0  0  0  0  0
   -3.3571    1.8211   -0.9371 C   0  0  0  0  0  0  0  0  0  0  0  0
   -8.4061   -5.2268   -0.9504 C   0  0  0  0  0  0  0  0  0  0  0  0
   -3.4487    0.4503   -0.6738 C   0  0  0  0  0  0  0  0  0  0  0  0
    2.8540    3.6229   -0.2479 C   0  0  0  0  0  0  0  0  0  0  0  0
    4.5510    4.4008    2.5418 C   0  0  0  0  0  0  0  0  0  0  0  0
   -4.5781    2.6255   -1.3329 C   0  0  0  0  0  0  0  0  0  0  0  0
   -5.8695    1.8837   -0.9716 C   0  0  0  0  0  0  0  0  0  0  0  0
   -5.7413    0.4298   -1.4114 C   0  0  2  0  0  0  0  0  0  0  0  0
   -6.9694   -0.4040   -1.0669 C   0  0  0  0  0  0  0  0  0  0  0  0
   -7.6430   -2.8475   -0.7531 C   0  0  0  0  0  0  0  0  0  0  0  0
   -7.3348   -4.2323   -1.3269 C   0  0  2  0  0  0  0  0  0  0  0  0
   -9.0628   -7.0935    0.4346 N   0  0  0  0  0  0  0  0  0  0  0  0
    5.0787    3.9781    1.3197 N   0  0  0  0  0  0  0  0  0  0  0  0
   -6.6507   -1.8572   -1.3049 N   0  3  0  0  0  0  0  0  0  0  0  0
    3.4763    4.9837    2.6011 O   0  0  0  0  0  0  0  0  0  0  0  0
    4.2261    5.8823   -0.2460 O   0  0  0  0  0  0  0  0  0  0  0  0
    5.3545    3.7723   -1.1341 O   0  0  0  0  0  0  0  0  0  0  0  0
   -4.6675   -0.2356   -0.7323 O   0  0  0  0  0  0  0  0  0  0  0  0
   -7.2285   -3.9951   -2.7395 O   0  0  0  0  0  0  0  0  0  0  0  0
    4.4421    4.4438   -0.2069 S   0  0  0  0  0  0  0  0  0  0  0  0
    7.4042    3.3665    6.9846 H   0  0  0  0  0  0  0  0  0  0  0  0
    7.8063    2.0056    4.9430 H   0  0  0  0  0  0  0  0  0  0  0  0
    5.6826    5.1628    6.9612 H   0  0  0  0  0  0  0  0  0  0  0  0
  -11.6137   -6.1629   -1.5820 H   0  0  0  0  0  0  0  0  0  0  0  0
   -0.2251   -0.2612    0.0916 H   0  0  0  0  0  0  0  0  0  0  0  0
   -0.3933    4.1653    0.5223 H   0  0  0  0  0  0  0  0  0  0  0  0
    1.4598    0.7214   -1.2931 H   0  0  0  0  0  0  0  0  0  0  0  0
    6.5107    2.4301    2.8924 H   0  0  0  0  0  0  0  0  0  0  0  0
    4.3693    5.5951    4.8810 H   0  0  0  0  0  0  0  0  0  0  0  0
   -9.9045   -4.4835   -2.3317 H   0  0  0  0  0  0  0  0  0  0  0  0
   -2.4418   -1.3590   -0.0934 H   0  0  0  0  0  0  0  0  0  0  0  0
    1.8194    5.2927    0.6305 H   0  0  0  0  0  0  0  0  0  0  0  0
    3.6703    1.8490   -1.1589 H   0  0  0  0  0  0  0  0  0  0  0  0
   -2.0067    3.4780   -1.0643 H   0  0  0  0  0  0  0  0  0  0  0  0
  -10.9898   -7.7967    0.2025 H   0  0  0  0  0  0  0  0  0  0  0  0
   -7.1774   -6.2604    0.5041 H   0  0  0  0  0  0  0  0  0  0  0  0
   -4.5597    3.6007   -0.8385 H   0  0  0  0  0  0  0  0  0  0  0  0
   -4.5565    2.8239   -2.4115 H   0  0  0  0  0  0  0  0  0  0  0  0
   -6.0353    1.9094    0.1112 H   0  0  0  0  0  0  0  0  0  0  0  0
   -6.7343    2.3479   -1.4570 H   0  0  0  0  0  0  0  0  0  0  0  0
   -5.5499    0.3880   -2.4953 H   0  0  0  0  0  0  0  0  0  0  0  0
   -7.8350   -0.1371   -1.6751 H   0  0  0  0  0  0  0  0  0  0  0  0
   -7.2176   -0.3026   -0.0084 H   0  0  0  0  0  0  0  0  0  0  0  0
   -7.5829   -2.8334    0.3357 H   0  0  0  0  0  0  0  0  0  0  0  0
   -8.6346   -2.5181   -1.0686 H   0  0  0  0  0  0  0  0  0  0  0  0
   -6.3685   -4.5791   -0.9320 H   0  0  0  0  0  0  0  0  0  0  0  0
    6.0462    3.6757    1.2454 H   0  0  0  0  0  0  0  0  0  0  0  0
   -6.5692   -2.0588   -2.3127 H   0  0  0  0  0  0  0  0  0  0  0  0
   -5.7114   -2.0094   -0.9070 H   0  0  0  0  0  0  0  0  0  0  0  0
   -7.1031   -4.8403   -3.2031 H   0  0  0  0  0  0  0  0  0  0  0  0
  1  2  1  0  0  0  0
  1  3  2  0  0  0  0
  1 40  1  0  0  0  0
  2  8  2  0  0  0  0
  2 41  1  0  0  0  0
  3  9  1  0  0  0  0
  3 42  1  0  0  0  0
  4 10  2  0  0  0  0
  4 15  1  0  0  0  0
  4 43  1  0  0  0  0
  5 11  2  0  0  0  0
  5 18  1  0  0  0  0
  5 44  1  0  0  0  0
  6 12  2  0  0  0  0
  6 17  1  0  0  0  0
  6 45  1  0  0  0  0
  7 13  1  0  0  0  0
  7 17  2  0  0  0  0
  7 46  1  0  0  0  0
  8 19  1  0  0  0  0
  8 47  1  0  0  0  0
  9 19  2  0  0  0  0
  9 48  1  0  0  0  0
 10 21  1  0  0  0  0
 10 49  1  0  0  0  0
 11 22  1  0  0  0  0
 11 50  1  0  0  0  0
 12 23  1  0  0  0  0
 12 51  1  0  0  0  0
 13 23  2  0  0  0  0
 13 52  1  0  0  0  0
 14 18  2  0  0  0  0
 14 20  1  0  0  0  0
 14 53  1  0  0  0  0
 15 31  2  0  0  0  0
 15 54  1  0  0  0  0
 16 21  2  0  0  0  0
 16 31  1  0  0  0  0
 16 55  1  0  0  0  0
 17 18  1  0  0  0  0
 19 24  1  0  0  0  0
 20 22  2  0  0  0  0
 20 25  1  0  0  0  0
 21 30  1  0  0  0  0
 22 37  1  0  0  0  0
 23 39  1  0  0  0  0
 24 32  1  0  0  0  0
 24 34  2  0  0  0  0
 25 26  1  0  0  0  0
 25 56  1  0  0  0  0
 25 57  1  0  0  0  0
 26 27  1  0  0  0  0
 26 58  1  0  0  0  0
 26 59  1  0  0  0  0
 27 28  1  0  0  0  0
 27 37  1  0  0  0  0
 27 60  1  0  0  0  0
 28 33  1  0  0  0  0
 28 61  1  0  0  0  0
 28 62  1  0  0  0  0
 29 30  1  0  0  0  0
 29 33  1  0  0  0  0
 29 63  1  0  0  0  0
 29 64  1  0  0  0  0
 30 38  1  0  0  0  0
 30 65  1  0  0  0  0
 32 39  1  0  0  0  0
 32 66  1  0  0  0  0
 33 67  1  0  0  0  0
 33 68  1  0  0  0  0
 35 39  2  0  0  0  0
 36 39  2  0  0  0  0
 38 69  1  0  0  0  0
M  CHG  1  33   1
M  END
$$$$
