25   
torsion grid (-165,)
C        1.4728839831    1.1416023565    2.6341210335
C        0.5741618130   -2.4041554286    3.1377621444
C        2.8494098984    1.7812422174    2.5691837298
C       -0.4777168060   -0.9847670439    1.3351680748
C       -0.1256082831   -4.6117901898    3.8948279783
C       -1.8140978017   -2.8240243535    3.8002421267
C        0.2144101849   -0.9718483661    2.7130388847
N        1.4560621935   -0.2191711278    2.6786090343
N       -0.4229827184   -3.2112873800    3.6063097347
O        0.4394715596    1.8169760661    2.6476173625
O        1.7385587907   -2.8022297293    3.0058575912
H        2.9343629640    2.3365004310    1.6306628367
H        2.9395768071    2.5020122676    3.3859661709
H        3.6692058337    1.0604452214    2.6324824380
H        0.1723282617   -1.4634414423    0.5966142572
H       -1.4272086835   -1.5273981694    1.3638506001
H       -0.6738675303    0.0441344168    1.0269273001
H       -0.3274915605   -4.8316568822    4.9498945291
H        0.9236269459   -4.8036863580    3.6794509030
H       -0.7523297422   -5.2657085383    3.2761591818
H       -2.4609358948   -3.2943045511    3.0482874713
H       -1.9463415559   -1.7463124377    3.7434450339
H       -2.1479963205   -3.1527324889    4.7908839859
H       -0.4405745642   -0.4845264853    3.4392282649
H        2.3043714391   -0.7753947553    2.6568189130
25   
torsion grid (-150,)
C        1.4611643260    1.1194176554    2.7059484886
C        0.5658156589   -2.3983139345    3.0799715123
C        2.8360271327    1.7646284050    2.6746286133
C       -0.5233138269   -1.0413725159    1.2402921457
C       -0.1161137684   -4.5656469297    3.9609383459
C       -1.8069767975   -2.7839103344    3.8142760613
C        0.1984791251   -0.9857315089    2.6004148105
N        1.4348173112   -0.2294236967    2.5083438170
N       -0.4196050947   -3.1803694661    3.6118064614
O        0.4342802079    1.7813288088    2.8807334903
O        1.7266765291   -2.8036976831    2.9385999236
H        2.8777901626    2.4615719109    1.8326914147
H        2.9702651247    2.3472162201    3.5896545882
H        3.6536933747    1.0447654172    2.5808627981
H        0.1126416163   -1.5337213060    0.4986487450
H       -1.4696069220   -1.5870532953    1.3023207870
H       -0.7315028241   -0.0215055243    0.9082246105
H       -0.3005074183   -4.7351107353    5.0284050929
H        0.9296429556   -4.7670901203    3.7374731871
H       -0.7521276138   -5.2485762418    3.3844396782
H       -2.4685674921   -3.2955274361    3.1031775659
H       -1.9425518176   -1.7111134760    3.7012224217
H       -2.1193275140   -3.0578328701    4.8283377036
H       -0.4363270192   -0.4660154074    3.3214743627
H        2.2843250604   -0.7835589557    2.4772147159
25   
torsion grid (-135,)
C        1.4634617528    1.0916036344    2.7907231007
C        0.5704550055   -2.3703384000    3.0319474130
C        2.8446748923    1.7236722403    2.7744945323
C       -0.5489424326   -1.1140913138    1.1433213613
C       -0.0771261538   -4.5056131808    4.0188693165
C       -1.7829524156   -2.7438343028    3.8261273880
C        0.1794120199   -0.9839169480    2.4935771242
N        1.3992495567   -0.2052251901    2.3608274442
N       -0.3970410313   -3.1394322915    3.6132574961
O        0.4646471871    1.7241160545    3.1411752835
O        1.7325505533   -2.7700602052    2.8855561523
H        2.8403067839    2.5597691990    2.0695028643
H        3.0534896955    2.1323352377    3.7666083244
H        3.6399593467    1.0273309938    2.4952549968
H        0.0902194195   -1.6262211228    0.4178027302
H       -1.4836464031   -1.6753702761    1.2365730680
H       -0.7797710567   -0.1154906432    0.7635868074
H       -0.2393977928   -4.6280404752    5.0963409488
H        0.9655012902   -4.7103545731    3.7840729852
H       -0.7194159385   -5.2178463412    3.4864231540
H       -2.4544930167   -3.2881289767    3.1493831982
H       -1.9276747376   -1.6772231219    3.6726587834
H       -2.0740867591   -2.9778201128    4.8563448283
H       -0.4544029394   -0.4392362725    3.1958013821
H        2.2468140260   -0.7574411215    2.2751811280
25   
torsion grid (-120,)
C        1.4361939318    1.0314859887    2.8640924787
C        0.5441068812   -2.3426841405    2.9492645551
C        2.8212422595    1.6542891861    2.8396563299
C       -0.5842388226   -1.1919293544    1.0082934503
C       -0.0378874279   -4.4251975444    4.0715823340
C       -1.7820143928   -2.7057295724    3.8292274900
C        0.1228110159   -0.9850661138    2.3587976472
N        1.3179278586   -0.1699101047    2.2120873255
N       -0.3947592383   -3.0889348786    3.6026499551
O        0.4823826077    1.5957013602    3.4027465015
O        1.7030632823   -2.7404298300    2.7755250794
H        2.7684221683    2.6071292965    2.3055768184
H        3.1243801440    1.8705852894    3.8674061688
H        3.5762986888    1.0217705810    2.3653045904
H        0.0800987222   -1.7051643240    0.3063888744
H       -1.4945210535   -1.7897369459    1.1183164613
H       -0.8540179464   -0.2199707697    0.5869549501
H       -0.1671524825   -4.4906914613    5.1584444781
H        1.0013226011   -4.6242564672    3.8171853822
H       -0.6813759779   -5.1768064856    3.5978970716
H       -2.4595259064   -3.3120352689    3.2137830961
H       -1.9551615724   -1.6568171794    3.6020615582
H       -2.0396699049   -2.8687908731    4.8818267993
H       -0.5287786029   -0.4311159058    3.0351631232
H        2.1613224197   -0.7026160746    2.0227498096
25   
torsion grid (-105,)
C        0.3559329164    0.1236090453    3.6706987865
C       -0.0622892193   -2.7157048616    1.8727816786
C        1.4065739245    0.6358910503    4.6399079310
C        0.4313910637   -0.9179220869    0.1885202545
C       -1.2287095268   -4.7375487550    2.5598493888
C       -2.3842531826   -2.5586168663    2.8175107905
C       -0.0559482791   -1.1974633604    1.6118790435
N        0.8282363739   -0.5785987478    2.5979229799
N       -1.1839098494   -3.2864917528    2.3996432188
O       -0.8457858415    0.3445257156    3.8454443619
O        0.9603400707   -3.3598231021    1.6080158066
H        1.3088559978    1.7218470216    4.7180970121
H        1.2045009356    0.2160831012    5.6291235616
H        2.4308843382    0.3887925989    4.3479795145
H        1.4210666142   -1.3528694768    0.0276096860
H       -0.2528426546   -1.3616525156   -0.5418645283
H        0.4741066255    0.1615228718    0.0173750266
H       -1.3047334017   -5.0045679182    3.6208923164
H       -0.3185861022   -5.1680197076    2.1459256219
H       -2.1009052605   -5.1449604627    2.0347189133
H       -3.1147721127   -2.4791291250    2.0014483370
H       -2.1437059416   -1.5647689715    3.1951286297
H       -2.8524238255   -3.1141033537    3.6349715030
H       -1.0312165469   -0.7412274480    1.7579010106
H        1.8016978072   -0.8563326931    2.5723991774
25   
torsion grid (-90,)
C        0.3585432225    0.0427175867    3.7665477305
C       -0.0106557251   -2.6536111104    1.9861667846
C        1.4204234459    0.5856784112    4.7058379361
C        0.3671093133   -0.9345531842    0.2000197764
C       -1.1188270638   -4.7203135468    2.6335945796
C       -2.4162804039   -2.5943142635    2.6728205169
C       -0.0725872238   -1.1508048474    1.6503704734
N        0.8138459256   -0.4364610288    2.5669425937
N       -1.1478051079   -3.2784175013    2.4023050575
O       -0.8386386703    0.0614458614    4.0638714967
O        1.0739596059   -3.2355580797    1.8562737090
H        1.1646516391    1.6164302559    4.9643144671
H        1.4023644914    0.0007244226    5.6296903539
H        2.4294948237    0.5612320276    4.2858791475
H        1.3697051349   -1.3398367804    0.0386970040
H       -0.3161104215   -1.4465472135   -0.4850277248
H        0.3636127965    0.1335503935   -0.0351899725
H       -1.2460633909   -4.9432516885    3.7000786276
H       -0.1595888864   -5.1124519097    2.2998442842
H       -1.9287117042   -5.2042498325    2.0757353128
H       -2.9902579681   -2.4198751494    1.7536147187
H       -2.2535295307   -1.6501390611    3.1951201732
H       -3.0146494253   -3.2354851685    3.3241131087
H       -1.0639046798   -0.7306923429    1.7984086384
H        1.7999139690   -0.6545626072    2.4824255017
25   
torsion grid (-75,)
C        0.3503437504   -0.0224395994    3.7862846628
C       -0.1231364181   -2.6000392690    2.1248813822
C        1.4544665036    0.5167118265    4.6766571355
C        0.2508068316   -1.0420433453    0.1971599719
C       -1.2586358464   -4.6307284919    2.8343158038
C       -2.5716702190   -2.5210090260    2.5895769020
C       -0.1771834529   -1.1294088648    1.6636306461
N        0.7210037995   -0.3361206633    2.5015270907
N       -1.2897030894   -3.2205938504    2.4548380877
O       -0.8069471056   -0.1556990045    4.1889772112
O        0.9779537996   -3.1642650804    2.1455373475
H        1.0602146017    1.3458663537    5.2674483524
H        1.7589687184   -0.2733477547    5.3708219701
H        2.3330610588    0.8504515116    4.1180180836
H        1.2487703581   -1.4697151641    0.0635487765
H       -0.4424764148   -1.6047985540   -0.4355957647
H        0.2560723358    0.0009873279   -0.1323952381
H       -1.4946044692   -4.7494939097    3.8989627064
H       -0.2609127730   -5.0233469039    2.6452844887
H       -1.9923668648   -5.1938418377    2.2464749863
H       -3.0004931297   -2.2619708804    1.6139712674
H       -2.4637468599   -1.6217474915    3.2002809122
H       -3.2724576783   -3.1908650385    3.0915002163
H       -1.1685190222   -0.6985938434    1.7824283882
H        1.7092923478   -0.4979366761    2.3414354214
25   
torsion grid (-60,)
C        0.3695613780   -0.0755710183    3.7633531621
C       -0.1424977635   -2.4955416135    2.1478820771
C        1.4850271841    0.4992745596    4.6144297880
C        0.2390986514   -1.0283679422    0.1480071097
C       -1.2412857392   -4.5321488989    2.8793722914
C       -2.6140881459   -2.5039321586    2.4062268561
C       -0.2179756614   -1.0518299217    1.6072592344
N        0.6382081620   -0.1856158632    2.4178953878
N       -1.3091107326   -3.1707616791    2.3526961061
O       -0.7144462441   -0.4149337597    4.2393574347
O        0.9735353603   -2.9992069227    2.3174163888
H        1.0515853278    1.1201039945    5.4004550145
H        2.0171517440   -0.3299890698    5.0925942615
H        2.2029184345    1.0867316053    4.0353566238
H        1.2483292926   -1.4419015764    0.0571674240
H       -0.4290962147   -1.6363091574   -0.4691111737
H        0.2319953647   -0.0042592303   -0.2371119945
H       -1.4758980571   -4.5480419688    3.9514469221
H       -0.2326178483   -4.9155531472    2.7349413932
H       -1.9569909515   -5.1701488179    2.3505060166
H       -2.9117801888   -2.1167094520    1.4261388653
H       -2.6106420051   -1.6920858046    3.1395304738
H       -3.3611147288   -3.2411973758    2.7054207315
H       -1.2267093625   -0.6495689655    1.6808013020
H        1.6219142550   -0.2128755685    2.1718754262
25   
torsion grid (-45,)
C        0.4000944433   -0.1959560535    3.7608471820
C       -0.1548348142   -2.4830983105    2.1487078247
C        1.5146401437    0.4287422276    4.5763448157
C        0.3428490988   -1.0678233201    0.1359538607
C       -1.2372359969   -4.5035516769    2.9203422562
C       -2.6260790607   -2.5058349828    2.3874095344
C       -0.2239095895   -1.0581811495    1.5557820370
N        0.5461009912   -0.1328766945    2.3937223038
N       -1.3206353779   -3.1695641493    2.3279619320
O       -0.5851805712   -0.7195358618    4.2810022572
O        0.9585293973   -2.9729833575    2.3620506860
H        1.0906598431    0.8878404542    5.4709454134
H        2.1954427283   -0.3686029148    4.8931056563
H        2.0868245127    1.1739905234    4.0165004904
H        1.3638683490   -1.4613751151    0.1385677904
H       -0.2641703535   -1.7087980227   -0.5097128294
H        0.3425007876   -0.0571379658   -0.2846774671
H       -1.3811462834   -4.4601312410    4.0078574086
H       -0.2525333163   -4.9208864420    2.7165630907
H       -2.0077051502   -5.1461745582    2.4835802443
H       -2.9128115158   -2.0879055035    1.4174589325
H       -2.6319099681   -1.7175289971    3.1467327395
H       -3.3767053865   -3.2523595527    2.6529956962
H       -1.2498656126   -0.6913873566    1.5309607970
H        1.4917493526    0.0406994716    2.0713549080
25   
torsion grid (-30,)
C        0.4248401172   -0.2968898902    3.7683508874
C       -0.1681668524   -2.5033540662    2.1031821083
C        1.5043844025    0.4466752704    4.5317292329
C        0.4963575806   -1.0749712920    0.1531402384
C       -1.2673252596   -4.4932470692    2.9141757428
C       -2.6241209693   -2.4623342388    2.4595013504
C       -0.2209959346   -1.0794461937    1.5036519676
N        0.4221257484   -0.1115128858    2.4058043617
N       -1.3469120235   -3.1651906403    2.3066762648
O       -0.4080926822   -1.0059224628    4.3317700535
O        0.9371795647   -3.0226333244    2.2770290516
H        1.1077244193    0.7580455157    5.4993160328
H        2.3354585395   -0.2438233430    4.7107411026
H        1.8862930297    1.3195075987    3.9941107768
H        1.5225708749   -1.4332032189    0.2719363591
H       -0.0168454572   -1.7378813991   -0.5490814617
H        0.5034680326   -0.0668661545   -0.2755066042
H       -1.3433328530   -4.4288694996    4.0075219994
H       -0.3099304213   -4.9443204440    2.6591775421
H       -2.0819496554   -5.1166362444    2.5335110350
H       -2.9544399789   -2.0105648058    1.5194121714
H       -2.5598456659   -1.6953652599    3.2378650735
H       -3.3818310907   -3.1919700375    2.7508796382
H       -1.2536745681   -0.7600584856    1.3540396853
H        1.2628488698    0.3135641817    2.0317921627
25   
torsion grid (-15,)
C        0.5558824258   -0.3562861929    3.6998628917
C       -0.1270540540   -2.5745702643    1.9793529433
C        1.4345090625    0.6539323680    4.4203612455
C        0.8087534466   -1.1482312812    0.1425089222
C       -1.3267834694   -4.4559727951    2.8687772423
C       -2.4541329891   -2.2830435567    2.8219159322
C       -0.0870478849   -1.1463193470    1.3838766691
N        0.4247311823   -0.1599195492    2.3489048366
N       -1.3466424750   -3.0970832220    2.3288096192
O       -0.0028711222   -1.2691860750    4.3052242134
O        0.9064098469   -3.2431912574    1.9866595430
H        0.9333921090    0.9636473974    5.3396824069
H        2.3687847898    0.1579094180    4.7011945555
H        1.6724508274    1.5381567782    3.8219878670
H        1.8112355387   -1.4946397258    0.4013024088
H        0.3986872986   -1.8200213722   -0.6164858459
H        0.8618061453   -0.1424872316   -0.2910192185
H       -1.0220687001   -4.4535343434    3.9236573162
H       -0.6192819263   -5.0633700759    2.3059541089
H       -2.3301182334   -4.8833810221    2.7853976873
H       -2.4325451790   -1.2785561315    2.4044149989
H       -2.4018396514   -2.1891629232    3.9128738065
H       -3.4025440171   -2.7524966000    2.5400333429
H       -1.0914824754   -0.8429831884    1.0752393590
H        1.0151801974    0.5571084784    1.9463661424
25   
torsion grid (0,)
C        2.2898340282   -0.7674508821    2.9934805468
C        0.3290279526   -2.7218499898    2.0116096188
C        3.3503061501    0.3011259581    3.2172113030
C        0.1170047489   -1.0464415599    0.1465579819
C       -0.0384712558   -4.5818113160    3.4954604969
C       -0.4902912212   -2.3219413387    4.3280728395
C        0.1582140968   -1.2206350809    1.6666284913
N        1.2206395142   -0.3723394128    2.2313350053
N       -0.2541061618   -3.1741644832    3.1684591675
O        2.4018177192   -1.8880225184    3.4853716091
O        0.8417275997   -3.4769755631    1.1879014384
H        3.5461374331    0.3795781177    4.2892102006
H        4.2762171522   -0.0276105879    2.7366200490
H        3.0803242880    1.2871875556    2.8283488323
H        1.0351813193   -1.4271268681   -0.3037251767
H       -0.7252633525   -1.6011163401   -0.2752485049
H       -0.0088019430    0.0122582690   -0.1103517562
H        0.9404068845   -4.7242463735    3.9722825145
H       -0.0713068071   -5.1767640508    2.5839723988
H       -0.8244312872   -4.9114654843    4.1813990461
H       -1.3870496325   -2.6649592015    4.8551238967
H       -0.6426861977   -1.2836798784    4.0377614511
H        0.3665385251   -2.3573938152    5.0116049833
H       -0.7989211770   -0.8781708289    2.0762584763
H        1.2810086062    0.5502513811    1.8195898479
25   
torsion grid (15,)
C        2.2998705852   -0.8461949790    2.9429040531
C        0.2500628564   -2.7662752633    2.0081910371
C        3.2720456177    0.2613140841    3.3229821212
C        0.2212207121   -1.0791284499    0.1337923350
C       -0.0315394827   -4.5644081166    3.5879725035
C       -0.3784888282   -2.2612818705    4.3680879305
C        0.1446849522   -1.2607725929    1.6513221191
N        1.1569638972   -0.4222866825    2.3139524204
N       -0.2251733027   -3.1609111877    3.2331607153
O        2.5348453487   -2.0222827812    3.2085604932
O        0.6117065791   -3.5681199581    1.1498388979
H        3.5218344925    0.1588121028    4.3816514002
H        4.1946982040    0.1207662318    2.7525513905
H        2.8929118162    1.2707971458    3.1394242361
H        1.1698953702   -1.4622985676   -0.2459176914
H       -0.5860775901   -1.6276352038   -0.3577119155
H        0.1264238319   -0.0175428294   -0.1233718524
H        0.9720786963   -4.7256352010    4.0036284677
H       -0.1429578252   -5.1819155147    2.6981230652
H       -0.7793176493   -4.8505904542    4.3336711000
H       -1.2073577529   -2.6082007259    4.9938891336
H       -0.6013943865   -1.2458412488    4.0443912526
H        0.5362295293   -2.2345589900    4.9741335897
H       -0.8360869793   -0.9095340430    1.9954421985
H        1.1143730729    0.5592062675    2.0705139433
25   
torsion grid (30,)
C        2.3478111520   -0.8821942869    2.8115246465
C        0.2003492660   -2.7574116868    1.9430446773
C        3.2622297327    0.2011146318    3.3639633870
C        0.3669794450   -1.0665312507    0.0735511831
C        0.0341360466   -4.5113225240    3.6066798867
C       -0.2854144636   -2.1865507255    4.3312110873
C        0.1724090374   -1.2501447553    1.5803704254
N        1.1408044471   -0.4406706065    2.3340425147
N       -0.1558899636   -3.1161221720    3.2196947444
O        2.6742022722   -2.0664928772    2.8198971278
O        0.4132735834   -3.5850513788    1.0601610666
H        3.5919780749   -0.0952274147    4.3625534999
H        4.1511356981    0.2617342070    2.7293611231
H        2.7978431218    1.1900626030    3.4177464159
H        1.3361328467   -1.4654861521   -0.2316048397
H       -0.4074221932   -1.5995178386   -0.4823561867
H        0.3162527557   -0.0018363424   -0.1813855820
H        0.9862636325   -4.6366991772    4.1391805235
H        0.0463498188   -5.1299582951    2.7115244080
H       -0.7854995895   -4.8255993920    4.2615758198
H       -1.0085027585   -2.5922202059    5.0462520524
H       -0.6516407799   -1.2158273640    4.0000951160
H        0.6711364113   -2.0407866223    4.8509668446
H       -0.8215234697   -0.8748442233    1.8563129460
H        1.0065502784    0.5607001188    2.2798032167
25   
torsion grid (45,)
C        2.2367001406   -0.8981392332    2.7867459508
C       -0.0394876678   -2.7485253701    2.0822407267
C        3.1474883945    0.1429778588    3.4189285945
C        0.2943978111   -1.1015552167    0.1935214917
C       -0.1391986931   -4.4628139206    3.8038812965
C       -0.4185666932   -2.1174801366    4.4863668273
C        0.0152802664   -1.2499751411    1.6910980340
N        0.9661991512   -0.4710873165    2.4943671251
N       -0.2725750287   -3.0679149203    3.3958955013
O        2.6124851182   -2.0480478251    2.5746540182
O        0.0392008951   -3.6025701426    1.2015835249
H        3.6267351718   -0.2968907862    4.2964953115
H        3.9372863096    0.3952415989    2.7049374773
H        2.6309529456    1.0614964512    3.7126079263
H        1.2677740797   -1.5319316071   -0.0490143381
H       -0.4621990471   -1.6260087660   -0.3930764695
H        0.2880069541   -0.0405840271   -0.0796206255
H        0.7088528048   -4.5752088823    4.4913180197
H        0.0316109461   -5.0735721027    2.9197364574
H       -1.0515541968   -4.8011770853    4.3096743144
H       -1.1052102860   -2.5408710770    5.2273066047
H       -0.8410103564   -1.1740449605    4.1430251189
H        0.5387796819   -1.9107210821    4.9835650751
H       -0.9755170167   -0.8316835708    1.9110121732
H        0.7777136071    0.5191661447    2.5793421288
25   
torsion grid (60,)
C        2.3668814182   -0.9403421377    2.5975900658
C        0.0473805811   -2.9318354388    2.1117714630
C        3.2275187454    0.1418993286    3.2308309516
C        0.4110911264   -1.3254247952    0.1868218869
C        0.0129870950   -4.6037462880    3.8796446594
C       -0.3506687850   -2.2489947591    4.5034143071
C        0.1062399215   -1.4452611455    1.6818743344
N        1.0261133610   -0.6506619412    2.5072828614
N       -0.1038238386   -3.2157386994    3.4447196607
O        2.8354640999   -2.0072776920    2.2121139918
O        0.0933498456   -3.8129194305    1.2553672486
H        3.9364374668   -0.3281681823    3.9153818032
H        3.8055837764    0.6360270447    2.4433570546
H        2.6510032339    0.8998143563    3.7695899067
H        1.3923740099   -1.7482513532   -0.0317978711
H       -0.3316955104   -1.8722643583   -0.3968133576
H        0.3927801400   -0.2703081290   -0.1069422033
H        0.7426280595   -4.6749824575    4.6950048370
H        0.3458622486   -5.2104471836    3.0397439199
H       -0.9522911998   -4.9852758027    4.2368608501
H       -1.0382000478   -2.6960743202    5.2300683019
H       -0.8206833139   -1.3440865984    4.1199417778
H        0.5709940900   -1.9661601698    5.0280999093
H       -0.8903105183   -1.0258964546    1.8704839085
H        0.7518306454    0.3044846472    2.6977727151
25   
torsion grid (75,)
C        1.5693851911    0.3859483805    2.4764765351
C        0.1874933921   -2.4817249354    2.4320775355
C        1.9817161988    1.4446509869    3.4854418457
C       -0.2491846592   -0.9232509284    0.2739519416
C        1.2345410037   -4.6599431741    2.4196406853
C        1.8739759449   -3.0555850643    0.6485698846
C       -0.2877550255   -1.1488031777    1.7899358916
N        0.2638429350   -0.0168158209    2.5488888092
N        1.0039541151   -3.3620198132    1.7860057514
O        2.3683359266   -0.0534666278    1.6460870144
O       -0.2840707939   -2.7265181842    3.5507720776
H        2.7577588287    1.0247559031    4.1316948229
H        2.4221221073    2.2871317574    2.9464019701
H        1.1578447173    1.8073187456    4.1058590769
H        0.7380204865   -0.6567302271   -0.0949472160
H       -0.5986473412   -1.8193611346   -0.2476186819
H       -0.9331880182   -0.1043225312    0.0298813464
H        1.2888548124   -5.4307117784    1.6440468897
H        0.4179408052   -4.8806162762    3.1048921595
H        2.1758145848   -4.6614547094    2.9844291154
H        2.8056687104   -3.6147029717    0.7751240585
H        2.1311667416   -1.9996926655    0.6304458240
H        1.4214502239   -3.3594917802   -0.3031957769
H       -1.3443582428   -1.1677514940    2.0681294425
H       -0.2338033500    0.2137452568    3.3988014744
25   
torsion grid (90,)
C        1.5712597104    0.4458216041    2.3616063417
C        0.0604176663   -2.5542958119    2.3920752091
C        2.0251469599    1.4645445991    3.3960857996
C       -0.3017465315   -0.9363552518    0.2899916769
C        1.1652881228   -4.7083818912    2.3633480741
C        1.9680131898   -2.9779553035    0.7949110045
C       -0.3135422443   -1.1652822725    1.8055464984
N        0.3397578220   -0.1027337280    2.5861794469
N        0.9939286431   -3.3636553883    1.8158088369
O        2.2816992055    0.1678775510    1.3923733352
O       -0.5685240688   -2.8983661242    3.4022753229
H        2.9528515553    1.1074339253    3.8516358901
H        2.2515983184    2.4023128272    2.8822239678
H        1.2908778235    1.6571554673    4.1829435645
H        0.6890013840   -0.7893455976   -0.1285380847
H       -0.7814090474   -1.7878030263   -0.2033454276
H       -0.8930830764   -0.0421328592    0.0689296219
H        1.3198589094   -5.4127119524    1.5392488584
H        0.2774135421   -4.9870279335    2.9282276776
H        2.0354942734   -4.7535970812    3.0309852155
H        2.9231783070   -3.4552440414    1.0365727008
H        2.1362750136   -1.9038259265    0.7902185724
H        1.6601896857   -3.3180626166   -0.2020302944
H       -1.3614485805   -1.1085754380    2.1085018985
H       -0.0784555086    0.0708248308    3.4906474583
25   
torsion grid (105,)
C        1.5715397837    0.4484099555    2.0915360764
C       -0.1756266977   -2.6900698426    2.1741203659
C        2.2929897288    1.2956905515    3.1307402819
C       -0.6002110033   -0.9129415978    0.3765919567
C        1.2026951287   -4.6813141587    2.3561087103
C        2.2227034847   -2.6623227965    1.3953190680
C       -0.4087741225   -1.1857105411    1.8751716849
N        0.5027924693   -0.2621800841    2.5685287111
N        1.0411915513   -3.2783262218    1.9836749199
O        1.9460905807    0.4337537878    0.9184950792
O       -1.1509627377   -3.3246187385    2.5946339827
H        3.3295237182    0.9536937567    3.1982125849
H        2.3125299134    2.3305537906    2.7797679622
H        1.8425809347    1.2655641422    4.1268757482
H        0.2855335673   -1.1246545690   -0.2191795807
H       -1.4257864778   -1.5399958076    0.0271352798
H       -0.8651964586    0.1355282466    0.2179395226
H        1.3080577512   -5.3082355964    1.4615369345
H        0.3295845755   -5.0079311750    2.9176935310
H        2.1047775355   -4.7965207789    2.9683447591
H        2.9945241776   -2.4907901217    2.1578150242
H        2.0023646541   -1.7155998643    0.9130892421
H        2.6391205847   -3.3389741546    0.6399868727
H       -1.3809658860   -1.0255459819    2.3458591725
H        0.3418481656   -0.1977170750    3.5650543494
25   
torsion grid (120,)
C        1.6076688518    0.5843965626    2.1594790437
C       -0.2416546027   -2.5604595559    2.0177571416
C        2.2365163168    1.4197645003    3.2663005469
C       -0.4253162797   -0.6943536273    0.2732697678
C        1.0347152775   -4.6244759751    2.1648929871
C        2.2017771726   -2.5974435561    1.4010511419
C       -0.3474317486   -1.0380383812    1.7663575999
N        0.6073604904   -0.2564347949    2.5702829047
N        0.9540055359   -3.2006454259    1.8538636399
O        1.9989789329    0.6716672658    0.9956180405
O       -1.2699820582   -3.1537913809    2.3624723399
H        3.3221971781    1.3881045831    3.1531761667
H        1.9212994896    2.4599645236    3.1385204186
H        1.9677729851    1.0952224728    4.2757587306
H        0.4720735306   -0.9566436625   -0.2836355615
H       -1.2759914327   -1.2438430978   -0.1413949828
H       -0.5997407133    0.3752307703    0.1373605854
H        1.2501329504   -5.2027727669    1.2577370138
H        0.0850201400   -4.9536003778    2.5824730964
H        1.8394704484   -4.8029850137    2.8885473232
H        2.9149312888   -2.5065707677    2.2313849675
H        2.0577099208   -1.6134452590    0.9659201377
H        2.6517896997   -3.2416580974    0.6368167849
H       -1.3318651791   -0.8145157524    2.1851090905
H        0.3863270772   -0.2328375968    3.5571453881
25   
torsion grid (135,)
C        1.4921018403    1.1277076835    2.3346087270
C        0.4827265858   -2.2176420220    3.3016341551
C        2.9664112212    1.5088068852    2.3772244377
C       -0.6914708228   -0.7436380511    1.6592396723
C        0.0038947719   -4.5779097519    3.6760744119
C       -1.8729328120   -2.9917690124    3.7415114321
C       -0.0230659336   -0.7763863595    3.0492924585
N        1.1453944911    0.0993954832    3.1816581740
N       -0.4390279987   -3.1893272025    3.5735648295
O        0.6998984017    1.7433342711    1.6235929326
O        1.6921886091   -2.4646500939    3.2334512470
H        3.4229203049    1.2234911056    1.4242468761
H        3.0456817084    2.5941013724    2.4703557709
H        3.5228376741    1.0320257012    3.1884727044
H        0.0409410276   -0.9922598701    0.8862941203
H       -1.4996953817   -1.4774014901    1.6126152508
H       -1.0879865513    0.2461053086    1.4414922946
H       -0.2147234218   -4.9730482621    4.6753621416
H        1.0759829107   -4.6240040937    3.4965418866
H       -0.5192529218   -5.1943812533    2.9350138398
H       -2.4310359343   -3.3943276560    2.8863857240
H       -2.1279281407   -1.9410523193    3.8566050153
H       -2.2049558938   -3.5186582900    4.6432169802
H       -0.7575932615   -0.4937036758    3.8106562397
H        1.9439870202   -0.4338769962    3.5160144863
25   
torsion grid (150,)
C        1.4453914595    1.1806613797    2.4443047161
C        0.4866445338   -2.2647192813    3.3004980595
C        2.9031641052    1.6133158364    2.3745363998
C       -0.5959892813   -0.7994922097    1.5989195432
C       -0.0671672241   -4.5955732740    3.7469474760
C       -1.8912432447   -2.9473256691    3.7600009387
C        0.0297884166   -0.8180072655    3.0106416628
N        1.2250227055    0.0169031363    3.1389529373
N       -0.4643510736   -3.1969587576    3.6026701246
O        0.5512182599    1.8623282916    1.9431156193
O        1.6865142073   -2.5550780469    3.2203672650
H        3.2531874273    1.4871380179    1.3450128441
H        2.9665215003    2.6762495712    2.6171980782
H        3.5604870503    1.0477468481    3.0402993380
H        0.1511250615   -1.1072220962    0.8608130504
H       -1.4376068316   -1.4947496030    1.5423770816
H       -0.9389442532    0.2028412893    1.3476769101
H       -0.2813528952   -4.9480204717    4.7630413610
H        0.9993778561   -4.6850947059    3.5513635913
H       -0.6242269768   -5.2185627668    3.0368527324
H       -2.4592154080   -3.3666549389    2.9195804515
H       -2.1127104251   -1.8852109837    3.8300472968
H       -2.2420705781   -3.4260119581    4.6812348460
H       -0.7113407954   -0.4853611577    3.7431833332
H        2.0494555198   -0.5557919203    3.3071830733
25   
torsion grid (165,)
C        1.4537477538    1.1916653097    2.5387763634
C        0.5143953787   -2.3190727851    3.2657914055
C        2.8791662052    1.7102135469    2.4261225155
C       -0.5105413532   -0.8493948664    1.5277553025
C       -0.1213940727   -4.6112156451    3.7979168390
C       -1.8785287806   -2.8914926833    3.7847051071
C        0.1115326948   -0.8675553097    2.9419990315
N        1.3342054148   -0.0765729487    3.0374528616
N       -0.4645882057   -3.2023242679    3.6210096070
O        0.4869227319    1.8905775946    2.2287012107
O        1.6988002246   -2.6602723203    3.1560342713
H        3.1240096260    1.8278332194    1.3659362923
H        2.9309788432    2.6991675204    2.8873693601
H        3.6210943570    1.0545477557    2.8897384355
H        0.2148071163   -1.2313057279    0.8026284541
H       -1.4027345948   -1.4801924971    1.4843478476
H       -0.7825519266    0.1701105209    1.2556891788
H       -0.3563343837   -4.9317713138    4.8197990933
H        0.9424397675   -4.7442696644    3.6124300531
H       -0.6956345575   -5.2299345319    3.0975415503
H       -2.4720323651   -3.3194738053    2.9664635762
H       -2.0575856841   -1.8196246880    3.8160930389
H       -2.2370898507   -3.3210452119    4.7269048754
H       -0.6100971042   -0.4764968391    3.6638069339
H        2.1688285903   -0.6552825537    3.0903836195
25   
torsion grid (180,)
C        1.4454356125    1.1659553530    2.5854468999
C        0.5392253926   -2.3815427573    3.1909897901
C        2.8373223722    1.7669231792    2.4768825856
C       -0.4879556955   -0.9229500940    1.4266763550
C       -0.1393439283   -4.6338482201    3.8283910321
C       -1.8538729411   -2.8706430515    3.7852876756
C        0.1650852347   -0.9352478958    2.8253418861
N        1.4014955662   -0.1688648867    2.8607400386
N       -0.4523138545   -3.2248081186    3.6041990968
O        0.4290449380    1.8527617708    2.4516944849
O        1.7113881900   -2.7564482103    3.0606670929
H        2.9846482657    2.1252556243    1.4537003115
H        2.8983919443    2.6334052205    3.1399921131
H        3.6371383172    1.0644040553    2.7263597900
H        0.1961769525   -1.3651800478    0.6959601385
H       -1.4198872557   -1.4955872164    1.4163646817
H       -0.7057469545    0.1063184373    1.1385210667
H       -0.3661450787   -4.9106411871    4.8647676323
H        0.9182655357   -4.7984937674    3.6325969202
H       -0.7380943409   -5.2646093283    3.1599153761
H       -2.4760757457   -3.3165903491    2.9985381166
H       -2.0046067138   -1.7939553623    3.7748752257
H       -2.2023889756   -3.2506505253    4.7522325632
H       -0.5229587285   -0.4954374521    3.5513740777
H        2.2443480188   -0.7353557407    2.8474588470
