27
0 1 C11H12N2O2
C                    -1.870727764397     0.852706425705    -1.668022914821
C                    -1.151118678360    -0.162432987439    -1.020626642145
C                    -3.020408049138     0.535897830039    -2.406220800328
C                    -1.553326865971    -1.502621195604    -1.090632664826
C                    -3.423432381469    -0.792751822509    -2.483901993397
C                    -2.697649474876    -1.790427773855    -1.833019612385
C                    -6.244677147140    -0.807342063724    -1.408308650734
C                    -6.398676759084    -0.982362192590     0.780092263181
C                    -7.506305442310    -0.019394852781     0.275362801514
C                    -4.414529961573    -2.932853012580    -2.807113146470
C                    -4.621565131764    -1.429528222956    -3.156370232514
N                    -5.747211118949    -1.477617762904    -0.439400323049
N                    -5.934090971666    -0.914145714941    -2.742489485742
O                    -3.215864054654    -3.041668574385    -1.996843145239
O                    -7.223768204344     0.121446931864    -1.145212695557
H                    -1.536759724532     1.883937567481    -1.596000134289
H                    -0.262313931803     0.093278432057    -0.449138199745
H                    -3.590081408414     1.320112934035    -2.901052118688
H                    -1.006222290301    -2.291130874296    -0.582885268485
H                    -5.663207724033    -0.469899594464     1.411682065492
H                    -6.812510779508    -1.812791750006     1.361198654846
H                    -8.514594471250    -0.432180255645     0.376162646229
H                    -7.473579927662     0.976299292869     0.722375878499
H                    -5.250589202494    -3.323413766362    -2.227770206109
H                    -4.259201786740    -3.539782908161    -3.702918161384
H                    -4.592313580836    -1.287493392414    -4.240658443592
H                    -6.285990355942    -0.139314748552    -3.290815460623
