27
0 1 C11H12N2O2
C                     0.066496164871    -0.202991039195     1.916470276412
C                    -0.378386349412    -0.780034757493     0.717639372039
C                    -0.021452674784    -0.919537760838     3.118627101889
C                    -0.921522482300    -2.071241979073     0.684042672949
C                    -0.567018297289    -2.200255314242     3.096529667008
C                    -1.005806076550    -2.760741442751     1.892941512429
C                     0.644417264277    -4.652337993089     5.618253405597
C                     0.272535190715    -5.941465701693     7.364349781971
C                     1.724881048152    -6.169657297390     6.870522651453
C                    -1.614481251489    -4.283526158077     3.463324707126
C                    -0.728643665053    -3.234640542697     4.185598618468
N                    -0.323188663041    -5.038670155281     6.368579429511
N                     0.582274296353    -3.722692100844     4.619210610683
O                    -1.495768567689    -4.030891401342     2.032701410142
O                     1.898243349486    -5.169162196788     5.828601590260
H                     0.480674399196     0.801152283182     1.911646482172
H                    -0.303809886663    -0.214465447950    -0.207700155442
H                     0.333093251726    -0.487013238374     4.050898199942
H                    -1.267193382014    -2.522677829225    -0.240879513633
H                    -0.291922354551    -6.877550384107     7.422948474399
H                     0.246158998245    -5.477073852431     8.358075674153
H                     2.490923915686    -5.998102490780     7.629329941399
H                     1.874601272786    -7.154461499930     6.417161326519
H                    -1.306330661752    -5.310262288705     3.657584952066
H                    -2.666361946380    -4.157843691819     3.738550467618
H                    -1.239321290239    -2.862067474825     5.075505704657
H                     1.307899783309    -3.784201373767     3.914548579471
