
  -OEChem-05262117483D

 30 32  0     0  0  0  0  0  0999 V2000
    1.3275    1.7961   -0.4729 C   0  0  0  0  0  0  0  0  0  0  0  0
    0.0576    1.2681   -0.2057 C   0  0  0  0  0  0  0  0  0  0  0  0
    1.4650    3.0531   -1.0752 C   0  0  0  0  0  0  0  0  0  0  0  0
   -1.0974    1.9882   -0.5364 C   0  0  0  0  0  0  0  0  0  0  0  0
    0.3138    3.7669   -1.4030 C   0  0  0  0  0  0  0  0  0  0  0  0
   -0.9568    3.2388   -1.1353 C   0  0  0  0  0  0  0  0  0  0  0  0
   -2.8783    6.8380   -3.3253 C   0  0  0  0  0  0  0  0  0  0  0  0
    0.1978    5.1400   -2.0291 C   0  0  0  0  0  0  0  0  0  0  0  0
   -2.0349    4.2148   -1.5589 C   0  0  0  0  0  0  0  0  0  0  0  0
   -4.8488    6.7541   -4.5293 C   0  0  0  0  0  0  0  0  0  0  0  0
   -4.4195    8.2107   -4.2693 C   0  0  0  0  0  0  0  0  0  0  0  0
   -1.2606    5.1349   -2.5373 C   0  0  0  0  0  0  0  0  0  0  0  0
   -3.6482    6.0344   -4.0652 N   0  3  0  0  0  0  0  0  0  0  0  0
   -1.7987    6.5057   -2.6493 N   0  0  0  0  0  0  0  0  0  0  0  0
   -3.2908    8.0950   -3.3285 O   0  0  0  0  0  0  0  0  0  0  0  0
    2.2132    1.2228   -0.2149 H   0  0  0  0  0  0  0  0  0  0  0  0
   -0.0315    0.2897    0.2578 H   0  0  0  0  0  0  0  0  0  0  0  0
    2.4526    3.4565   -1.2844 H   0  0  0  0  0  0  0  0  0  0  0  0
   -2.0806    1.5726   -0.3296 H   0  0  0  0  0  0  0  0  0  0  0  0
    0.3339    5.9218   -1.2668 H   0  0  0  0  0  0  0  0  0  0  0  0
    0.9167    5.3302   -2.8303 H   0  0  0  0  0  0  0  0  0  0  0  0
   -2.9023    3.7284   -2.0187 H   0  0  0  0  0  0  0  0  0  0  0  0
   -2.3997    4.7995   -0.7041 H   0  0  0  0  0  0  0  0  0  0  0  0
   -5.7230    6.4595   -3.9423 H   0  0  0  0  0  0  0  0  0  0  0  0
   -5.0342    6.5597   -5.5864 H   0  0  0  0  0  0  0  0  0  0  0  0
   -4.0375    8.7102   -5.1604 H   0  0  0  0  0  0  0  0  0  0  0  0
   -5.1783    8.8209   -3.7838 H   0  0  0  0  0  0  0  0  0  0  0  0
   -1.2695    4.6969   -3.5413 H   0  0  0  0  0  0  0  0  0  0  0  0
   -3.5755    5.0248   -4.0404 H   0  0  0  0  0  0  0  0  0  0  0  0
   -1.3357    7.2605   -2.1509 H   0  0  0  0  0  0  0  0  0  0  0  0
  1  2  1  0  0  0  0
  1  3  2  0  0  0  0
  1 16  1  0  0  0  0
  2  4  2  0  0  0  0
  2 17  1  0  0  0  0
  3  5  1  0  0  0  0
  3 18  1  0  0  0  0
  4  6  1  0  0  0  0
  4 19  1  0  0  0  0
  5  6  2  0  0  0  0
  5  8  1  0  0  0  0
  6  9  1  0  0  0  0
  7 13  2  0  0  0  0
  7 14  1  0  0  0  0
  7 15  1  0  0  0  0
  8 12  1  0  0  0  0
  8 20  1  0  0  0  0
  8 21  1  0  0  0  0
  9 12  1  0  0  0  0
  9 22  1  0  0  0  0
  9 23  1  0  0  0  0
 10 11  1  0  0  0  0
 10 13  1  0  0  0  0
 10 24  1  0  0  0  0
 10 25  1  0  0  0  0
 11 15  1  0  0  0  0
 11 26  1  0  0  0  0
 11 27  1  0  0  0  0
 12 14  1  0  0  0  0
 12 28  1  0  0  0  0
 13 29  1  0  0  0  0
 14 30  1  0  0  0  0
M  CHG  1  13   1
M  END
$$$$
