
  -OEChem-05262117483D

 35 36  0     1  0  0  0  0  0999 V2000
    3.3272   -1.9506    7.9169 C   0  0  0  0  0  0  0  0  0  0  0  0
    5.2392    0.0667    5.7010 C   0  0  0  0  0  0  0  0  0  0  0  0
    5.0892    0.8034    4.5158 C   0  0  0  0  0  0  0  0  0  0  0  0
    3.5511   -1.4896    4.9366 C   0  0  0  0  0  0  0  0  0  0  0  0
    4.4742   -1.0727    5.9114 C   0  0  0  0  0  0  0  0  0  0  0  0
    4.1749    0.3994    3.5442 C   0  0  0  0  0  0  0  0  0  0  0  0
    3.3927   -0.7711    3.7555 C   0  0  0  0  0  0  0  0  0  0  0  0
   -0.4354   -0.8644    2.9909 C   0  0  0  0  0  0  0  0  0  0  0  0
   -0.1314   -1.2455    1.5115 C   0  0  0  0  0  0  0  0  0  0  0  0
    0.4608   -1.7784    3.8602 C   0  0  0  0  0  0  0  0  0  0  0  0
    0.9215   -2.3761    1.5789 C   0  0  0  0  0  0  0  0  0  0  0  0
    1.6114   -2.1831    2.9287 C   0  0  0  0  0  0  0  0  0  0  0  0
    4.7068    2.2252    2.1054 C   0  0  0  0  0  0  0  0  0  0  0  0
    4.6199   -1.8750    7.1837 C   0  0  2  0  0  0  0  0  0  0  0  0
    2.3279   -2.0331    8.5068 N   0  0  0  0  0  0  0  0  0  0  0  0
    5.0809   -3.1907    6.8612 O   0  0  0  0  0  0  0  0  0  0  0  0
    2.5431   -1.0944    2.7452 O   0  0  0  0  0  0  0  0  0  0  0  0
    3.9514    1.0474    2.3660 O   0  0  0  0  0  0  0  0  0  0  0  0
    5.9553    0.3967    6.4491 H   0  0  0  0  0  0  0  0  0  0  0  0
    5.6923    1.6911    4.3655 H   0  0  0  0  0  0  0  0  0  0  0  0
    2.9641   -2.3812    5.1196 H   0  0  0  0  0  0  0  0  0  0  0  0
   -0.1866    0.1850    3.1698 H   0  0  0  0  0  0  0  0  0  0  0  0
   -1.4920   -0.9905    3.2434 H   0  0  0  0  0  0  0  0  0  0  0  0
   -1.0284   -1.5657    0.9736 H   0  0  0  0  0  0  0  0  0  0  0  0
    0.2774   -0.3853    0.9755 H   0  0  0  0  0  0  0  0  0  0  0  0
    0.8035   -1.2943    4.7774 H   0  0  0  0  0  0  0  0  0  0  0  0
   -0.0754   -2.6883    4.1543 H   0  0  0  0  0  0  0  0  0  0  0  0
    0.4385   -3.3597    1.5798 H   0  0  0  0  0  0  0  0  0  0  0  0
    1.6390   -2.3541    0.7548 H   0  0  0  0  0  0  0  0  0  0  0  0
    2.1567   -3.0758    3.2546 H   0  0  0  0  0  0  0  0  0  0  0  0
    4.3765    2.5787    1.1278 H   0  0  0  0  0  0  0  0  0  0  0  0
    5.7823    2.0113    2.0704 H   0  0  0  0  0  0  0  0  0  0  0  0
    4.5122    3.0000    2.8574 H   0  0  0  0  0  0  0  0  0  0  0  0
    5.3299   -1.3648    7.8479 H   0  0  0  0  0  0  0  0  0  0  0  0
    5.1203   -3.7141    7.6797 H   0  0  0  0  0  0  0  0  0  0  0  0
  1 14  1  0  0  0  0
  1 15  3  0  0  0  0
  2  3  1  0  0  0  0
  2  5  2  0  0  0  0
  2 19  1  0  0  0  0
  3  6  2  0  0  0  0
  3 20  1  0  0  0  0
  4  5  1  0  0  0  0
  4  7  2  0  0  0  0
  4 21  1  0  0  0  0
  5 14  1  0  0  0  0
  6  7  1  0  0  0  0
  6 18  1  0  0  0  0
  7 17  1  0  0  0  0
  8  9  1  0  0  0  0
  8 10  1  0  0  0  0
  8 22  1  0  0  0  0
  8 23  1  0  0  0  0
  9 11  1  0  0  0  0
  9 24  1  0  0  0  0
  9 25  1  0  0  0  0
 10 12  1  0  0  0  0
 10 26  1  0  0  0  0
 10 27  1  0  0  0  0
 11 12  1  0  0  0  0
 11 28  1  0  0  0  0
 11 29  1  0  0  0  0
 12 17  1  0  0  0  0
 12 30  1  0  0  0  0
 13 18  1  0  0  0  0
 13 31  1  0  0  0  0
 13 32  1  0  0  0  0
 13 33  1  0  0  0  0
 14 16  1  0  0  0  0
 14 34  1  0  0  0  0
 16 35  1  0  0  0  0
M  END
$$$$
