30
1 1 C12H15N2O
C                     0.222661042958    -2.428125424200    -1.056169628557
C                     1.546430797898    -1.989569138803    -0.922100200937
C                    -0.844261567064    -1.595766571343    -0.694256264083
C                     1.826182976205    -0.710764846771    -0.423775000627
C                    -0.563154927935    -0.323340071224    -0.199527373263
C                     0.762169226851     0.114972485734    -0.065399032344
C                    -1.803160714188     3.612473595001     2.069615362413
C                    -1.526821448426     0.761325792462     0.234306338911
C                     0.801639549558     1.530807057715     0.470191906663
C                    -3.187065558794     5.027967382151     3.267929572865
C                    -2.919855287847     3.725685143023     4.042738123308
C                    -0.608925512802     1.673910789180     1.082248015968
N                    -2.209498135074     4.885880581115     2.173834887849
N                    -1.047548040603     3.089026727926     1.126717105361
O                    -2.231647222943     2.859665026164     3.067937058126
H                     0.022614139385    -3.424820741382    -1.439116977515
H                     2.362737097112    -2.649359239179    -1.201984318997
H                    -1.869597325456    -1.943023462784    -0.795156170917
H                     2.855221842632    -0.376730876718    -0.316299294352
H                    -1.914011618548     1.311233700280    -0.634910230555
H                    -2.385705377761     0.394844538554     0.803676977071
H                     1.594028208331     1.712481955138     1.201255245095
H                     0.941621855161     2.248644532535    -0.352721640994
H                    -4.205182773813     5.084437861424     2.872581151771
H                    -2.975370925053     5.915270202073     3.865929100298
H                    -2.237376873316     3.859150117974     4.882983140091
H                    -3.817663270254     3.198059464059     4.357603622591
H                    -0.593839961718     1.317596802233     2.112808843680
H                    -2.088078731009     5.574317531038     1.440471941055
H                    -0.794410787773     3.679324419731     0.340464256345
