
  -OEChem-05262117483D

 34 36  0     0  0  0  0  0  0999 V2000
    4.2204    4.4384   -3.5265 C   0  0  0  0  0  0  0  0  0  0  0  0
    3.0237    4.6248   -2.8654 C   0  0  0  0  0  0  0  0  0  0  0  0
    1.9906    5.9774    0.4908 C   0  0  0  0  0  0  0  0  0  0  0  0
   -1.5210    7.1313    0.3670 C   0  0  0  0  0  0  0  0  0  0  0  0
    0.1399    8.0227   -1.1755 C   0  0  0  0  0  0  0  0  0  0  0  0
    3.2503    6.2728    1.0447 C   0  0  0  0  0  0  0  0  0  0  0  0
   -1.7254    8.4059    0.8911 C   0  0  0  0  0  0  0  0  0  0  0  0
   -0.0790    9.3016   -0.6744 C   0  0  0  0  0  0  0  0  0  0  0  0
    5.4314    4.8253   -2.8982 C   0  0  0  0  0  0  0  0  0  0  0  0
    3.0336    5.1937   -1.5651 C   0  0  0  0  0  0  0  0  0  0  0  0
    4.3044    5.5308   -1.0248 C   0  0  0  0  0  0  0  0  0  0  0  0
   -0.5612    6.9305   -0.6355 C   0  0  0  0  0  0  0  0  0  0  0  0
    1.8571    5.4667   -0.7971 C   0  0  0  0  0  0  0  0  0  0  0  0
    4.3994    6.0763    0.2957 C   0  0  0  0  0  0  0  0  0  0  0  0
   -0.9925    9.4758    0.3706 C   0  0  0  0  0  0  0  0  0  0  0  0
    5.4798    5.3521   -1.6873 N   0  0  0  0  0  0  0  0  0  0  0  0
   -0.4624    5.6263   -1.2145 N   0  0  0  0  0  0  0  0  0  0  0  0
    0.6310    5.0264   -1.3660 N   0  0  0  0  0  0  0  0  0  0  0  0
   -0.7734   12.1070    0.0836 O   0  0  0  0  0  0  0  0  0  0  0  0
   -2.5577   11.1655    1.6584 O   0  0  0  0  0  0  0  0  0  0  0  0
    5.6203    6.3714    0.7868 O   0  0  0  0  0  0  0  0  0  0  0  0
   -0.1516   11.1233    2.2877 O   0  0  0  0  0  0  0  0  0  0  0  0
   -1.2426   11.1071    1.0436 S   0  0  0  0  0  0  0  0  0  0  0  0
    4.2495    3.9985   -4.5189 H   0  0  0  0  0  0  0  0  0  0  0  0
    2.0776    4.3371   -3.3125 H   0  0  0  0  0  0  0  0  0  0  0  0
    1.1098    6.1326    1.1032 H   0  0  0  0  0  0  0  0  0  0  0  0
   -2.0933    6.2830    0.7305 H   0  0  0  0  0  0  0  0  0  0  0  0
    0.8472    7.8657   -1.9836 H   0  0  0  0  0  0  0  0  0  0  0  0
    3.3325    6.6563    2.0568 H   0  0  0  0  0  0  0  0  0  0  0  0
   -2.4559    8.5775    1.6751 H   0  0  0  0  0  0  0  0  0  0  0  0
    0.4402   10.1587   -1.0918 H   0  0  0  0  0  0  0  0  0  0  0  0
    6.3820    4.6906   -3.4116 H   0  0  0  0  0  0  0  0  0  0  0  0
    6.2556    6.1311    0.0758 H   0  0  0  0  0  0  0  0  0  0  0  0
    0.5643   11.7397    2.0398 H   0  0  0  0  0  0  0  0  0  0  0  0
  1  2  1  0  0  0  0
  1  9  2  0  0  0  0
  1 24  1  0  0  0  0
  2 10  2  0  0  0  0
  2 25  1  0  0  0  0
  3  6  1  0  0  0  0
  3 13  2  0  0  0  0
  3 26  1  0  0  0  0
  4  7  2  0  0  0  0
  4 12  1  0  0  0  0
  4 27  1  0  0  0  0
  5  8  1  0  0  0  0
  5 12  2  0  0  0  0
  5 28  1  0  0  0  0
  6 14  2  0  0  0  0
  6 29  1  0  0  0  0
  7 15  1  0  0  0  0
  7 30  1  0  0  0  0
  8 15  2  0  0  0  0
  8 31  1  0  0  0  0
  9 16  1  0  0  0  0
  9 32  1  0  0  0  0
 10 11  1  0  0  0  0
 10 13  1  0  0  0  0
 11 14  1  0  0  0  0
 11 16  2  0  0  0  0
 12 17  1  0  0  0  0
 13 18  1  0  0  0  0
 14 21  1  0  0  0  0
 15 23  1  0  0  0  0
 17 18  2  0  0  0  0
 19 23  2  0  0  0  0
 20 23  2  0  0  0  0
 21 33  1  0  0  0  0
 22 23  1  0  0  0  0
 22 34  1  0  0  0  0
M  END
$$$$
