43
0 1 C17H22N2OS
C                    -3.223237535822     2.393381341915     1.746895095288
C                    -3.551234117787     2.697589291551     3.085412182989
C                    -5.296579628741     3.336313598603     0.979767546766
C                    -4.067380508981     2.692724300865     0.677785671027
C                    -4.752449960348     3.316868294066     3.419662745274
C                    -6.422117176932     3.814893202185     0.197385740174
C                    -5.598142099791     3.622019750794     2.341916312835
C                    -7.342313853357     4.344232944343     1.082935104950
C                    -6.984147502751     5.154207643523    -1.922771454049
C                    -4.743366776404     6.094944587385    -1.296502025872
C                    -6.428093413302     7.467894638214    -2.456932175225
C                    -3.748251772877     6.057858340307    -2.460128447911
C                    -5.636427943980     7.597486120652    -3.760926990560
C                    -3.659859937812     2.310622905180    -0.727262962334
C                    -5.143668714240     3.646914083029     4.838584976320
C                    -8.670350761029     4.986606415105     0.835458915835
C                    -6.602429432454     3.804714785460    -1.302531603305
N                    -6.839468881698     4.231526570054     2.370494850895
N                    -6.121260480112     6.212872443172    -1.768263101718
O                    -8.055257481458     5.275351129299    -2.526144151626
S                    -3.822528065145     7.579189172997    -3.480558627725
H                    -2.276495848814     1.897906120725     1.543833257474
H                    -2.850411775249     2.435830376682     3.874912259165
H                    -4.637698279097     5.209358545337    -0.673996714572
H                    -4.524578299900     6.959543069668    -0.659499571504
H                    -6.183631692751     8.300083217720    -1.787237904213
H                    -7.497951395770     7.477979110109    -2.667945943108
H                    -2.723743340720     5.995062256577    -2.081955176995
H                    -3.935702581345     5.182443026038    -3.091829933073
H                    -5.913805460721     6.791295890504    -4.446880263120
H                    -5.854470005446     8.552531434196    -4.247428472237
H                    -4.408305874473     1.670835078938    -1.207533594027
H                    -3.515115540031     3.185109661614    -1.372729024092
H                    -2.715009868828     1.760589550612    -0.714884226767
H                    -5.325270378829     4.721729492859     4.968077121612
H                    -6.059944669086     3.121222409184     5.137263092898
H                    -4.356339317691     3.359433149850     5.540057180224
H                    -9.037500074707     4.753414592193    -0.164840119319
H                    -9.416012992724     4.642965365087     1.562061237464
H                    -8.607697798568     6.079437821825     0.913413719981
H                    -5.697087368886     3.439742808459    -1.788919036710
H                    -7.408114039069     3.128531875786    -1.600137294640
H                    -7.329403723328     4.520011849829     3.205112163294
