18
0 1 BrC8H5O4
C                    -0.174451332158     0.464638075418     0.962808120970
C                     0.712822610564     1.904523053111     2.734216874283
C                    -1.390410416940     0.282654651806     1.669275387319
C                    -0.477216337252     1.714366593315     3.404534695969
C                    -1.516015967290     0.924494928902     2.898119926597
C                     0.835559782303     1.252095675730     1.489281278428
C                    -2.428735285060    -0.574467763014     1.044763441328
C                    -2.164265395341     1.749245065445     4.887839928530
O                    -2.302344885530    -1.129299135600    -0.032720069415
O                    -0.838464150257     2.236531073505     4.622487429433
O                    -2.562190258563     0.923656130106     3.778319939494
O                    -3.554448636504    -0.689089610636     1.793333020243
Br                    2.465927394040     1.476078127101     0.507036727223
H                    -0.064945167634    -0.030128529861     0.004855407287
H                     1.505841588188     2.520291943811     3.143163678579
H                    -2.154462133508     1.144566247385     5.800331668349
H                    -2.853625637786     2.595505419502     4.971427194363
H                    -4.153670976051    -1.268678983532     1.284291536908
