
  -OEChem-05262117483D

 37 40  0     0  0  0  0  0  0999 V2000
    2.4177   -2.1607   -3.1055 C   0  0  0  0  0  0  0  0  0  0  0  0
    2.0166   -1.0134   -2.4095 C   0  0  0  0  0  0  0  0  0  0  0  0
    2.2971   -3.4359   -2.5384 C   0  0  0  0  0  0  0  0  0  0  0  0
    2.4159   -7.1598   -4.6639 C   0  0  0  0  0  0  0  0  0  0  0  0
    2.8003   -7.4257   -5.9879 C   0  0  0  0  0  0  0  0  0  0  0  0
    1.4866   -1.1149   -1.1155 C   0  0  0  0  0  0  0  0  0  0  0  0
    3.6899   -9.0707   -3.8307 C   0  0  0  0  0  0  0  0  0  0  0  0
    1.7608   -3.5426   -1.2502 C   0  0  0  0  0  0  0  0  0  0  0  0
    2.8487   -7.9552   -3.5877 C   0  0  0  0  0  0  0  0  0  0  0  0
    3.6349   -8.5105   -6.1942 C   0  0  0  0  0  0  0  0  0  0  0  0
    4.0664   -9.3105   -5.1363 C   0  0  0  0  0  0  0  0  0  0  0  0
    1.3754   -2.3834   -0.5721 C   0  0  0  0  0  0  0  0  0  0  0  0
    1.5134   -4.7242   -0.3710 C   0  0  0  0  0  0  0  0  0  0  0  0
    2.4362   -7.6148   -2.2076 C   0  0  0  0  0  0  0  0  0  0  0  0
    5.0618  -10.0327   -7.0107 C   0  0  0  0  0  0  0  0  0  0  0  0
    2.2891   -8.6957   -1.1601 C   0  0  0  0  0  0  0  0  0  0  0  0
    1.0208   -4.5125    0.8201 N   0  0  0  0  0  0  0  0  0  0  0  0
    2.2020   -6.3635   -1.9712 N   0  0  0  0  0  0  0  0  0  0  0  0
    1.7824   -6.0129   -0.7223 N   0  0  0  0  0  0  0  0  0  0  0  0
    1.6784   -2.3593    2.0963 O   0  0  0  0  0  0  0  0  0  0  0  0
   -0.6639   -2.5845    1.1712 O   0  0  0  0  0  0  0  0  0  0  0  0
    4.1300   -8.9996   -7.3798 O   0  0  0  0  0  0  0  0  0  0  0  0
    4.8558  -10.3316   -5.6194 O   0  0  0  0  0  0  0  0  0  0  0  0
    0.7701   -2.8524    1.0606 S   0  0  0  0  0  0  0  0  0  0  0  0
    2.8334   -2.0619   -4.1045 H   0  0  0  0  0  0  0  0  0  0  0  0
    2.1205   -0.0362   -2.8728 H   0  0  0  0  0  0  0  0  0  0  0  0
    2.6130   -4.3204   -3.0745 H   0  0  0  0  0  0  0  0  0  0  0  0
    1.7504   -6.3285   -4.4591 H   0  0  0  0  0  0  0  0  0  0  0  0
    2.4487   -6.8179   -6.8155 H   0  0  0  0  0  0  0  0  0  0  0  0
    1.1779   -0.2355   -0.5584 H   0  0  0  0  0  0  0  0  0  0  0  0
    4.0597   -9.7029   -3.0308 H   0  0  0  0  0  0  0  0  0  0  0  0
    4.8642  -10.9264   -7.6063 H   0  0  0  0  0  0  0  0  0  0  0  0
    6.0856   -9.6648   -7.1565 H   0  0  0  0  0  0  0  0  0  0  0  0
    2.9888   -8.5477   -0.3283 H   0  0  0  0  0  0  0  0  0  0  0  0
    1.2733   -8.6953   -0.7454 H   0  0  0  0  0  0  0  0  0  0  0  0
    2.4570   -9.6884   -1.5743 H   0  0  0  0  0  0  0  0  0  0  0  0
    1.5810   -6.7062   -0.0038 H   0  0  0  0  0  0  0  0  0  0  0  0
  1  2  1  0  0  0  0
  1  3  2  0  0  0  0
  1 25  1  0  0  0  0
  2  6  2  0  0  0  0
  2 26  1  0  0  0  0
  3  8  1  0  0  0  0
  3 27  1  0  0  0  0
  4  5  2  0  0  0  0
  4  9  1  0  0  0  0
  4 28  1  0  0  0  0
  5 10  1  0  0  0  0
  5 29  1  0  0  0  0
  6 12  1  0  0  0  0
  6 30  1  0  0  0  0
  7  9  2  0  0  0  0
  7 11  1  0  0  0  0
  7 31  1  0  0  0  0
  8 12  2  0  0  0  0
  8 13  1  0  0  0  0
  9 14  1  0  0  0  0
 10 11  2  0  0  0  0
 10 22  1  0  0  0  0
 11 23  1  0  0  0  0
 12 24  1  0  0  0  0
 13 17  2  0  0  0  0
 13 19  1  0  0  0  0
 14 16  1  0  0  0  0
 14 18  2  0  0  0  0
 15 22  1  0  0  0  0
 15 23  1  0  0  0  0
 15 32  1  0  0  0  0
 15 33  1  0  0  0  0
 16 34  1  0  0  0  0
 16 35  1  0  0  0  0
 16 36  1  0  0  0  0
 17 24  1  0  0  0  0
 18 19  1  0  0  0  0
 19 37  1  0  0  0  0
 20 24  2  0  0  0  0
 21 24  2  0  0  0  0
M  END
$$$$
