37
0 1 C16H13N3O4S
C                     0.504402303148    -3.811991104401     3.313364034951
C                     1.277148459497    -4.281418783920     4.384558898974
C                     0.604738773839    -4.394701649155     2.043700448426
C                     2.261416198056    -9.578297381910    -3.509851332766
C                     2.791380739747   -10.058668530814    -4.721960669215
C                     2.167392679195    -5.350478327938     4.210687322785
C                     2.422456682124    -7.260890012131    -4.270611768171
C                     1.498891776878    -5.452849183372     1.866489906915
C                     2.072538230402    -8.208097613215    -3.270993757628
C                     3.117308884415    -9.116046991109    -5.677475431738
C                     2.932996446063    -7.747844099077    -5.450237111743
C                     2.251969638706    -5.909498984830     2.945706086723
C                     1.824576706407    -6.253233794467     0.648683602076
C                     1.535491302634    -7.738176020854    -1.971418635649
C                     3.938299079290    -8.001172099125    -7.437060831550
C                     0.926262491913    -8.733925005139    -1.020392751110
N                     2.710864617358    -7.202945890745     0.762004827367
N                     1.607451121661    -6.460287861577    -1.763529050641
N                     1.164909798486    -5.989475907393    -0.515867916979
O                     4.681537531189    -6.945500188193     2.422266083076
O                     2.797822731439    -8.540898870248     2.969457115719
O                     3.615823360829    -9.314516920136    -6.941419829724
O                     3.307150647815    -7.042563681960    -6.576000803815
S                     3.262274848693    -7.291403423161     2.363963841013
H                    -0.184421369480    -2.986963641958     3.470464281384
H                     1.182060675305    -3.814508305141     5.360814058463
H                    -0.014427148798    -4.024656444942     1.230521247854
H                     2.019895067639   -10.301058813633    -2.739209058004
H                     2.940647983397   -11.118962476591    -4.897326705349
H                     2.766712292096    -5.726918792202     5.034216705712
H                     2.289229699331    -6.200414283398    -4.094791682115
H                     5.027027801554    -7.862835037220    -7.404597656504
H                     3.546678769854    -7.893332498849    -8.450659000193
H                     1.705583860317    -9.238735145163    -0.442786490978
H                     0.268110232046    -8.231435476520    -0.310500501684
H                     0.345961994806    -9.479917538664    -1.567709997808
H                     0.826637685194    -5.037727283203    -0.601377561907
