
  -OEChem-05262117483D

 34 36  0     0  0  0  0  0  0999 V2000
    2.0311    8.4973   -3.8865 C   0  0  0  0  0  0  0  0  0  0  0  0
    1.5508    7.4292   -3.1570 C   0  0  0  0  0  0  0  0  0  0  0  0
    1.8861    6.2356    0.3959 C   0  0  0  0  0  0  0  0  0  0  0  0
    2.9499    3.4765   -0.8839 C   0  0  0  0  0  0  0  0  0  0  0  0
    1.2141    2.6055    0.5860 C   0  0  0  0  0  0  0  0  0  0  0  0
    2.6905    7.2579    0.9333 C   0  0  0  0  0  0  0  0  0  0  0  0
    3.9057    2.7351   -0.1973 C   0  0  0  0  0  0  0  0  0  0  0  0
    2.1706    1.8813    1.2941 C   0  0  0  0  0  0  0  0  0  0  0  0
    2.8842    9.4418   -3.2611 C   0  0  0  0  0  0  0  0  0  0  0  0
    1.9167    7.3050   -1.7914 C   0  0  0  0  0  0  0  0  0  0  0  0
    2.7642    8.3161   -1.2621 C   0  0  0  0  0  0  0  0  0  0  0  0
    1.6056    3.4345   -0.4752 C   0  0  0  0  0  0  0  0  0  0  0  0
    1.5104    6.2251   -0.9443 C   0  0  0  0  0  0  0  0  0  0  0  0
    3.1482    8.2795    0.1168 C   0  0  0  0  0  0  0  0  0  0  0  0
    3.5088    1.9637    0.9002 C   0  0  0  0  0  0  0  0  0  0  0  0
    3.2410    9.3618   -1.9913 N   0  0  0  0  0  0  0  0  0  0  0  0
    0.5784    4.0745   -1.2375 N   0  0  0  0  0  0  0  0  0  0  0  0
    0.5974    5.2989   -1.5182 N   0  0  0  0  0  0  0  0  0  0  0  0
    4.0941   -0.0738    2.4720 O   0  0  0  0  0  0  0  0  0  0  0  0
    5.9382    0.8957    0.9849 O   0  0  0  0  0  0  0  0  0  0  0  0
    3.9402    9.2616    0.5933 O   0  0  0  0  0  0  0  0  0  0  0  0
    5.1374    2.1185    3.0044 O   0  0  0  0  0  0  0  0  0  0  0  0
    4.7382    1.0468    1.8084 S   0  0  0  0  0  0  0  0  0  0  0  0
    1.7645    8.6271   -4.9311 H   0  0  0  0  0  0  0  0  0  0  0  0
    0.8925    6.6891   -3.6005 H   0  0  0  0  0  0  0  0  0  0  0  0
    1.5351    5.4543    1.0601 H   0  0  0  0  0  0  0  0  0  0  0  0
    3.2376    4.0845   -1.7358 H   0  0  0  0  0  0  0  0  0  0  0  0
    0.1624    2.5425    0.8494 H   0  0  0  0  0  0  0  0  0  0  0  0
    2.9590    7.2544    1.9851 H   0  0  0  0  0  0  0  0  0  0  0  0
    4.9450    2.7416   -0.5104 H   0  0  0  0  0  0  0  0  0  0  0  0
    1.8867    1.2435    2.1250 H   0  0  0  0  0  0  0  0  0  0  0  0
    3.2761   10.2852   -3.8273 H   0  0  0  0  0  0  0  0  0  0  0  0
    4.1093    9.8578   -0.1702 H   0  0  0  0  0  0  0  0  0  0  0  0
    6.0361    2.4491    2.8123 H   0  0  0  0  0  0  0  0  0  0  0  0
  1  2  1  0  0  0  0
  1  9  2  0  0  0  0
  1 24  1  0  0  0  0
  2 10  2  0  0  0  0
  2 25  1  0  0  0  0
  3  6  1  0  0  0  0
  3 13  2  0  0  0  0
  3 26  1  0  0  0  0
  4  7  2  0  0  0  0
  4 12  1  0  0  0  0
  4 27  1  0  0  0  0
  5  8  1  0  0  0  0
  5 12  2  0  0  0  0
  5 28  1  0  0  0  0
  6 14  2  0  0  0  0
  6 29  1  0  0  0  0
  7 15  1  0  0  0  0
  7 30  1  0  0  0  0
  8 15  2  0  0  0  0
  8 31  1  0  0  0  0
  9 16  1  0  0  0  0
  9 32  1  0  0  0  0
 10 11  1  0  0  0  0
 10 13  1  0  0  0  0
 11 14  1  0  0  0  0
 11 16  2  0  0  0  0
 12 17  1  0  0  0  0
 13 18  1  0  0  0  0
 14 21  1  0  0  0  0
 15 23  1  0  0  0  0
 17 18  2  0  0  0  0
 19 23  2  0  0  0  0
 20 23  2  0  0  0  0
 21 33  1  0  0  0  0
 22 23  1  0  0  0  0
 22 34  1  0  0  0  0
M  END
$$$$
