37
0 1 C16H13N3O4S
C                     0.588332237684    -3.544246131633     3.577242024085
C                    -0.730740900174    -3.149010197739     3.314959054441
C                     1.284498090649    -4.367200267182     2.682940417502
C                     2.624940097496    -9.384372963412    -3.103323693839
C                     3.212821693159    -9.881934703885    -4.281326257285
C                    -1.386924763696    -3.572789019025     2.150698297096
C                     4.411274600959    -7.740676261464    -2.816241072346
C                     0.635655465529    -4.781491528467     1.517630592796
C                     3.199595522624    -8.334108412765    -2.370636183545
C                     4.392736057448    -9.290086914445    -4.687835449094
C                     4.974584159767    -8.242845346823    -3.965064264635
C                    -0.677943164748    -4.383968802883     1.279399997401
C                     1.115816869754    -5.638630628244     0.393126099064
C                     2.537227207376    -7.819548537183    -1.148080492074
C                     6.180723043753    -8.568071585546    -5.825456086835
C                     1.409395019797    -8.605078482503    -0.533249885486
N                     0.290614445449    -5.876106701605    -0.588180564912
N                     3.018164983361    -6.713411900852    -0.672181970121
N                     2.372656333422    -6.166038180362     0.449359263525
O                    -2.218908165322    -6.146357905268    -0.040536334323
O                    -1.445629090479    -4.085154126834    -1.284152580265
O                     5.178771594550    -9.601235711129    -5.769897686819
O                     6.155257099587    -7.867745198473    -4.573422573552
S                    -1.199768479388    -5.124144096624    -0.285466334371
H                     1.076705741954    -3.210583448186     4.488279854810
H                    -1.251397235897    -2.510978160314     4.023445401729
H                     2.301724605171    -4.673664310938     2.912918981139
H                     1.687220791969    -9.821099147636    -2.779944976803
H                     2.759593742049   -10.689861989978    -4.846208456678
H                    -2.410544500937    -3.278338377472     1.939530951403
H                     4.859883972750    -6.924012185538    -2.263906707097
H                     7.161906494107    -9.026037641231    -5.966444315982
H                     5.935036537256    -7.873478161496    -6.639542260104
H                     1.617630305693    -9.676050864551    -0.583248516889
H                     1.272830135328    -8.324158759349     0.511751389247
H                     0.469869441946    -8.397702717983    -1.052959867144
H                     3.029931894820    -5.628196513092     1.002814346730
