53
0 1 C18FH25N4O4S
C                    -2.769112449420    -1.129182145102    -1.306379885816
C                    -1.747038676941    -0.128084057652    -1.101611874840
C                    -0.647262819475    -0.646452612123    -0.473709670380
C                    -4.053599035757    -0.965690189396    -1.963926676994
C                    -2.416776827327    -2.375811489039    -0.828135558332
C                    -4.456698177869    -3.414516004766    -1.580744553276
C                     2.068643872430     1.554130876657    -1.484842767531
C                     2.802430086908     0.122350766540    -3.186281598632
C                     2.081572581872    -0.708002494105    -2.106423600952
C                    -1.869955742472     1.304196082595    -1.543171362619
C                    -7.257649262100    -2.259513139220    -5.064712971400
C                    -4.875386557810    -1.398355822254    -5.079273927948
C                    -4.702019631468    -4.078102993963     2.932719580546
C                     0.647616733194     0.041695407043    -0.135775780704
C                    -2.892855544703    -4.728375323612    -0.209788167004
C                    -6.036972959368    -2.093823362389    -2.892310312255
C                    -3.090003202758    -4.621501392369     1.300036273460
C                    -5.883236988803    -2.320831278626    -4.405206102542
N                    -4.775995880257    -2.169218832706    -2.143057713730
N                    -3.222785650235    -3.484870585892    -0.914752495990
N                     3.036862549916     1.381679829064    -2.475197393414
N                     1.438223890428     0.332411592102    -1.318104013298
O                    -4.503675281485     0.102197401728    -2.376966735808
O                    -5.195031104109    -4.382586369754    -1.663652852997
O                     1.823503947782     2.588754308942    -0.874377756512
O                    -4.438933810034    -4.285981386873     1.553725648625
F                    -5.395069974772    -3.643763801134    -4.586110629073
S                    -0.827144425291    -2.368018031669    -0.123414788449
H                     3.737984205668    -0.340559592911    -3.509264030730
H                     2.152686389418     0.261961891372    -4.060942300907
H                     1.350410578349    -1.401973320001    -2.529647564057
H                     2.796949467331    -1.280648887369    -1.495893411176
H                    -2.761819884739     1.764450147077    -1.110125563561
H                    -0.990128254456     1.886121693500    -1.263368737849
H                    -1.993505740991     1.359269809205    -2.629096509314
H                    -7.942394158499    -2.972576991091    -4.596389187293
H                    -7.171641587331    -2.509240628110    -6.125678749980
H                    -7.683008894467    -1.254877851374    -4.978959799119
H                    -3.877759259017    -1.546198600229    -4.658872574917
H                    -5.151013122413    -0.350878500894    -4.941553050571
H                    -4.833125952464    -1.626757316093    -6.148271330686
H                    -5.757989622631    -3.814514411846     3.019431823020
H                    -4.090010216760    -3.258374743858     3.338189478897
H                    -4.508265533947    -4.987799730882     3.520596524741
H                     0.458157464373     1.002106259996     0.350056281219
H                     1.229230288298    -0.568250893891     0.571678803318
H                    -1.854061031808    -4.997342690445    -0.430913860495
H                    -3.547570549873    -5.497858536238    -0.615428338706
H                    -6.703672828215    -2.854527027663    -2.488760565164
H                    -6.458468989544    -1.102822304208    -2.722305873161
H                    -2.419426422912    -3.864864628588     1.734362654909
H                    -2.829571347914    -5.593577808763     1.750883678553
H                     3.271100789011     2.218120183413    -2.996014567258
