48
0 1 C21H22O4S
C                    -3.672234979722     1.697036505342    -0.548126702619
C                     3.229702657850     1.768118546380     0.241851315830
C                    -2.465499448430     1.362125185932    -1.162866084347
C                     2.056396536857     1.603879815794    -0.500840908770
C                    -2.979546381958     0.505916168021     1.411676032872
C                     1.758605046112    -0.602871243961     0.482967556888
C                    -1.765847323083     0.144891726008     0.812784042782
C                    -3.949426268419     1.275923964599     0.757674829549
C                     3.678419288571     0.771021165645     1.103749459724
C                     2.933799329602    -0.423048059309     1.231598049393
C                     1.324986116384     0.425348302683    -0.380100587235
C                    -1.503975846929     0.587215250427    -0.499956066264
C                     0.969169132673    -1.882990372024     0.487917443474
C                     8.368438831933     1.049664738862     1.675890218871
C                     7.383451412368     0.207501168935     2.029509773048
C                    -0.789275800290    -0.649029932686     1.648783253841
C                    -5.262722886678     1.606494274013     1.427048927181
C                     7.466717986228    -0.656944349382     3.263436577883
C                     2.640699090082    -2.261372096427     2.817898624707
C                     6.105398186843     0.111058839253     1.229524965919
C                     4.962956279036     0.930577265303     1.885335431417
O                     1.403482321735    -2.932553064353     0.068073488675
O                    -0.292523685074    -1.837155846675     0.995960581084
O                     5.297567644928     2.316495264063     1.935089974540
O                     3.467840403811    -1.332765640518     2.105457863126
S                    -0.068766536192     0.137352855794    -1.476999879717
H                    -4.397765193613     2.300284084259    -1.089470046619
H                     3.805102598271     2.684518339276     0.171608237634
H                    -2.256761618812     1.713042523141    -2.169752814846
H                     1.715092328109     2.379023404204    -1.179393775625
H                    -3.179181717956     0.163838968954     2.426036528912
H                     8.307050031494     1.645351756592     0.767533977787
H                     9.278724410794     1.142355927093     2.264232966014
H                     0.045623145512    -0.020401760594     1.967781283174
H                    -1.296391226748    -1.014779980107     2.543879615802
H                    -6.010341571188     0.829901533811     1.224997558543
H                    -5.152306193386     1.680969129445     2.512928972101
H                    -5.668194864695     2.554524491654     1.061652126714
H                     6.617490133376    -0.477642060318     3.933573278085
H                     8.388921244426    -0.480803486685     3.823334742885
H                     7.426502603175    -1.717434191271     2.986525282140
H                     3.200408021313    -2.518862091112     3.719150428900
H                     2.452986762236    -3.159058833752     2.226968412674
H                     1.690623718940    -1.799902527768     3.108090093519
H                     5.781188095367    -0.930938672171     1.153115068181
H                     6.252207158928     0.498766528812     0.216729315684
H                     4.797082750710     0.550617470956     2.901671726992
H                     6.228327264697     2.372708632005     2.214804062671
