
  -OEChem-05262117483D

 47 51  0     0  0  0  0  0  0999 V2000
   -4.0477   -1.6105    3.9976 C   0  0  0  0  0  0  0  0  0  0  0  0
    2.5944   -0.1471    0.1274 C   0  0  0  0  0  0  0  0  0  0  0  0
   -3.6906   -0.5651    3.1425 C   0  0  0  0  0  0  0  0  0  0  0  0
    1.4212    0.4239    0.6171 C   0  0  0  0  0  0  0  0  0  0  0  0
   -3.6189   -1.6186    5.3284 C   0  0  0  0  0  0  0  0  0  0  0  0
    1.1828   -1.4730    2.0983 C   0  0  0  0  0  0  0  0  0  0  0  0
    4.2968   -3.2380   -0.5982 C   0  0  0  0  0  0  0  0  0  0  0  0
   -2.4651    0.4899    4.9415 C   0  0  0  0  0  0  0  0  0  0  0  0
    5.4838   -1.2014   -0.1559 C   0  0  0  0  0  0  0  0  0  0  0  0
    6.5963   -2.8790   -1.2581 C   0  0  0  0  0  0  0  0  0  0  0  0
    3.0897   -1.3750    0.5889 C   0  0  0  0  0  0  0  0  0  0  0  0
    2.3697   -2.0310    1.6123 C   0  0  0  0  0  0  0  0  0  0  0  0
    4.3001   -1.9494   -0.0480 C   0  0  0  0  0  0  0  0  0  0  0  0
   -2.8981    0.4957    3.6071 C   0  0  0  0  0  0  0  0  0  0  0  0
    0.6939   -0.2542    1.6087 C   0  0  0  0  0  0  0  0  0  0  0  0
    5.4628   -3.6873   -1.1954 C   0  0  0  0  0  0  0  0  0  0  0  0
   -2.8290   -0.5610    5.7846 C   0  0  0  0  0  0  0  0  0  0  0  0
    2.8477   -3.2715    2.2456 C   0  0  0  0  0  0  0  0  0  0  0  0
   -1.1801    1.3912    1.8916 C   0  0  0  0  0  0  0  0  0  0  0  0
   -3.5218    2.4016    1.9441 C   0  0  0  0  0  0  0  0  0  0  0  0
   -2.7405    3.0401    3.0520 C   0  0  0  0  0  0  0  0  0  0  0  0
   -2.4606    1.5879    2.6765 C   0  0  0  0  0  0  0  0  0  0  0  0
    6.6019   -1.6444   -0.7430 N   0  0  0  0  0  0  0  0  0  0  0  0
    4.1617   -3.5729    2.4844 N   0  0  0  0  0  0  0  0  0  0  0  0
    2.0300   -4.2211    2.7179 N   0  0  0  0  0  0  0  0  0  0  0  0
    4.1798   -4.7245    3.1092 N   0  0  0  0  0  0  0  0  0  0  0  0
    2.9035   -5.0823    3.2360 N   0  0  0  0  0  0  0  0  0  0  0  0
   -0.5130    0.2181    2.1592 N   0  0  0  0  0  0  0  0  0  0  0  0
   -0.7868    2.2330    1.0856 O   0  0  0  0  0  0  0  0  0  0  0  0
    5.5010   -4.9293   -1.7401 F   0  0  0  0  0  0  0  0  0  0  0  0
   -2.2797   -0.5532    7.4522 Cl  0  0  0  0  0  0  0  0  0  0  0  0
   -4.6636   -2.4273    3.6313 H   0  0  0  0  0  0  0  0  0  0  0  0
    3.1304    0.3643   -0.6673 H   0  0  0  0  0  0  0  0  0  0  0  0
   -4.0247   -0.5657    2.1085 H   0  0  0  0  0  0  0  0  0  0  0  0
    1.0611    1.3695    0.2365 H   0  0  0  0  0  0  0  0  0  0  0  0
   -3.8929   -2.4256    6.0003 H   0  0  0  0  0  0  0  0  0  0  0  0
    0.6487   -1.9927    2.8898 H   0  0  0  0  0  0  0  0  0  0  0  0
    3.4156   -3.8721   -0.5701 H   0  0  0  0  0  0  0  0  0  0  0  0
   -1.8478    1.3008    5.3162 H   0  0  0  0  0  0  0  0  0  0  0  0
    5.5298   -0.2018    0.2722 H   0  0  0  0  0  0  0  0  0  0  0  0
    7.5056   -3.2412   -1.7336 H   0  0  0  0  0  0  0  0  0  0  0  0
   -4.5548    2.1293    2.1368 H   0  0  0  0  0  0  0  0  0  0  0  0
   -3.2826    2.6953    0.9278 H   0  0  0  0  0  0  0  0  0  0  0  0
   -1.9784    3.7612    2.7773 H   0  0  0  0  0  0  0  0  0  0  0  0
   -3.2384    3.2056    4.0023 H   0  0  0  0  0  0  0  0  0  0  0  0
    2.6250   -5.9501    3.6813 H   0  0  0  0  0  0  0  0  0  0  0  0
   -0.9406   -0.3886    2.8483 H   0  0  0  0  0  0  0  0  0  0  0  0
  1  3  1  0  0  0  0
  1  5  2  0  0  0  0
  1 32  1  0  0  0  0
  2  4  2  0  0  0  0
  2 11  1  0  0  0  0
  2 33  1  0  0  0  0
  3 14  2  0  0  0  0
  3 34  1  0  0  0  0
  4 15  1  0  0  0  0
  4 35  1  0  0  0  0
  5 17  1  0  0  0  0
  5 36  1  0  0  0  0
  6 12  1  0  0  0  0
  6 15  2  0  0  0  0
  6 37  1  0  0  0  0
  7 13  1  0  0  0  0
  7 16  2  0  0  0  0
  7 38  1  0  0  0  0
  8 14  1  0  0  0  0
  8 17  2  0  0  0  0
  8 39  1  0  0  0  0
  9 13  2  0  0  0  0
  9 23  1  0  0  0  0
  9 40  1  0  0  0  0
 10 16  1  0  0  0  0
 10 23  2  0  0  0  0
 10 41  1  0  0  0  0
 11 12  2  0  0  0  0
 11 13  1  0  0  0  0
 12 18  1  0  0  0  0
 14 22  1  0  0  0  0
 15 28  1  0  0  0  0
 16 30  1  0  0  0  0
 17 31  1  0  0  0  0
 18 24  1  0  0  0  0
 18 25  2  0  0  0  0
 19 22  1  0  0  0  0
 19 28  1  0  0  0  0
 19 29  2  0  0  0  0
 20 21  1  0  0  0  0
 20 22  1  0  0  0  0
 20 42  1  0  0  0  0
 20 43  1  0  0  0  0
 21 22  1  0  0  0  0
 21 44  1  0  0  0  0
 21 45  1  0  0  0  0
 24 26  2  0  0  0  0
 25 27  1  0  0  0  0
 26 27  1  0  0  0  0
 27 46  1  0  0  0  0
 28 47  1  0  0  0  0
M  END
$$$$
