
  -OEChem-05262117483D

 53 55  0     0  0  0  0  0  0999 V2000
   -2.8201   -1.0753   -1.3356 C   0  0  0  0  0  0  0  0  0  0  0  0
   -1.7649   -0.1169   -1.0864 C   0  0  0  0  0  0  0  0  0  0  0  0
   -0.7272   -0.6729   -0.3868 C   0  0  0  0  0  0  0  0  0  0  0  0
   -4.0680   -0.8536   -2.0460 C   0  0  0  0  0  0  0  0  0  0  0  0
   -2.5517   -2.3236   -0.8129 C   0  0  0  0  0  0  0  0  0  0  0  0
   -4.5842   -3.2810   -1.6732 C   0  0  0  0  0  0  0  0  0  0  0  0
    1.5318    0.0071    2.4089 C   0  0  0  0  0  0  0  0  0  0  0  0
   -0.0992    1.1726    3.6206 C   0  0  0  0  0  0  0  0  0  0  0  0
   -0.4487    1.2283    2.1219 C   0  0  0  0  0  0  0  0  0  0  0  0
   -1.8433    1.3178   -1.5336 C   0  0  0  0  0  0  0  0  0  0  0  0
   -8.6658   -1.2685   -2.4240 C   0  0  0  0  0  0  0  0  0  0  0  0
   -7.5017   -2.5372   -0.5656 C   0  0  0  0  0  0  0  0  0  0  0  0
   -5.1962   -4.0439    2.6963 C   0  0  0  0  0  0  0  0  0  0  0  0
    0.5258   -0.0420    0.1473 C   0  0  0  0  0  0  0  0  0  0  0  0
   -3.1203   -4.6791   -0.2810 C   0  0  0  0  0  0  0  0  0  0  0  0
   -6.2445   -1.8205   -2.6971 C   0  0  0  0  0  0  0  0  0  0  0  0
   -3.4496   -4.6042    1.2081 C   0  0  0  0  0  0  0  0  0  0  0  0
   -7.3557   -1.5081   -1.6799 C   0  0  0  0  0  0  0  0  0  0  0  0
   -4.9204   -1.9906   -2.0868 N   0  0  0  0  0  0  0  0  0  0  0  0
   -3.3810   -3.4094   -0.9671 N   0  0  0  0  0  0  0  0  0  0  0  0
    1.2998    0.7421    3.5716 N   0  0  0  0  0  0  0  0  0  0  0  0
    0.4396    0.2098    1.5767 N   0  0  0  0  0  0  0  0  0  0  0  0
   -4.3954    0.1981   -2.5856 O   0  0  0  0  0  0  0  0  0  0  0  0
   -5.2971   -4.2499   -1.9054 O   0  0  0  0  0  0  0  0  0  0  0  0
    2.5148   -0.6828    2.1650 O   0  0  0  0  0  0  0  0  0  0  0  0
   -4.8111   -4.2431    1.3448 O   0  0  0  0  0  0  0  0  0  0  0  0
   -7.0077   -0.2813   -1.0484 F   0  0  0  0  0  0  0  0  0  0  0  0
   -1.0152   -2.3742   -0.0030 S   0  0  0  0  0  0  0  0  0  0  0  0
   -0.2074    2.1445    4.1081 H   0  0  0  0  0  0  0  0  0  0  0  0
   -0.7349    0.4409    4.1381 H   0  0  0  0  0  0  0  0  0  0  0  0
   -1.4976    0.9951    1.9217 H   0  0  0  0  0  0  0  0  0  0  0  0
   -0.2218    2.2179    1.6963 H   0  0  0  0  0  0  0  0  0  0  0  0
   -2.7451    1.7928   -1.1381 H   0  0  0  0  0  0  0  0  0  0  0  0
   -0.9717    1.8891   -1.2081 H   0  0  0  0  0  0  0  0  0  0  0  0
   -1.9191    1.3800   -2.6225 H   0  0  0  0  0  0  0  0  0  0  0  0
   -8.5462   -0.4802   -3.1731 H   0  0  0  0  0  0  0  0  0  0  0  0
   -9.4426   -0.9603   -1.7190 H   0  0  0  0  0  0  0  0  0  0  0  0
   -8.9975   -2.1830   -2.9255 H   0  0  0  0  0  0  0  0  0  0  0  0
   -6.5817   -2.6234    0.0164 H   0  0  0  0  0  0  0  0  0  0  0  0
   -7.7319   -3.5237   -0.9737 H   0  0  0  0  0  0  0  0  0  0  0  0
   -8.3083   -2.2263    0.1055 H   0  0  0  0  0  0  0  0  0  0  0  0
   -6.2485   -3.7528    2.6875 H   0  0  0  0  0  0  0  0  0  0  0  0
   -4.6041   -3.2449    3.1672 H   0  0  0  0  0  0  0  0  0  0  0  0
   -5.0813   -4.9650    3.2867 H   0  0  0  0  0  0  0  0  0  0  0  0
    1.3959   -0.6878    0.0013 H   0  0  0  0  0  0  0  0  0  0  0  0
    0.7207    0.8912   -0.3973 H   0  0  0  0  0  0  0  0  0  0  0  0
   -2.0694   -4.9531   -0.4195 H   0  0  0  0  0  0  0  0  0  0  0  0
   -3.7446   -5.4294   -0.7633 H   0  0  0  0  0  0  0  0  0  0  0  0
   -6.1660   -0.9888   -3.3963 H   0  0  0  0  0  0  0  0  0  0  0  0
   -6.4927   -2.7352   -3.2352 H   0  0  0  0  0  0  0  0  0  0  0  0
   -2.8072   -3.8703    1.7171 H   0  0  0  0  0  0  0  0  0  0  0  0
   -3.2527   -5.5902    1.6596 H   0  0  0  0  0  0  0  0  0  0  0  0
    1.7529    0.3884    4.4054 H   0  0  0  0  0  0  0  0  0  0  0  0
  1  2  1  0  0  0  0
  1  4  1  0  0  0  0
  1  5  2  0  0  0  0
  2  3  2  0  0  0  0
  2 10  1  0  0  0  0
  3 14  1  0  0  0  0
  3 28  1  0  0  0  0
  4 19  1  0  0  0  0
  4 23  2  0  0  0  0
  5 20  1  0  0  0  0
  5 28  1  0  0  0  0
  6 19  1  0  0  0  0
  6 20  1  0  0  0  0
  6 24  2  0  0  0  0
  7 21  1  0  0  0  0
  7 22  1  0  0  0  0
  7 25  2  0  0  0  0
  8  9  1  0  0  0  0
  8 21  1  0  0  0  0
  8 29  1  0  0  0  0
  8 30  1  0  0  0  0
  9 22  1  0  0  0  0
  9 31  1  0  0  0  0
  9 32  1  0  0  0  0
 10 33  1  0  0  0  0
 10 34  1  0  0  0  0
 10 35  1  0  0  0  0
 11 18  1  0  0  0  0
 11 36  1  0  0  0  0
 11 37  1  0  0  0  0
 11 38  1  0  0  0  0
 12 18  1  0  0  0  0
 12 39  1  0  0  0  0
 12 40  1  0  0  0  0
 12 41  1  0  0  0  0
 13 26  1  0  0  0  0
 13 42  1  0  0  0  0
 13 43  1  0  0  0  0
 13 44  1  0  0  0  0
 14 22  1  0  0  0  0
 14 45  1  0  0  0  0
 14 46  1  0  0  0  0
 15 17  1  0  0  0  0
 15 20  1  0  0  0  0
 15 47  1  0  0  0  0
 15 48  1  0  0  0  0
 16 18  1  0  0  0  0
 16 19  1  0  0  0  0
 16 49  1  0  0  0  0
 16 50  1  0  0  0  0
 17 26  1  0  0  0  0
 17 51  1  0  0  0  0
 17 52  1  0  0  0  0
 18 27  1  0  0  0  0
 21 53  1  0  0  0  0
M  END
$$$$
