
  -OEChem-05262117483D

 47 51  0     0  0  0  0  0  0999 V2000
   -4.0171   -1.7198    3.9874 C   0  0  0  0  0  0  0  0  0  0  0  0
    2.5856   -0.1645    0.0919 C   0  0  0  0  0  0  0  0  0  0  0  0
   -3.6750   -0.6687    3.1333 C   0  0  0  0  0  0  0  0  0  0  0  0
    1.4070    0.3897    0.5878 C   0  0  0  0  0  0  0  0  0  0  0  0
   -3.5891   -1.7224    5.3185 C   0  0  0  0  0  0  0  0  0  0  0  0
    1.2187   -1.4957    2.0921 C   0  0  0  0  0  0  0  0  0  0  0  0
    5.5003   -1.2169   -0.1936 C   0  0  0  0  0  0  0  0  0  0  0  0
   -2.4658    0.4029    4.9334 C   0  0  0  0  0  0  0  0  0  0  0  0
    4.2872   -3.2336   -0.6587 C   0  0  0  0  0  0  0  0  0  0  0  0
    6.4660   -3.1029   -1.3635 C   0  0  0  0  0  0  0  0  0  0  0  0
    3.1068   -1.3783    0.5612 C   0  0  0  0  0  0  0  0  0  0  0  0
    2.4111   -2.0357    1.5994 C   0  0  0  0  0  0  0  0  0  0  0  0
    4.3133   -1.9496   -0.0861 C   0  0  0  0  0  0  0  0  0  0  0  0
   -2.8982    0.4033    3.5988 C   0  0  0  0  0  0  0  0  0  0  0  0
    0.7022   -0.2920    1.5937 C   0  0  0  0  0  0  0  0  0  0  0  0
    6.5722   -1.8181   -0.8381 C   0  0  0  0  0  0  0  0  0  0  0  0
   -2.8150   -0.6537    5.7756 C   0  0  0  0  0  0  0  0  0  0  0  0
    2.9275   -3.2570    2.2389 C   0  0  0  0  0  0  0  0  0  0  0  0
   -1.1980    1.3225    1.8780 C   0  0  0  0  0  0  0  0  0  0  0  0
   -3.5513    2.3046    1.9424 C   0  0  0  0  0  0  0  0  0  0  0  0
   -2.7730    2.9506    3.0479 C   0  0  0  0  0  0  0  0  0  0  0  0
   -2.4774    1.5023    2.6686 C   0  0  0  0  0  0  0  0  0  0  0  0
    5.3258   -3.8005   -1.2780 N   0  0  0  0  0  0  0  0  0  0  0  0
    4.2525   -3.5175    2.4648 N   0  0  0  0  0  0  0  0  0  0  0  0
    2.1431   -4.2253    2.7278 N   0  0  0  0  0  0  0  0  0  0  0  0
    4.3111   -4.6629    3.0983 N   0  0  0  0  0  0  0  0  0  0  0  0
    3.0474   -5.0569    3.2418 N   0  0  0  0  0  0  0  0  0  0  0  0
   -0.5087    0.1634    2.1498 N   0  0  0  0  0  0  0  0  0  0  0  0
   -0.8233    2.1659    1.0648 O   0  0  0  0  0  0  0  0  0  0  0  0
    7.7451   -1.1473   -0.9539 F   0  0  0  0  0  0  0  0  0  0  0  0
   -2.2671   -0.6387    7.4437 Cl  0  0  0  0  0  0  0  0  0  0  0  0
   -4.6207   -2.5453    3.6202 H   0  0  0  0  0  0  0  0  0  0  0  0
    3.1043    0.3479   -0.7139 H   0  0  0  0  0  0  0  0  0  0  0  0
   -4.0085   -0.6735    2.0991 H   0  0  0  0  0  0  0  0  0  0  0  0
    1.0252    1.3244    0.2018 H   0  0  0  0  0  0  0  0  0  0  0  0
   -3.8517   -2.5338    5.9898 H   0  0  0  0  0  0  0  0  0  0  0  0
    0.7030   -2.0166    2.8949 H   0  0  0  0  0  0  0  0  0  0  0  0
    5.6010   -0.2235    0.2337 H   0  0  0  0  0  0  0  0  0  0  0  0
   -1.8606    1.2226    5.3091 H   0  0  0  0  0  0  0  0  0  0  0  0
    3.3728   -3.8228   -0.6170 H   0  0  0  0  0  0  0  0  0  0  0  0
    7.3153   -3.5664   -1.8614 H   0  0  0  0  0  0  0  0  0  0  0  0
   -4.5802    2.0196    2.1388 H   0  0  0  0  0  0  0  0  0  0  0  0
   -3.3196    2.6026    0.9256 H   0  0  0  0  0  0  0  0  0  0  0  0
   -2.0209    3.6815    2.7713 H   0  0  0  0  0  0  0  0  0  0  0  0
   -3.2685    3.1084    4.0008 H   0  0  0  0  0  0  0  0  0  0  0  0
    2.7997   -5.9308    3.6934 H   0  0  0  0  0  0  0  0  0  0  0  0
   -0.9223   -0.4469    2.8442 H   0  0  0  0  0  0  0  0  0  0  0  0
  1  3  1  0  0  0  0
  1  5  2  0  0  0  0
  1 32  1  0  0  0  0
  2  4  2  0  0  0  0
  2 11  1  0  0  0  0
  2 33  1  0  0  0  0
  3 14  2  0  0  0  0
  3 34  1  0  0  0  0
  4 15  1  0  0  0  0
  4 35  1  0  0  0  0
  5 17  1  0  0  0  0
  5 36  1  0  0  0  0
  6 12  1  0  0  0  0
  6 15  2  0  0  0  0
  6 37  1  0  0  0  0
  7 13  1  0  0  0  0
  7 16  2  0  0  0  0
  7 38  1  0  0  0  0
  8 14  1  0  0  0  0
  8 17  2  0  0  0  0
  8 39  1  0  0  0  0
  9 13  2  0  0  0  0
  9 23  1  0  0  0  0
  9 40  1  0  0  0  0
 10 16  1  0  0  0  0
 10 23  2  0  0  0  0
 10 41  1  0  0  0  0
 11 12  2  0  0  0  0
 11 13  1  0  0  0  0
 12 18  1  0  0  0  0
 14 22  1  0  0  0  0
 15 28  1  0  0  0  0
 16 30  1  0  0  0  0
 17 31  1  0  0  0  0
 18 24  1  0  0  0  0
 18 25  2  0  0  0  0
 19 22  1  0  0  0  0
 19 28  1  0  0  0  0
 19 29  2  0  0  0  0
 20 21  1  0  0  0  0
 20 22  1  0  0  0  0
 20 42  1  0  0  0  0
 20 43  1  0  0  0  0
 21 22  1  0  0  0  0
 21 44  1  0  0  0  0
 21 45  1  0  0  0  0
 24 26  2  0  0  0  0
 25 27  1  0  0  0  0
 26 27  1  0  0  0  0
 27 46  1  0  0  0  0
 28 47  1  0  0  0  0
M  END
$$$$
