
  -OEChem-05262117483D

 47 51  0     0  0  0  0  0  0999 V2000
   -0.7762    4.2059    4.1995 C   0  0  0  0  0  0  0  0  0  0  0  0
    1.4755   -2.0860    0.1187 C   0  0  0  0  0  0  0  0  0  0  0  0
   -1.4664    3.4030    3.2881 C   0  0  0  0  0  0  0  0  0  0  0  0
    0.3710   -1.3913    0.6085 C   0  0  0  0  0  0  0  0  0  0  0  0
   -0.5868    3.7830    5.5186 C   0  0  0  0  0  0  0  0  0  0  0  0
    1.8411   -0.2608    2.1609 C   0  0  0  0  0  0  0  0  0  0  0  0
    5.0164   -1.9307   -0.5264 C   0  0  0  0  0  0  0  0  0  0  0  0
   -1.7942    1.7319    5.0059 C   0  0  0  0  0  0  0  0  0  0  0  0
    3.8740   -4.0101   -0.1757 C   0  0  0  0  0  0  0  0  0  0  0  0
    5.9081   -4.0643   -1.2369 C   0  0  0  0  0  0  0  0  0  0  0  0
    2.7727   -1.8939    0.6151 C   0  0  0  0  0  0  0  0  0  0  0  0
    2.9414   -0.9738    1.6738 C   0  0  0  0  0  0  0  0  0  0  0  0
    3.9023   -2.6144   -0.0218 C   0  0  0  0  0  0  0  0  0  0  0  0
   -1.9837    2.1599    3.6832 C   0  0  0  0  0  0  0  0  0  0  0  0
    0.5555   -0.4531    1.6370 C   0  0  0  0  0  0  0  0  0  0  0  0
    6.0151   -2.6791   -1.1270 C   0  0  0  0  0  0  0  0  0  0  0  0
   -1.1024    2.5441    5.9055 C   0  0  0  0  0  0  0  0  0  0  0  0
    4.2372   -0.7658    2.3417 C   0  0  0  0  0  0  0  0  0  0  0  0
   -1.8255    0.3003    1.8904 C   0  0  0  0  0  0  0  0  0  0  0  0
   -4.0733    0.7530    3.0055 C   0  0  0  0  0  0  0  0  0  0  0  0
   -3.8907    1.7964    1.9456 C   0  0  0  0  0  0  0  0  0  0  0  0
   -2.6712    1.2674    2.6929 C   0  0  0  0  0  0  0  0  0  0  0  0
    4.8422   -4.7210   -0.7655 N   0  0  0  0  0  0  0  0  0  0  0  0
    5.1669   -1.7448    2.5692 N   0  0  0  0  0  0  0  0  0  0  0  0
    4.6203    0.4084    2.8594 N   0  0  0  0  0  0  0  0  0  0  0  0
    6.1499   -1.1882    3.2332 N   0  0  0  0  0  0  0  0  0  0  0  0
    5.7971    0.0858    3.3925 N   0  0  0  0  0  0  0  0  0  0  0  0
   -0.4835    0.3177    2.1932 N   0  0  0  0  0  0  0  0  0  0  0  0
   -2.3253   -0.4358    1.0412 O   0  0  0  0  0  0  0  0  0  0  0  0
    7.1105   -2.0551   -1.6285 F   0  0  0  0  0  0  0  0  0  0  0  0
   -0.8745    1.9946    7.5574 Cl  0  0  0  0  0  0  0  0  0  0  0  0
   -0.3807    5.1683    3.8865 H   0  0  0  0  0  0  0  0  0  0  0  0
    1.3309   -2.7816   -0.7032 H   0  0  0  0  0  0  0  0  0  0  0  0
   -1.6081    3.7361    2.2635 H   0  0  0  0  0  0  0  0  0  0  0  0
   -0.6164   -1.5563    0.2006 H   0  0  0  0  0  0  0  0  0  0  0  0
   -0.0536    4.4008    6.2340 H   0  0  0  0  0  0  0  0  0  0  0  0
    1.9940    0.4376    2.9799 H   0  0  0  0  0  0  0  0  0  0  0  0
    5.1049   -0.8504   -0.4613 H   0  0  0  0  0  0  0  0  0  0  0  0
   -2.1844    0.7709    5.3274 H   0  0  0  0  0  0  0  0  0  0  0  0
    3.0322   -4.5777    0.2164 H   0  0  0  0  0  0  0  0  0  0  0  0
    6.6972   -4.6416   -1.7147 H   0  0  0  0  0  0  0  0  0  0  0  0
   -4.4974    1.0567    3.9575 H   0  0  0  0  0  0  0  0  0  0  0  0
   -4.2961   -0.2577    2.6812 H   0  0  0  0  0  0  0  0  0  0  0  0
   -3.9908    1.4838    0.9119 H   0  0  0  0  0  0  0  0  0  0  0  0
   -4.1896    2.8151    2.1722 H   0  0  0  0  0  0  0  0  0  0  0  0
    6.3882    0.7566    3.8718 H   0  0  0  0  0  0  0  0  0  0  0  0
   -0.1998    0.9688    2.9152 H   0  0  0  0  0  0  0  0  0  0  0  0
  1  3  1  0  0  0  0
  1  5  2  0  0  0  0
  1 32  1  0  0  0  0
  2  4  2  0  0  0  0
  2 11  1  0  0  0  0
  2 33  1  0  0  0  0
  3 14  2  0  0  0  0
  3 34  1  0  0  0  0
  4 15  1  0  0  0  0
  4 35  1  0  0  0  0
  5 17  1  0  0  0  0
  5 36  1  0  0  0  0
  6 12  1  0  0  0  0
  6 15  2  0  0  0  0
  6 37  1  0  0  0  0
  7 13  1  0  0  0  0
  7 16  2  0  0  0  0
  7 38  1  0  0  0  0
  8 14  1  0  0  0  0
  8 17  2  0  0  0  0
  8 39  1  0  0  0  0
  9 13  2  0  0  0  0
  9 23  1  0  0  0  0
  9 40  1  0  0  0  0
 10 16  1  0  0  0  0
 10 23  2  0  0  0  0
 10 41  1  0  0  0  0
 11 12  2  0  0  0  0
 11 13  1  0  0  0  0
 12 18  1  0  0  0  0
 14 22  1  0  0  0  0
 15 28  1  0  0  0  0
 16 30  1  0  0  0  0
 17 31  1  0  0  0  0
 18 24  1  0  0  0  0
 18 25  2  0  0  0  0
 19 22  1  0  0  0  0
 19 28  1  0  0  0  0
 19 29  2  0  0  0  0
 20 21  1  0  0  0  0
 20 22  1  0  0  0  0
 20 42  1  0  0  0  0
 20 43  1  0  0  0  0
 21 22  1  0  0  0  0
 21 44  1  0  0  0  0
 21 45  1  0  0  0  0
 24 26  2  0  0  0  0
 25 27  1  0  0  0  0
 26 27  1  0  0  0  0
 27 46  1  0  0  0  0
 28 47  1  0  0  0  0
M  END
$$$$
