
  -OEChem-05262117483D

 48 50  0     1  0  0  0  0  0999 V2000
   -3.7121    2.6073   -1.0880 C   0  0  0  0  0  0  0  0  0  0  0  0
    3.0881    1.8296    0.1019 C   0  0  0  0  0  0  0  0  0  0  0  0
   -2.5115    2.1671   -1.6460 C   0  0  0  0  0  0  0  0  0  0  0  0
    1.9558    1.8459   -0.7158 C   0  0  0  0  0  0  0  0  0  0  0  0
   -3.2964    1.2375    0.8328 C   0  0  0  0  0  0  0  0  0  0  0  0
    1.3367   -0.3500    0.1393 C   0  0  0  0  0  0  0  0  0  0  0  0
   -2.0936    0.7687    0.2892 C   0  0  0  0  0  0  0  0  0  0  0  0
   -4.1249    2.1510    0.1691 C   0  0  0  0  0  0  0  0  0  0  0  0
    3.3621    0.7513    0.9413 C   0  0  0  0  0  0  0  0  0  0  0  0
    2.4703   -0.3462    0.9747 C   0  0  0  0  0  0  0  0  0  0  0  0
    1.0864    0.7580   -0.6966 C   0  0  0  0  0  0  0  0  0  0  0  0
   -1.6927    1.2491   -0.9744 C   0  0  0  0  0  0  0  0  0  0  0  0
    0.4119   -1.5292   -0.0016 C   0  0  0  0  0  0  0  0  0  0  0  0
    6.4068   -2.0560    1.1600 C   0  0  0  0  0  0  0  0  0  0  0  0
    5.8761   -1.0532    0.4470 C   0  0  0  0  0  0  0  0  0  0  0  0
   -1.2767   -0.1824    1.1329 C   0  0  0  0  0  0  0  0  0  0  0  0
   -5.4355    2.5955    0.7747 C   0  0  0  0  0  0  0  0  0  0  0  0
    5.2739   -1.2764   -0.9189 C   0  0  0  0  0  0  0  0  0  0  0  0
    1.8902   -2.2899    2.3462 C   0  0  0  0  0  0  0  0  0  0  0  0
    5.8854    0.3647    0.9846 C   0  0  0  0  0  0  0  0  0  0  0  0
    4.6272    0.7597    1.7826 C   0  0  1  0  0  0  0  0  0  0  0  0
    0.7554   -2.5847   -0.4850 O   0  0  0  0  0  0  0  0  0  0  0  0
   -0.8678   -1.3775    0.4348 O   0  0  0  0  0  0  0  0  0  0  0  0
    4.8996    2.0795    2.2862 O   0  0  0  0  0  0  0  0  0  0  0  0
    2.8311   -1.3408    1.8341 O   0  0  0  0  0  0  0  0  0  0  0  0
   -0.2556    0.6869   -1.8898 S   0  0  0  0  0  0  0  0  0  0  0  0
   -4.3255    3.3196   -1.6353 H   0  0  0  0  0  0  0  0  0  0  0  0
    3.7794    2.6673    0.0969 H   0  0  0  0  0  0  0  0  0  0  0  0
   -2.1957    2.5450   -2.6144 H   0  0  0  0  0  0  0  0  0  0  0  0
    1.7556    2.6822   -1.3777 H   0  0  0  0  0  0  0  0  0  0  0  0
   -3.6039    0.8655    1.8090 H   0  0  0  0  0  0  0  0  0  0  0  0
    6.8607   -1.8834    2.1341 H   0  0  0  0  0  0  0  0  0  0  0  0
    6.4000   -3.0809    0.7962 H   0  0  0  0  0  0  0  0  0  0  0  0
   -0.4027    0.3240    1.5499 H   0  0  0  0  0  0  0  0  0  0  0  0
   -1.8866   -0.5404    1.9647 H   0  0  0  0  0  0  0  0  0  0  0  0
   -6.2460    1.9111    0.4963 H   0  0  0  0  0  0  0  0  0  0  0  0
   -5.3860    2.6175    1.8674 H   0  0  0  0  0  0  0  0  0  0  0  0
   -5.7161    3.5942    0.4277 H   0  0  0  0  0  0  0  0  0  0  0  0
    4.2298   -0.9520   -0.9643 H   0  0  0  0  0  0  0  0  0  0  0  0
    5.3128   -2.3304   -1.2060 H   0  0  0  0  0  0  0  0  0  0  0  0
    5.8165   -0.6932   -1.6741 H   0  0  0  0  0  0  0  0  0  0  0  0
    2.3364   -2.6687    3.2672 H   0  0  0  0  0  0  0  0  0  0  0  0
    1.7320   -3.1094    1.6438 H   0  0  0  0  0  0  0  0  0  0  0  0
    0.9327   -1.8124    2.5829 H   0  0  0  0  0  0  0  0  0  0  0  0
    6.0025    1.0859    0.1669 H   0  0  0  0  0  0  0  0  0  0  0  0
    6.7324    0.5024    1.6632 H   0  0  0  0  0  0  0  0  0  0  0  0
    4.5115    0.0560    2.6124 H   0  0  0  0  0  0  0  0  0  0  0  0
    4.1357    2.3558    2.8176 H   0  0  0  0  0  0  0  0  0  0  0  0
  1  3  2  0  0  0  0
  1  8  1  0  0  0  0
  1 27  1  0  0  0  0
  2  4  1  0  0  0  0
  2  9  2  0  0  0  0
  2 28  1  0  0  0  0
  3 12  1  0  0  0  0
  3 29  1  0  0  0  0
  4 11  2  0  0  0  0
  4 30  1  0  0  0  0
  5  7  1  0  0  0  0
  5  8  2  0  0  0  0
  5 31  1  0  0  0  0
  6 10  2  0  0  0  0
  6 11  1  0  0  0  0
  6 13  1  0  0  0  0
  7 12  2  0  0  0  0
  7 16  1  0  0  0  0
  8 17  1  0  0  0  0
  9 10  1  0  0  0  0
  9 21  1  0  0  0  0
 10 25  1  0  0  0  0
 11 26  1  0  0  0  0
 12 26  1  0  0  0  0
 13 22  2  0  0  0  0
 13 23  1  0  0  0  0
 14 15  2  0  0  0  0
 14 32  1  0  0  0  0
 14 33  1  0  0  0  0
 15 18  1  0  0  0  0
 15 20  1  0  0  0  0
 16 23  1  0  0  0  0
 16 34  1  0  0  0  0
 16 35  1  0  0  0  0
 17 36  1  0  0  0  0
 17 37  1  0  0  0  0
 17 38  1  0  0  0  0
 18 39  1  0  0  0  0
 18 40  1  0  0  0  0
 18 41  1  0  0  0  0
 19 25  1  0  0  0  0
 19 42  1  0  0  0  0
 19 43  1  0  0  0  0
 19 44  1  0  0  0  0
 20 21  1  0  0  0  0
 20 45  1  0  0  0  0
 20 46  1  0  0  0  0
 21 24  1  0  0  0  0
 21 47  1  0  0  0  0
 24 48  1  0  0  0  0
M  END
$$$$
