
  -OEChem-05262117483D

 49 50  0     1  0  0  0  0  0999 V2000
    3.5817    5.6992    3.3680 C   0  0  0  0  0  0  0  0  0  0  0  0
    1.2212    6.2303    3.3740 C   0  0  0  0  0  0  0  0  0  0  0  0
    3.2995    4.3962    2.9564 C   0  0  0  0  0  0  0  0  0  0  0  0
    0.9273    4.9371    2.9633 C   0  0  0  0  0  0  0  0  0  0  0  0
    2.5552    6.6268    3.5808 C   0  0  0  0  0  0  0  0  0  0  0  0
    1.9649    4.0130    2.7520 C   0  0  0  0  0  0  0  0  0  0  0  0
   -0.7247   -1.0140    4.9695 C   0  0  0  0  0  0  0  0  0  0  0  0
    0.6487   -1.1040    4.8620 C   0  0  0  0  0  0  0  0  0  0  0  0
   -1.1581   -1.6375    6.1920 C   0  0  0  0  0  0  0  0  0  0  0  0
    2.9216    7.9973    4.0205 C   0  0  0  0  0  0  0  0  0  0  0  0
    1.6130   -0.6479    3.8365 C   0  0  0  0  0  0  0  0  0  0  0  0
    0.3830   -0.7259    0.0778 C   0  0  0  0  0  0  0  0  0  0  0  0
   -0.0318   10.1294    6.0080 C   0  0  0  0  0  0  0  0  0  0  0  0
    1.0157   12.3072    5.2375 C   0  0  0  0  0  0  0  0  0  0  0  0
    0.9962    0.6078    0.5147 C   0  0  0  0  0  0  0  0  0  0  0  0
    2.1030   10.1378    4.6518 C   0  0  0  0  0  0  0  0  0  0  0  0
    2.5727    1.7711    2.1584 C   0  0  0  0  0  0  0  0  0  0  0  0
    0.7674   10.8299    4.9013 C   0  0  0  0  0  0  0  0  0  0  0  0
    1.8863    0.4772    1.7451 C   0  0  1  0  0  0  0  0  0  0  0  0
   -0.2283   -2.1564    6.9543 N   0  0  0  0  0  0  0  0  0  0  0  0
    4.0664    8.3843    4.1948 O   0  0  0  0  0  0  0  0  0  0  0  0
    2.8102   -0.8679    3.9373 O   0  0  0  0  0  0  0  0  0  0  0  0
    1.5737    2.7705    2.3445 O   0  0  0  0  0  0  0  0  0  0  0  0
    1.8355    8.7844    4.2123 O   0  0  0  0  0  0  0  0  0  0  0  0
    1.0267    0.0066    2.8279 O   0  0  0  0  0  0  0  0  0  0  0  0
    1.2690   -1.9338    6.2497 S   0  0  0  0  0  0  0  0  0  0  0  0
   -1.8106   -0.2864    3.8481 Cl  0  0  0  0  0  0  0  0  0  0  0  0
   -2.8195   -1.7224    6.6733 Cl  0  0  0  0  0  0  0  0  0  0  0  0
    4.6082    6.0130    3.5305 H   0  0  0  0  0  0  0  0  0  0  0  0
    0.4199    6.9427    3.5373 H   0  0  0  0  0  0  0  0  0  0  0  0
    4.1149    3.6994    2.8011 H   0  0  0  0  0  0  0  0  0  0  0  0
   -0.0967    4.6142    2.8007 H   0  0  0  0  0  0  0  0  0  0  0  0
   -0.2612   -1.1358    0.8605 H   0  0  0  0  0  0  0  0  0  0  0  0
   -0.2242   -0.5942   -0.8230 H   0  0  0  0  0  0  0  0  0  0  0  0
    1.1584   -1.4672   -0.1474 H   0  0  0  0  0  0  0  0  0  0  0  0
    0.5083   10.1707    6.9620 H   0  0  0  0  0  0  0  0  0  0  0  0
   -0.2083    9.0775    5.7666 H   0  0  0  0  0  0  0  0  0  0  0  0
   -1.0030   10.6143    6.1532 H   0  0  0  0  0  0  0  0  0  0  0  0
    1.6075   12.4082    6.1552 H   0  0  0  0  0  0  0  0  0  0  0  0
    0.0680   12.8319    5.3959 H   0  0  0  0  0  0  0  0  0  0  0  0
    1.5532   12.8209    4.4327 H   0  0  0  0  0  0  0  0  0  0  0  0
    1.6129    1.0227   -0.2915 H   0  0  0  0  0  0  0  0  0  0  0  0
    0.2130    1.3414    0.7242 H   0  0  0  0  0  0  0  0  0  0  0  0
    2.6847   10.6476    3.8776 H   0  0  0  0  0  0  0  0  0  0  0  0
    2.7120   10.1012    5.5610 H   0  0  0  0  0  0  0  0  0  0  0  0
    3.1415    1.6174    3.0813 H   0  0  0  0  0  0  0  0  0  0  0  0
    3.2694    2.0661    1.3620 H   0  0  0  0  0  0  0  0  0  0  0  0
    0.1909   10.7784    3.9683 H   0  0  0  0  0  0  0  0  0  0  0  0
    2.6663   -0.2736    1.5865 H   0  0  0  0  0  0  0  0  0  0  0  0
  1  3  1  0  0  0  0
  1  5  2  0  0  0  0
  1 29  1  0  0  0  0
  2  4  2  0  0  0  0
  2  5  1  0  0  0  0
  2 30  1  0  0  0  0
  3  6  2  0  0  0  0
  3 31  1  0  0  0  0
  4  6  1  0  0  0  0
  4 32  1  0  0  0  0
  5 10  1  0  0  0  0
  6 23  1  0  0  0  0
  7  8  2  0  0  0  0
  7  9  1  0  0  0  0
  7 27  1  0  0  0  0
  8 11  1  0  0  0  0
  8 26  1  0  0  0  0
  9 20  2  0  0  0  0
  9 28  1  0  0  0  0
 10 21  2  0  0  0  0
 10 24  1  0  0  0  0
 11 22  2  0  0  0  0
 11 25  1  0  0  0  0
 12 15  1  0  0  0  0
 12 33  1  0  0  0  0
 12 34  1  0  0  0  0
 12 35  1  0  0  0  0
 13 18  1  0  0  0  0
 13 36  1  0  0  0  0
 13 37  1  0  0  0  0
 13 38  1  0  0  0  0
 14 18  1  0  0  0  0
 14 39  1  0  0  0  0
 14 40  1  0  0  0  0
 14 41  1  0  0  0  0
 15 19  1  0  0  0  0
 15 42  1  0  0  0  0
 15 43  1  0  0  0  0
 16 18  1  0  0  0  0
 16 24  1  0  0  0  0
 16 44  1  0  0  0  0
 16 45  1  0  0  0  0
 17 19  1  0  0  0  0
 17 23  1  0  0  0  0
 17 46  1  0  0  0  0
 17 47  1  0  0  0  0
 18 48  1  0  0  0  0
 19 25  1  0  0  0  0
 19 49  1  0  0  0  0
 20 26  1  0  0  0  0
M  END
$$$$
