
  -OEChem-05262117483D

 46 50  0     0  0  0  0  0  0999 V2000
   -2.4725   -1.3261    5.1319 C   0  0  0  0  0  0  0  0  0  0  0  0
    2.3942    0.0183   -0.6836 C   0  0  0  0  0  0  0  0  0  0  0  0
   -2.2931   -0.1986    4.3275 C   0  0  0  0  0  0  0  0  0  0  0  0
    1.1699    0.4381   -0.1658 C   0  0  0  0  0  0  0  0  0  0  0  0
   -3.3162   -2.3637    4.7240 C   0  0  0  0  0  0  0  0  0  0  0  0
    1.2494   -1.4713    1.3236 C   0  0  0  0  0  0  0  0  0  0  0  0
    4.5839   -2.7364   -1.4680 C   0  0  0  0  0  0  0  0  0  0  0  0
   -3.7912   -1.1339    2.6769 C   0  0  0  0  0  0  0  0  0  0  0  0
    5.3376   -0.4920   -1.1004 C   0  0  0  0  0  0  0  0  0  0  0  0
    6.6963   -1.8937   -2.3000 C   0  0  0  0  0  0  0  0  0  0  0  0
    3.0717   -1.1276   -0.2326 C   0  0  0  0  0  0  0  0  0  0  0  0
    2.4923   -1.8917    0.8161 C   0  0  0  0  0  0  0  0  0  0  0  0
    4.3453   -1.4695   -0.9169 C   0  0  0  0  0  0  0  0  0  0  0  0
   -2.9481   -0.0925    3.0904 C   0  0  0  0  0  0  0  0  0  0  0  0
    0.5919   -0.3338    0.8525 C   0  0  0  0  0  0  0  0  0  0  0  0
    5.7664   -2.9216   -2.1610 C   0  0  0  0  0  0  0  0  0  0  0  0
   -3.9713   -2.2474    3.4973 C   0  0  0  0  0  0  0  0  0  0  0  0
    3.0988   -3.0665    1.4536 C   0  0  0  0  0  0  0  0  0  0  0  0
   -1.4557    1.0582    1.3024 C   0  0  0  0  0  0  0  0  0  0  0  0
   -3.8788    1.8214    1.5932 C   0  0  0  0  0  0  0  0  0  0  0  0
   -3.0730    2.4718    2.6817 C   0  0  0  0  0  0  0  0  0  0  0  0
   -2.6940    1.0794    2.1905 C   0  0  0  0  0  0  0  0  0  0  0  0
    4.3605   -3.5150    1.2849 N   0  5  0  0  0  0  0  0  0  0  0  0
    6.4844   -0.6836   -1.7695 N   0  0  0  0  0  0  0  0  0  0  0  0
    2.4233   -3.8223    2.3513 N   0  0  0  0  0  0  0  0  0  0  0  0
    4.4586   -4.5767    2.1000 N   0  0  0  0  0  0  0  0  0  0  0  0
    3.2983   -4.7600    2.7358 N   0  0  0  0  0  0  0  0  0  0  0  0
   -0.6536   -0.0317    1.4622 N   0  0  0  0  0  0  0  0  0  0  0  0
   -1.2351    1.9868    0.5196 O   0  0  0  0  0  0  0  0  0  0  0  0
    6.0336   -4.1300   -2.7334 F   0  0  0  0  0  0  0  0  0  0  0  0
   -5.0417   -3.5396    2.9669 Cl  0  0  0  0  0  0  0  0  0  0  0  0
   -1.9459   -1.4087    6.0786 H   0  0  0  0  0  0  0  0  0  0  0  0
    2.8345    0.5901   -1.4967 H   0  0  0  0  0  0  0  0  0  0  0  0
   -1.6296    0.6008    4.6469 H   0  0  0  0  0  0  0  0  0  0  0  0
    0.6722    1.3229   -0.5374 H   0  0  0  0  0  0  0  0  0  0  0  0
   -3.4558   -3.2471    5.3386 H   0  0  0  0  0  0  0  0  0  0  0  0
    0.8208   -2.0671    2.1257 H   0  0  0  0  0  0  0  0  0  0  0  0
    3.8777   -3.5500   -1.3525 H   0  0  0  0  0  0  0  0  0  0  0  0
   -4.2943   -1.0760    1.7167 H   0  0  0  0  0  0  0  0  0  0  0  0
    5.1998    0.4958   -0.6644 H   0  0  0  0  0  0  0  0  0  0  0  0
    7.6238   -2.0610   -2.8455 H   0  0  0  0  0  0  0  0  0  0  0  0
   -4.8672    1.4479    1.8431 H   0  0  0  0  0  0  0  0  0  0  0  0
   -3.7455    2.1957    0.5840 H   0  0  0  0  0  0  0  0  0  0  0  0
   -2.4048    3.2771    2.3956 H   0  0  0  0  0  0  0  0  0  0  0  0
   -3.5078    2.5345    3.6749 H   0  0  0  0  0  0  0  0  0  0  0  0
   -0.9516   -0.7133    2.1491 H   0  0  0  0  0  0  0  0  0  0  0  0
  1  3  1  0  0  0  0
  1  5  2  0  0  0  0
  1 32  1  0  0  0  0
  2  4  2  0  0  0  0
  2 11  1  0  0  0  0
  2 33  1  0  0  0  0
  3 14  2  0  0  0  0
  3 34  1  0  0  0  0
  4 15  1  0  0  0  0
  4 35  1  0  0  0  0
  5 17  1  0  0  0  0
  5 36  1  0  0  0  0
  6 12  1  0  0  0  0
  6 15  2  0  0  0  0
  6 37  1  0  0  0  0
  7 13  1  0  0  0  0
  7 16  2  0  0  0  0
  7 38  1  0  0  0  0
  8 14  1  0  0  0  0
  8 17  2  0  0  0  0
  8 39  1  0  0  0  0
  9 13  2  0  0  0  0
  9 24  1  0  0  0  0
  9 40  1  0  0  0  0
 10 16  1  0  0  0  0
 10 24  2  0  0  0  0
 10 41  1  0  0  0  0
 11 12  2  0  0  0  0
 11 13  1  0  0  0  0
 12 18  1  0  0  0  0
 14 22  1  0  0  0  0
 15 28  1  0  0  0  0
 16 30  1  0  0  0  0
 17 31  1  0  0  0  0
 18 23  1  0  0  0  0
 18 25  2  0  0  0  0
 19 22  1  0  0  0  0
 19 28  1  0  0  0  0
 19 29  2  0  0  0  0
 20 21  1  0  0  0  0
 20 22  1  0  0  0  0
 20 42  1  0  0  0  0
 20 43  1  0  0  0  0
 21 22  1  0  0  0  0
 21 44  1  0  0  0  0
 21 45  1  0  0  0  0
 23 26  1  0  0  0  0
 25 27  1  0  0  0  0
 26 27  2  0  0  0  0
 28 46  1  0  0  0  0
M  CHG  1  23  -1
M  END
$$$$
