17
0 1 BrC5H6N3O2
C                     1.160695357095     2.529627047857     0.855291927347
C                     0.178728549841     1.511194400886     0.923621553667
C                     2.497746544546     2.491597230186     0.224924550851
C                    -1.409078841705     4.094682544607     2.667615482523
C                     4.465216787938     3.692892152988    -0.241791973897
N                     0.665527587864     3.611773953935     1.485599141685
N                    -0.885823192816     1.973277460561     1.581623151490
N                    -0.536475479882     3.230351635490     1.886552258538
O                     2.947216675988     1.511069694985    -0.339890236658
O                     3.150750047739     3.664099340492     0.352371860149
Br                    0.204864120141    -0.239964254021     0.248788125256
H                    -2.421179163669     4.032917663216     2.265708158616
H                    -1.409505522582     3.776398587002     3.713299051893
H                    -1.025603686106     5.110549359453     2.585726145272
H                     4.845353269264     4.695890886226    -0.050314412612
H                     4.402131164898     3.501468398442    -1.315550177620
H                     5.108648359117     2.940489034438     0.220224631704
