
  -OEChem-05262117483D

 17 17  0     0  0  0  0  0  0999 V2000
    0.8044    1.2710    1.0040 C   0  0  0  0  0  0  0  0  0  0  0  0
   -0.2770    0.3854    0.7618 C   0  0  0  0  0  0  0  0  0  0  0  0
    2.2609    1.1839    0.7407 C   0  0  0  0  0  0  0  0  0  0  0  0
   -1.9377    3.0826    2.2477 C   0  0  0  0  0  0  0  0  0  0  0  0
    3.9786   -0.1630   -0.1513 C   0  0  0  0  0  0  0  0  0  0  0  0
    0.2962    2.3703    1.5924 N   0  0  0  0  0  0  0  0  0  0  0  0
   -1.4077    0.9448    1.1970 N   0  0  0  0  0  0  0  0  0  0  0  0
   -0.9992    2.1241    1.6818 N   0  0  0  0  0  0  0  0  0  0  0  0
    3.0635    2.0502    1.0238 O   0  0  0  0  0  0  0  0  0  0  0  0
    2.5777    0.0140    0.1447 O   0  0  0  0  0  0  0  0  0  0  0  0
   -0.3206   -1.3249   -0.0206 Br  0  0  0  0  0  0  0  0  0  0  0  0
   -2.6166    3.4368    1.4687 H   0  0  0  0  0  0  0  0  0  0  0  0
   -2.5111    2.6010    3.0418 H   0  0  0  0  0  0  0  0  0  0  0  0
   -1.3554    3.9114    2.6466 H   0  0  0  0  0  0  0  0  0  0  0  0
    4.0516   -1.1429   -0.6220 H   0  0  0  0  0  0  0  0  0  0  0  0
    4.5678   -0.1296    0.7679 H   0  0  0  0  0  0  0  0  0  0  0  0
    4.3249    0.6199   -0.8299 H   0  0  0  0  0  0  0  0  0  0  0  0
  1  2  1  0  0  0  0
  1  3  1  0  0  0  0
  1  6  2  0  0  0  0
  2  7  2  0  0  0  0
  2 11  1  0  0  0  0
  3  9  2  0  0  0  0
  3 10  1  0  0  0  0
  4  8  1  0  0  0  0
  4 12  1  0  0  0  0
  4 13  1  0  0  0  0
  4 14  1  0  0  0  0
  5 10  1  0  0  0  0
  5 15  1  0  0  0  0
  5 16  1  0  0  0  0
  5 17  1  0  0  0  0
  6  8  1  0  0  0  0
  7  8  1  0  0  0  0
M  END
$$$$
