
  -OEChem-05262117483D

 23 23  0     0  0  0  0  0  0999 V2000
    3.0452    1.0065    0.0649 C   0  0  0  0  0  0  0  0  0  0  0  0
    4.2529    0.9328   -0.6994 C   0  0  0  0  0  0  0  0  0  0  0  0
    2.2542   -0.0962   -0.1182 C   0  0  0  0  0  0  0  0  0  0  0  0
    4.3978   -0.1970   -1.4605 C   0  0  0  0  0  0  0  0  0  0  0  0
    5.5343   -0.6152   -2.3445 C   0  0  0  0  0  0  0  0  0  0  0  0
   -0.6125    0.6672    3.7849 C   0  0  0  0  0  0  0  0  0  0  0  0
    0.8995   -0.3761    0.4751 C   0  0  0  0  0  0  0  0  0  0  0  0
   -0.5497    0.0448    2.3919 C   0  0  0  0  0  0  0  0  0  0  0  0
    0.7649    0.2635    1.7821 N   0  0  0  0  0  0  0  0  0  0  0  0
    3.0014   -1.2208   -1.2232 S   0  0  0  0  0  0  0  0  0  0  0  0
    5.5692    2.3167   -0.6439 Br  0  0  0  0  0  0  0  0  0  0  0  0
    2.7735    1.8323    0.7108 H   0  0  0  0  0  0  0  0  0  0  0  0
    6.3310   -1.0959   -1.7646 H   0  0  0  0  0  0  0  0  0  0  0  0
    5.2052   -1.3195   -3.1132 H   0  0  0  0  0  0  0  0  0  0  0  0
    5.9668    0.2566   -2.8425 H   0  0  0  0  0  0  0  0  0  0  0  0
    0.1169    0.2020    4.4589 H   0  0  0  0  0  0  0  0  0  0  0  0
   -0.3954    1.7385    3.7376 H   0  0  0  0  0  0  0  0  0  0  0  0
   -1.6053    0.5307    4.2254 H   0  0  0  0  0  0  0  0  0  0  0  0
    0.1198    0.0355   -0.1797 H   0  0  0  0  0  0  0  0  0  0  0  0
    0.7277   -1.4682    0.5064 H   0  0  0  0  0  0  0  0  0  0  0  0
   -1.3001    0.5140    1.7439 H   0  0  0  0  0  0  0  0  0  0  0  0
   -0.8105   -1.0282    2.4504 H   0  0  0  0  0  0  0  0  0  0  0  0
    1.4889   -0.1023    2.3995 H   0  0  0  0  0  0  0  0  0  0  0  0
  1  2  1  0  0  0  0
  1  3  2  0  0  0  0
  1 12  1  0  0  0  0
  2  4  2  0  0  0  0
  2 11  1  0  0  0  0
  3  7  1  0  0  0  0
  3 10  1  0  0  0  0
  4  5  1  0  0  0  0
  4 10  1  0  0  0  0
  5 13  1  0  0  0  0
  5 14  1  0  0  0  0
  5 15  1  0  0  0  0
  6  8  1  0  0  0  0
  6 16  1  0  0  0  0
  6 17  1  0  0  0  0
  6 18  1  0  0  0  0
  7  9  1  0  0  0  0
  7 19  1  0  0  0  0
  7 20  1  0  0  0  0
  8  9  1  0  0  0  0
  8 21  1  0  0  0  0
  8 22  1  0  0  0  0
  9 23  1  0  0  0  0
M  END
$$$$
