
  -OEChem-05262117483D

 25 26  0     0  0  0  0  0  0999 V2000
   -1.2733   -4.9092    3.3350 C   0  0  0  0  0  0  0  0  0  0  0  0
    0.0359   -5.2299    3.7058 C   0  0  0  0  0  0  0  0  0  0  0  0
    0.6542   -5.3290    1.3527 C   0  0  0  0  0  0  0  0  0  0  0  0
   -0.6542   -5.0055    0.9799 C   0  0  0  0  0  0  0  0  0  0  0  0
   -1.6050   -4.8129    1.9907 C   0  0  0  0  0  0  0  0  0  0  0  0
    0.9817   -5.4429    2.7028 C   0  0  0  0  0  0  0  0  0  0  0  0
   -0.7534   -0.3532   -1.0861 C   0  0  0  0  0  0  0  0  0  0  0  0
    0.2163   -0.7683    0.0242 C   0  0  0  0  0  0  0  0  0  0  0  0
   -0.4783   -2.6547   -1.0040 C   0  0  0  0  0  0  0  0  0  0  0  0
   -1.5245   -3.7526   -0.8816 C   0  0  0  0  0  0  0  0  0  0  0  0
   -1.0145   -1.5832   -1.7832 O   0  0  0  0  0  0  0  0  0  0  0  0
   -0.1613   -2.1261    0.2697 O   0  0  0  0  0  0  0  0  0  0  0  0
   -0.9641   -4.9685   -0.3564 O   0  0  0  0  0  0  0  0  0  0  0  0
   -2.8892   -4.5301    1.6499 F   0  0  0  0  0  0  0  0  0  0  0  0
    2.7818   -5.8947    3.1913 Br  0  0  0  0  0  0  0  0  0  0  0  0
   -2.0451   -4.7480    4.0815 H   0  0  0  0  0  0  0  0  0  0  0  0
    0.3059   -5.3172    4.7523 H   0  0  0  0  0  0  0  0  0  0  0  0
    1.3920   -5.4828    0.5730 H   0  0  0  0  0  0  0  0  0  0  0  0
   -1.6928    0.0402   -0.6812 H   0  0  0  0  0  0  0  0  0  0  0  0
   -0.3244    0.3708   -1.7848 H   0  0  0  0  0  0  0  0  0  0  0  0
    1.2617   -0.7153   -0.3097 H   0  0  0  0  0  0  0  0  0  0  0  0
    0.0989   -0.2084    0.9534 H   0  0  0  0  0  0  0  0  0  0  0  0
    0.4325   -3.0361   -1.4936 H   0  0  0  0  0  0  0  0  0  0  0  0
   -1.8808   -4.0087   -1.8806 H   0  0  0  0  0  0  0  0  0  0  0  0
   -2.3617   -3.3958   -0.2782 H   0  0  0  0  0  0  0  0  0  0  0  0
  1  2  1  0  0  0  0
  1  5  2  0  0  0  0
  1 16  1  0  0  0  0
  2  6  2  0  0  0  0
  2 17  1  0  0  0  0
  3  4  2  0  0  0  0
  3  6  1  0  0  0  0
  3 18  1  0  0  0  0
  4  5  1  0  0  0  0
  4 13  1  0  0  0  0
  5 14  1  0  0  0  0
  6 15  1  0  0  0  0
  7  8  1  0  0  0  0
  7 11  1  0  0  0  0
  7 19  1  0  0  0  0
  7 20  1  0  0  0  0
  8 12  1  0  0  0  0
  8 21  1  0  0  0  0
  8 22  1  0  0  0  0
  9 10  1  0  0  0  0
  9 11  1  0  0  0  0
  9 12  1  0  0  0  0
  9 23  1  0  0  0  0
 10 13  1  0  0  0  0
 10 24  1  0  0  0  0
 10 25  1  0  0  0  0
M  END
$$$$
