15   
torsion grid (-165,)
C        0.2786839119   -0.6582956279    0.0626191458
C       -1.3526904104    0.7717326296    2.9861003338
C       -0.5471525578   -0.3287737355    2.3315179355
N        0.4191331718   -0.1243480478   -1.1499872309
N        0.5732004678   -1.9380656466    0.3050841491
O       -0.1683804145    0.1523912844    0.9815377827
H       -0.7665384424    1.6893175774    3.0727413972
H       -2.2652192065    0.9764346110    2.4217258942
H       -1.6334627686    0.4458578290    3.9916924146
H       -1.1392196859   -1.2401565894    2.2078921689
H        0.3817581989   -0.5401687757    2.8688455410
H        0.8409508158   -0.6238985367   -1.9236711442
H        0.1493880518    0.8438994911   -1.2890568855
H        0.9007521800   -2.5535944187   -0.4309650455
H        0.5632093919   -2.3114540954    1.2459193892
15   
torsion grid (-150,)
C        0.3016439680   -0.6796756786    0.0853347610
C       -1.3757485442    0.7436384834    2.9393508087
C       -0.4549977276   -0.3207477553    2.3837023739
N        0.4011924771   -0.1323208912   -1.1256063291
N        0.4919573442   -1.9877558634    0.2809376809
O        0.0008314089    0.1445144519    1.0491951262
H       -0.8605401894    1.7027852121    3.0272589649
H       -2.2604148366    0.8637183792    2.3098277456
H       -1.7004430227    0.4351753373    3.9374179786
H       -0.9807403879   -1.2701220642    2.2527552775
H        0.4453991314   -0.4596062383    2.9869055067
H        0.7773886786   -0.6326802645   -1.9221375866
H        0.1983427669    0.8565742359   -1.2290817352
H        0.6949418519   -2.6119575941   -0.4919053367
H        0.5847983593   -2.3691816897    1.2142573064
15   
torsion grid (-135,)
C        0.3178646301   -0.6718649620    0.1108590558
C       -1.4036537095    0.7212403333    2.8786532829
C       -0.3648345671   -0.2883660746    2.4403202723
N        0.4035008954   -0.0957825657   -1.0878895396
N        0.3984086971   -1.9985059926    0.2554111120
O        0.1488528753    0.1427984104    1.1130708395
H       -0.9769045795    1.7251033262    2.9365668200
H       -2.2574805881    0.7290595816    2.1969281259
H       -1.7596431513    0.4420955060    3.8749601089
H       -0.8000335305   -1.2852393810    2.3411643652
H        0.5069847643   -0.3182756418    3.0960027882
H        0.7159029475   -0.5945451351   -1.9126281761
H        0.2687210409    0.9078400773   -1.1539500996
H        0.4873794178   -2.6090003297   -0.5492731418
H        0.5486669941   -2.4164552402    1.1654269079
15   
torsion grid (-120,)
C        0.3220628653   -0.6681036505    0.1334568648
C       -1.4259234027    0.6677116645    2.8129144558
C       -0.2661555810   -0.2510876976    2.4927197975
N        0.4278096552   -0.0681714525   -1.0522085098
N        0.2694205212   -2.0002553782    0.2359172327
O        0.2731275129    0.1309047263    1.1605938487
H       -1.1127170213    1.7140576164    2.7980380594
H       -2.2505651105    0.5262731740    2.1096195896
H       -1.7875595462    0.4323281288    3.8186152393
H       -0.5793590062   -1.2963126268    2.4721237336
H        0.5770126937   -0.1305696421    3.1731855000
H        0.6701893157   -0.5699958253   -1.8984229378
H        0.3957200118    0.9455306325   -1.0863441962
H        0.2689106846   -2.5877958439   -0.5904021986
H        0.4163725214   -2.4632926117    1.1241494248
15   
torsion grid (-105,)
C        0.2671324121   -0.5741252000    0.0721599004
C       -1.4635548669    0.3358810154    2.8246297942
C       -0.0435391192   -0.0304032088    2.4431334557
N        0.8195280557   -0.1594213824   -1.0672249113
N       -0.1864429304   -1.8237566073    0.2130756426
O        0.2081289560    0.3164330776    1.0214144535
H       -1.6543117772    1.3940078605    2.6327778434
H       -2.2066523879   -0.2584933808    2.2838892330
H       -1.5961482291    0.1514983835    3.8949780735
H        0.2049689321   -1.0822780545    2.5999523590
H        0.6900570675    0.5769742754    2.9725739886
H        0.7709679842   -0.6961738963   -1.9251549089
H        1.2092401800    0.7768304577   -1.1051610595
H       -0.0826122152   -2.5074787714   -0.5282736752
H       -0.7705148853   -2.0845137520    0.9976521154
15   
torsion grid (-90,)
C        0.2924945944   -0.5507376506    0.0946356937
C       -1.4522398861    0.2561270437    2.7339006866
C        0.0144966233   -0.0243194414    2.4669122413
N        0.8057730409   -0.1448698000   -1.0661231820
N       -0.2496808199   -1.7642396299    0.2318159345
O        0.3736469683    0.3114456977    1.0689693447
H       -1.6923850315    1.2978277223    2.5098763780
H       -2.1213890494   -0.3879652630    2.1548986789
H       -1.6523441518    0.0795419419    3.7950318595
H        0.3174746532   -1.0560097492    2.6639075070
H        0.6641731869    0.6356600407    3.0398438734
H        0.7117483815   -0.6783279889   -1.9220631082
H        1.2534128714    0.7647809706   -1.1092339406
H       -0.2591718384   -2.4265613198   -0.5356102911
H       -0.7547311993   -2.0257811897    1.0686108426
15   
torsion grid (-75,)
C        0.3021631098   -0.5622821294    0.1331977879
C       -1.4342240348    0.2614612568    2.6372647341
C        0.0479484977   -0.0380670967    2.5099675354
N        0.6967620589   -0.1029856384   -1.0538228283
N       -0.2938635139   -1.7506179355    0.2591054702
O        0.5486007154    0.2274790817    1.1416286607
H       -1.6448827678    1.2942206725    2.3501111007
H       -2.0602976485   -0.4049389046    2.0377240321
H       -1.7205981388    0.1357605694    3.6859236684
H        0.3216656954   -1.0620038211    2.7820370926
H        0.6536763086    0.6395972314    3.1090473170
H        0.6219488808   -0.6465482021   -1.9052614260
H        1.1464353553    0.8055592257   -1.0980619288
H       -0.4555624795   -2.3486469328   -0.5432766119
H       -0.5578869369   -2.1167816346    1.1643724171
15   
torsion grid (-60,)
C        0.3125597051   -0.5826441111    0.1640032765
C       -1.4099896971    0.2409051104    2.5595311199
C        0.0807036475   -0.0415120495    2.5455422153
N        0.6344225151   -0.0669592201   -1.0214773093
N       -0.3353246062   -1.7457283439    0.2692005644
O        0.6865502575    0.1180552581    1.1988834593
H       -1.6207613354    1.2414416203    2.1735951267
H       -1.9958780630   -0.4876918960    1.9950386684
H       -1.7477922254    0.2048276920    3.5998587679
H        0.3404462404   -1.0404255709    2.9098775172
H        0.6423485641    0.6862756368    3.1280215230
H        0.5548881365   -0.5905448504   -1.8853517950
H        1.1001018081    0.8344177928   -1.0458403463
H       -0.6193694750   -2.2702303681   -0.5507072979
H       -0.4497514700   -2.1989029054    1.1670893967
15   
torsion grid (-45,)
C        0.3171358204   -0.6011943723    0.1859371451
C       -1.3964218902    0.1883206874    2.5283399037
C        0.1039616692   -0.0291571567    2.5789822265
N        0.6332348452   -0.0411548054   -0.9808248603
N       -0.3972056369   -1.7279259541    0.2514418997
O        0.7724041520    0.0065129546    1.2460951274
H       -1.6453061971    1.1127365622    1.9999546475
H       -1.9487609907   -0.6384334703    2.0792643435
H       -1.7439512504    0.2939937813    3.5608308402
H        0.3852424661   -0.9762506314    3.0484732130
H        0.6181071501    0.7776666662    3.0975646086
H        0.5330968840   -0.5277839252   -1.8643213981
H        1.1432722807    0.8362358956   -0.9710377610
H       -0.7564242383   -2.1794648159   -0.5825476400
H       -0.4661362877   -2.2428487691    1.1206435805
15   
torsion grid (-30,)
C        0.3207536679   -0.6082147272    0.1909455189
C       -1.3865488809    0.1128194297    2.5387529629
C        0.1247773205    0.0047451239    2.5982814209
N        0.6875584438   -0.0327559362   -0.9540238417
N       -0.4784006258   -1.6783475970    0.2088697934
O        0.8186065695   -0.0825568051    1.2743963318
H       -1.7092049422    0.9136411206    1.8671724717
H       -1.8918424912   -0.8126807087    2.2605075393
H       -1.7235986569    0.3759055905    3.5464545174
H        0.4670948399   -0.8601574561    3.1712268560
H        0.5795476184    0.9021323365    3.0135582549
H        0.5720967944   -0.4859512997   -1.8534599385
H        1.2587622380    0.8048791491   -0.9093373996
H       -0.8779511280   -2.0588125625   -0.6421842475
H       -0.5748247259   -2.2302869310    1.0520687900
15   
torsion grid (-15,)
C        0.3188789293   -0.5886869455    0.1736049198
C       -1.3817009670   -0.0117628823    2.6114336133
C        0.1320597544    0.0724967403    2.5968218932
N        0.8160671425   -0.0725078520   -0.9523173361
N       -0.5976330110   -1.5592383070    0.1394047570
O        0.8158406151   -0.1079243650    1.2758486770
H       -1.8430246056    0.6121972856    1.8414201493
H       -1.7749481596   -1.0280780193    2.5415840837
H       -1.7014324937    0.3798363451    3.5825043832
H        0.6004470155   -0.6654555226    3.2497155019
H        0.4778592157    1.0657636572    2.8787423610
H        0.7033767248   -0.5228717090   -1.8533527876
H        1.4844893833    0.6872153380   -0.8777751500
H       -0.9956126563   -1.8816141999   -0.7358163006
H       -0.8410624760   -2.0707676390    0.9770768485
15   
torsion grid (0,)
C        0.3004646524   -0.5403455096    0.1286446025
C       -1.3616568721   -0.1736560832    2.7134509802
C        0.1034683909    0.1829736870    2.5582770717
N        0.9744319381   -0.1797920913   -0.9675912075
N       -0.7483072666   -1.3620546219    0.0408604993
O        0.7687460877   -0.0547803802    1.2395346911
H       -2.0007019836    0.2992257131    1.9639455119
H       -1.5471537708   -1.2517429760    2.7542312534
H       -1.6655160965    0.2198459647    3.6890087674
H        0.7354399592   -0.3694771201    3.2533626051
H        0.2650402329    1.2512382648    2.6998636957
H        0.8583847810   -0.6529681248   -1.8560431895
H        1.7594140354    0.4541295453   -0.8623540903
H       -1.1029350256   -1.6645589976   -0.8593213756
H       -1.2057416777   -1.7192369613    0.8679012734
15   
torsion grid (15,)
C        0.1007931009   -0.6741851614    0.1000217951
C       -0.5734326976    0.3060610973    2.8844032070
C       -1.4909319529   -0.5652375123    2.0490435924
N        0.0933641212   -0.3566236718   -1.1963002200
N        1.2491083768   -0.8329669778    0.7628080002
O       -1.0704176914   -0.8490846586    0.6392008505
H        0.3203247092   -0.2044402123    3.2491099025
H       -0.2841078001    1.2249912826    2.3677580870
H       -1.1486111291    0.5973255999    3.7692146137
H       -2.4559885592   -0.0871954075    1.8884916026
H       -1.6512377297   -1.5503112638    2.4896822456
H        0.9169779077   -0.4389875926   -1.7813367049
H       -0.8026978056   -0.2120096860   -1.6498218105
H        2.1441720952   -0.6470483588    0.3239227610
H        1.2608023694   -1.2439740760    1.6866857633
15   
torsion grid (30,)
C        0.1025996949   -0.6938222303    0.1173580348
C       -0.6091790387    0.4185991293    2.8011735143
C       -1.4454836227   -0.6123365957    2.0683045914
N        0.1437415369   -0.2464044549   -1.1375438510
N        1.2172179655   -1.0116421680    0.7812626372
O       -1.0869412432   -0.8314653018    0.6312510975
H        0.4039425433    0.0899874027    3.0354629936
H       -0.5620284408    1.3647776242    2.2543960059
H       -1.1141630412    0.6156933565    3.7521857180
H       -2.4849733690   -0.3023414548    1.9792054158
H       -1.4117571794   -1.5985371286    2.5371064142
H        0.9698966440   -0.3294503217   -1.7191569008
H       -0.7286375469    0.0237540239   -1.5801180804
H        2.1363872269   -0.8737219467    0.3753157154
H        1.1661748452   -1.5457296549    1.6397871820
15   
torsion grid (45,)
C        0.1029978252   -0.6852188777    0.1137043948
C       -0.6447385428    0.4840018593    2.7820890381
C       -1.4021943921   -0.6210400892    2.0706434938
N        0.1945347889   -0.2134758308   -1.1288638735
N        1.1784644980   -1.1083684438    0.7833422423
O       -1.1004410982   -0.7295383640    0.6139869973
H        0.4252297415    0.2949743772    2.8806089639
H       -0.7929502115    1.4479825490    2.2876666885
H       -1.0593041291    0.5633421325    3.7919510821
H       -2.4747748868   -0.4379558631    2.0536431029
H       -1.2272645366   -1.6099328996    2.5042528615
H        1.0241026409   -0.3346567522   -1.6985427520
H       -0.6486310813    0.1319632271   -1.5758445447
H        2.1093507933   -1.0527789540    0.3848143898
H        1.0747775477   -1.6369376442    1.6408222457
15   
torsion grid (60,)
C        0.1058128283   -0.6637641370    0.0942643531
C       -0.6861058697    0.5256592834    2.8038945782
C       -1.3633264918   -0.6089737964    2.0581723429
N        0.2314796125   -0.2252243493   -1.1574469348
N        1.1443590668   -1.1639039356    0.7687030004
O       -1.0949360665   -0.5820840150    0.5976091063
H        0.4037981470    0.4558136435    2.8050458889
H       -0.9792923157    1.4937917769    2.3901244724
H       -1.0225917894    0.4901165795    3.8446672014
H       -2.4483198680   -0.5284767199    2.0848480755
H       -1.0878923674   -1.6017128817    2.4278204138
H        1.0616272219   -0.3912304315   -1.7142625531
H       -0.5827961243    0.1729961403   -1.6138533089
H        2.0696199239   -1.2130382967    0.3569859710
H        1.0133710948   -1.6235726763    1.6610099767
15   
torsion grid (75,)
C        0.1155842837   -0.6354765879    0.0702675967
C       -0.7262417305    0.5399692504    2.8762604742
C       -1.3276377343   -0.5786245251    2.0457016148
N        0.2350758212   -0.2843415812   -1.2096173351
N        1.1288521792   -1.1911943387    0.7393771996
O       -1.0527280425   -0.4018434565    0.6011632424
H        0.3669403747    0.5494089372    2.8570328474
H       -1.0920413900    1.5117359326    2.5367215062
H       -1.0412735539    0.4030247411    3.9152490495
H       -2.4158227330   -0.5668352852    2.0730217600
H       -0.9956510358   -1.5796498399    2.3374589293
H        1.0682579569   -0.4709863920   -1.7545726994
H       -0.5638349803    0.1333810215   -1.6753064624
H        2.0197955526   -1.3754330779    0.2922994219
H        1.0262880068   -1.4938824522    1.6991444747
15   
torsion grid (90,)
C        0.1344990725   -0.6127034338    0.0413410565
C       -0.7639600101    0.5268846005    2.9662280083
C       -1.2939448129   -0.5384974663    2.0253097178
N        0.2046748169   -0.3810428586   -1.2689855204
N        1.1263107197   -1.2232129032    0.6962829368
O       -0.9652253854   -0.2147170978    0.6170903982
H        0.3293080534    0.5755914542    2.9821134011
H       -1.1518841358    1.5104817293    2.6922801841
H       -1.1038489821    0.2953939186    3.9801860480
H       -2.3825994008   -0.5618548309    2.0115133261
H       -0.9340683974   -1.5478170804    2.2415243163
H        1.0450843673   -0.5471101191   -1.8095274199
H       -0.5943260867    0.0386226036   -1.7328638818
H        1.9507582763   -1.5576937333    0.2103688958
H        1.1343509119   -1.2830128566    1.7062654983
15   
torsion grid (105,)
C        0.1755935466   -0.6099691997    0.0413074660
C       -0.8551717761    0.5752487672    3.0299955479
C       -1.2440631909   -0.5021525946    2.0379667814
N        0.2063583189   -0.4003436617   -1.2741516950
N        1.1367054430   -1.3035149178    0.6597149923
O       -0.8475479490   -0.0984047265    0.6651266960
H        0.2295597817    0.6993794678    3.1062222329
H       -1.2988748577    1.5339428643    2.7527307308
H       -1.2340825257    0.2940906519    4.0172156397
H       -2.3253588228   -0.6082366559    1.9548217139
H       -0.8188423191   -1.4845553988    2.2544526073
H        1.0236302472   -0.5967258993   -1.8398432570
H       -0.5784427169    0.0743073305   -1.7085204364
H        1.8951844404   -1.7298811815    0.1393530292
H        1.2176475304   -1.3027961005    1.6687441913
15   
torsion grid (120,)
C        0.1696135157   -0.7280356411    0.0820026532
C       -1.0762687844    0.8052263670    2.9309040885
C       -1.0052290991   -0.5415726595    2.2432527576
N        0.3677975492   -0.0917921258   -1.0724758285
N        0.9711258649   -1.7244071952    0.4727957676
O       -0.8440430974   -0.3082465441    0.7834986523
H       -0.1387289501    1.3565055312    2.8224017705
H       -1.8975177356    1.4056042214    2.5330901381
H       -1.2570518263    0.6409623337    3.9976538233
H       -1.9283368496   -1.1153825542    2.3275437400
H       -0.1657982205   -1.1336837237    2.6117305995
H        0.9894083412   -0.4445574301   -1.7906757238
H       -0.2238318708    0.7019476842   -1.2954974427
H        1.7753533867   -1.9956163695   -0.0818856641
H        0.7006531020   -2.3515182023    1.2201450536
15   
torsion grid (135,)
C        0.1863917955   -0.7235486282    0.0664844091
C       -1.1572745993    0.8181560526    2.9617841729
C       -0.8973293794   -0.4976430175    2.2605796573
N        0.4179173149   -0.0901438615   -1.0830359545
N        0.8852786537   -1.8071084240    0.4197752356
O       -0.7544525262   -0.2122776861    0.8081608448
H       -0.3068934007    1.4959020222    2.8552803653
H       -2.0564121039    1.3008008772    2.5721492358
H       -1.3091897515    0.6192563566    4.0269782052
H       -1.7305360184   -1.1978005319    2.3407628992
H        0.0242969997   -0.9611372416    2.6194172510
H        0.9858216177   -0.4884921864   -1.8215184367
H       -0.0912531434    0.7662987129   -1.2754932630
H        1.6406136711   -2.1556707426   -0.1599741061
H        0.5733639862   -2.4067181213    1.1738079151
15   
torsion grid (150,)
C        0.2141725888   -0.7140646225    0.0558127782
C       -1.2195549436    0.8051044075    2.9920396032
C       -0.7951264382   -0.4544050888    2.2688926360
N        0.4619707823   -0.1084595388   -1.1051023114
N        0.8110787379   -1.8623038379    0.3886839934
O       -0.6361559052   -0.1058729563    0.8341756609
H       -0.4487518075    1.5759539992    2.9212840078
H       -2.1579559894    1.1928222083    2.5892886208
H       -1.3722841636    0.5642663615    4.0481574662
H       -1.5493548417   -1.2437020754    2.3136136494
H        0.1661982070   -0.8191987136    2.6398974958
H        0.9790569861   -0.5534506062   -1.8540681862
H        0.0210982670    0.7868638146   -1.2889396914
H        1.4922108385   -2.2985573431   -0.2227559336
H        0.4972329457   -2.4035818039    1.1847428228
15   
torsion grid (165,)
C        0.2262841463   -0.6788954346    0.0449305174
C       -1.2751622187    0.8022787321    3.0122361562
C       -0.7092868288   -0.3924468272    2.2767788811
N        0.4597614277   -0.1084161036   -1.1362900275
N        0.7205483307   -1.8801399063    0.3548578955
O       -0.5074083145    0.0191504962    0.8670739776
H       -0.5755703870    1.6408970204    2.9916500854
H       -2.2282646714    1.1146149711    2.5797064152
H       -1.4459645083    0.5196082121    4.0549096424
H       -1.3999954015   -1.2404547743    2.2673924280
H        0.2628037812   -0.6890082473    2.6811755730
H        0.9378630695   -0.5858759352   -1.8909547903
H        0.0892153151    0.8201997687   -1.3094220344
H        1.3048792386   -2.3947583830   -0.2944953856
H        0.4569875527   -2.3531714329    1.2101161784
15   
torsion grid (180,)
C        0.2459421355   -0.6713641414    0.0498978568
C       -1.3197070077    0.7806654920    3.0138893873
C       -0.6309388145   -0.3607861021    2.2991405061
N        0.4335860722   -0.1311350257   -1.1534685383
N        0.6435569531   -1.9139596059    0.3327570592
O       -0.3486669920    0.0984080886    0.9196860395
H       -0.6761721470    1.6623307871    3.0539937488
H       -2.2598162950    1.0401288176    2.5220852494
H       -1.5404130642    0.4672095096    4.0381325618
H       -1.2734157931   -1.2434650738    2.2264895322
H        0.3266449187   -0.6143649804    2.7638112953
H        0.8858542623   -0.6250866785   -1.9133295910
H        0.1147480149    0.8184100274   -1.3154157471
H        1.1029893655   -2.4934340598   -0.3607263430
H        0.4951115478   -2.3208465919    1.2474833380
