62
0 1 C22H36N2O2
C                    -4.853794100866    -1.131580042839     0.507812247009
C                    -3.465363039532    -1.044155522548     0.583094362276
C                    -4.985798266253     1.233426679454     0.081448358006
C                    -3.590684913855     1.319158928067     0.144216162506
C                    -5.637493495212     0.010262227811     0.279653063415
C                    -2.815810655478     0.187233681767     0.411700393787
C                    -7.954703577143     1.109334549467     0.696550406044
C                    -0.811606343024     0.222445085739     2.036164493978
C                    -8.973608699986     0.451206647626     1.644843936974
C                     0.288351741905    -0.847256260275     1.953017641171
C                    -7.150922135199    -0.111938643992     0.200745454534
C                    -1.321408830814     0.302343573655     0.566356545312
C                    -5.247054446897    -1.554072481952     4.317093884715
C                    -7.516384675350    -2.693750190265     4.448710613007
C                     2.454464643058    -0.949809459593    -1.912549142074
C                     1.830037413047    -3.403386688344    -2.065675209446
C                    -7.900758352686     0.272147832996     4.402137044057
C                     2.556661632029    -2.326638485212     0.822044569884
C                    -6.592214920552    -1.793331358627     3.618501542568
C                     1.452430065407    -2.031935457880    -1.488586595753
C                    -7.256701659177    -0.455862364601     3.215451296429
C                     1.254021669106    -2.098736846875     0.044765333378
N                    -8.291385571126    -0.731599241485     2.181077656955
N                     0.639190337546    -0.851696475123     0.523082634401
O                    -7.643999506278    -1.239178264222     0.990437092860
O                    -0.692663625891    -0.800967139952    -0.092583114369
H                    -5.346467482187    -2.088665509159     0.643359079192
H                    -2.872629243396    -1.935758992120     0.766564271132
H                    -5.560285963372     2.132108582149    -0.127492051231
H                    -3.104399272979     2.279658973840    -0.014030726274
H                    -8.436960052154     1.649843026457    -0.121350113601
H                    -7.317660783596     1.811745503159     1.238930487577
H                    -1.605779477312    -0.071448210500     2.725544929825
H                    -0.418576379584     1.189856942606     2.358291484656
H                    -9.315402725744     1.107337053666     2.444734883940
H                    -9.848425387828     0.099595014042     1.090257742773
H                     1.170524278731    -0.598743756969     2.546494677282
H                    -0.096125082652    -1.829296231570     2.273502261583
H                    -7.429976032426    -0.362077965046    -0.828970144878
H                    -0.968584518858     1.236143078370     0.109905068889
H                    -5.365069288833    -1.021778459845     5.268485240203
H                    -4.755670792149    -2.507886876386     4.538938327861
H                    -4.571766074254    -0.969411882135     3.682006162832
H                    -7.688063044839    -2.287906682220     5.452277449730
H                    -8.485256309887    -2.814119362779     3.955378623021
H                    -7.070587726972    -3.687073383881     4.570716430090
H                     3.477581180399    -1.205557572237    -1.613451419719
H                     2.452134077830    -0.834520711099    -3.002018289092
H                     2.198427006979     0.014732944433    -1.465171811248
H                     2.829748897452    -3.723151871172    -1.750388336934
H                     1.116638438540    -4.177932920352    -1.760969478682
H                     1.833169406578    -3.367077019406    -3.160372653764
H                    -8.850160795628    -0.194204231532     4.681295496117
H                    -7.237575893007     0.236411633401     5.270477460107
H                    -8.085869938586     1.327850970675     4.184833602850
H                     3.192909987704    -1.437410396886     0.792233890314
H                     2.362433375851    -2.573536426514     1.869415764755
H                     3.114259225566    -3.160940476786     0.389783191372
H                    -6.383649099987    -2.313360196013     2.680485389793
H                     0.475669642225    -1.760924842585    -1.900025247907
H                    -6.465923551245     0.188345975221     2.803984100456
H                     0.565116577272    -2.936140033866     0.256073032743
