
  -OEChem-05262117483D

 34 36  0     0  0  0  0  0  0999 V2000
   -2.6915   -2.6919    0.0379 C   0  0  0  0  0  0  0  0  0  0  0  0
   -2.6991   -2.0330   -1.1864 C   0  0  0  0  0  0  0  0  0  0  0  0
   -1.8132   -2.2277    1.0225 C   0  0  0  0  0  0  0  0  0  0  0  0
   -1.8321   -0.9502   -1.4015 C   0  0  0  0  0  0  0  0  0  0  0  0
   -0.9729   -0.5639   -0.3479 C   0  0  0  0  0  0  0  0  0  0  0  0
   -0.8320    2.2557   -4.6954 C   0  0  0  0  0  0  0  0  0  0  0  0
   -1.6005    3.3631   -4.0056 C   0  0  0  0  0  0  0  0  0  0  0  0
    1.4424    0.3114   -0.2563 C   0  0  0  0  0  0  0  0  0  0  0  0
    0.9240    0.8317   -1.5781 C   0  0  0  0  0  0  0  0  0  0  0  0
   -2.0912    1.9421   -3.9338 C   0  0  0  0  0  0  0  0  0  0  0  0
   -0.0256    0.6136   -0.3890 C   0  0  0  0  0  0  0  0  0  0  0  0
   -0.5344    1.8291    0.3829 C   0  0  0  0  0  0  0  0  0  0  0  0
   -1.8567   -0.2865   -2.7562 C   0  0  0  0  0  0  0  0  0  0  0  0
   -0.9868   -1.1952    0.8365 N   0  0  0  0  0  0  0  0  0  0  0  0
   -1.9736    1.2214   -2.6410 N   0  3  0  0  0  0  0  0  0  0  0  0
   -3.3465   -3.5356    0.2304 H   0  0  0  0  0  0  0  0  0  0  0  0
   -3.3706   -2.3602   -1.9771 H   0  0  0  0  0  0  0  0  0  0  0  0
   -1.7720   -2.7045    1.9998 H   0  0  0  0  0  0  0  0  0  0  0  0
   -0.8787    2.1753   -5.7760 H   0  0  0  0  0  0  0  0  0  0  0  0
    0.1188    1.9601   -4.2623 H   0  0  0  0  0  0  0  0  0  0  0  0
   -1.1602    3.7994   -3.1130 H   0  0  0  0  0  0  0  0  0  0  0  0
   -2.1829    4.0562   -4.6030 H   0  0  0  0  0  0  0  0  0  0  0  0
    1.7383   -0.7311   -0.2144 H   0  0  0  0  0  0  0  0  0  0  0  0
    2.0371    0.9780    0.3598 H   0  0  0  0  0  0  0  0  0  0  0  0
    1.1847    1.8529   -1.8507 H   0  0  0  0  0  0  0  0  0  0  0  0
    0.9290    0.1258   -2.4039 H   0  0  0  0  0  0  0  0  0  0  0  0
   -2.9891    1.6500   -4.4678 H   0  0  0  0  0  0  0  0  0  0  0  0
    0.1907    2.6477    0.3481 H   0  0  0  0  0  0  0  0  0  0  0  0
   -0.6925    1.5556    1.4294 H   0  0  0  0  0  0  0  0  0  0  0  0
   -1.4922    2.2108    0.0028 H   0  0  0  0  0  0  0  0  0  0  0  0
   -0.9566   -0.4642   -3.3464 H   0  0  0  0  0  0  0  0  0  0  0  0
   -2.7152   -0.6230   -3.3397 H   0  0  0  0  0  0  0  0  0  0  0  0
   -1.1309    1.5318   -2.1318 H   0  0  0  0  0  0  0  0  0  0  0  0
   -2.7727    1.4491   -2.0371 H   0  0  0  0  0  0  0  0  0  0  0  0
  1  2  1  0  0  0  0
  1  3  2  0  0  0  0
  1 16  1  0  0  0  0
  2  4  2  0  0  0  0
  2 17  1  0  0  0  0
  3 14  1  0  0  0  0
  3 18  1  0  0  0  0
  4  5  1  0  0  0  0
  4 13  1  0  0  0  0
  5 11  1  0  0  0  0
  5 14  2  0  0  0  0
  6  7  1  0  0  0  0
  6 10  1  0  0  0  0
  6 19  1  0  0  0  0
  6 20  1  0  0  0  0
  7 10  1  0  0  0  0
  7 21  1  0  0  0  0
  7 22  1  0  0  0  0
  8  9  1  0  0  0  0
  8 11  1  0  0  0  0
  8 23  1  0  0  0  0
  8 24  1  0  0  0  0
  9 11  1  0  0  0  0
  9 25  1  0  0  0  0
  9 26  1  0  0  0  0
 10 15  1  0  0  0  0
 10 27  1  0  0  0  0
 11 12  1  0  0  0  0
 12 28  1  0  0  0  0
 12 29  1  0  0  0  0
 12 30  1  0  0  0  0
 13 15  1  0  0  0  0
 13 31  1  0  0  0  0
 13 32  1  0  0  0  0
 15 33  1  0  0  0  0
 15 34  1  0  0  0  0
M  CHG  1  15   1
M  END
$$$$
