
  -OEChem-05262117483D

 33 35  0     0  0  0  0  0  0999 V2000
   -3.6413   -3.1213   -0.4767 C   0  0  0  0  0  0  0  0  0  0  0  0
   -3.3326   -2.1719   -1.4506 C   0  0  0  0  0  0  0  0  0  0  0  0
   -2.9008   -3.0993    0.7064 C   0  0  0  0  0  0  0  0  0  0  0  0
   -2.3070   -1.2465   -1.2293 C   0  0  0  0  0  0  0  0  0  0  0  0
   -1.6188   -1.3088    0.0027 C   0  0  0  0  0  0  0  0  0  0  0  0
    0.5837   -0.2174   -5.1222 C   0  0  0  0  0  0  0  0  0  0  0  0
    0.4047    0.9952   -4.2297 C   0  0  0  0  0  0  0  0  0  0  0  0
    0.7509   -0.8554    0.9083 C   0  0  0  0  0  0  0  0  0  0  0  0
    0.7055   -0.2205   -0.4664 C   0  0  0  0  0  0  0  0  0  0  0  0
   -0.7209   -0.0006   -4.3953 C   0  0  0  0  0  0  0  0  0  0  0  0
   -0.5517   -0.3122    0.3756 C   0  0  0  0  0  0  0  0  0  0  0  0
   -1.1070    0.9566    1.0078 C   0  0  0  0  0  0  0  0  0  0  0  0
   -1.9597   -0.2617   -2.3227 C   0  0  0  0  0  0  0  0  0  0  0  0
   -1.9230   -2.2180    0.9460 N   0  0  0  0  0  0  0  0  0  0  0  0
   -1.0090   -0.8603   -3.2743 N   0  0  0  0  0  0  0  0  0  0  0  0
   -4.4331   -3.8508   -0.6227 H   0  0  0  0  0  0  0  0  0  0  0  0
   -3.8921   -2.1414   -2.3846 H   0  0  0  0  0  0  0  0  0  0  0  0
   -3.1036   -3.8176    1.5002 H   0  0  0  0  0  0  0  0  0  0  0  0
    0.6017   -0.0703   -6.1982 H   0  0  0  0  0  0  0  0  0  0  0  0
    1.2195   -1.0159   -4.7528 H   0  0  0  0  0  0  0  0  0  0  0  0
    0.9208    0.9883   -3.2753 H   0  0  0  0  0  0  0  0  0  0  0  0
    0.3017    1.9707   -4.6958 H   0  0  0  0  0  0  0  0  0  0  0  0
    0.8532   -1.9340    0.9717 H   0  0  0  0  0  0  0  0  0  0  0  0
    1.2309   -0.3083    1.7152 H   0  0  0  0  0  0  0  0  0  0  0  0
    1.1498    0.7643   -0.5931 H   0  0  0  0  0  0  0  0  0  0  0  0
    0.7767   -0.8641   -1.3370 H   0  0  0  0  0  0  0  0  0  0  0  0
   -1.5698    0.3332   -5.0017 H   0  0  0  0  0  0  0  0  0  0  0  0
   -0.2965    1.6390    1.2849 H   0  0  0  0  0  0  0  0  0  0  0  0
   -1.6748    0.7151    1.9128 H   0  0  0  0  0  0  0  0  0  0  0  0
   -1.7757    1.4894    0.3212 H   0  0  0  0  0  0  0  0  0  0  0  0
   -2.8910    0.0636   -2.8199 H   0  0  0  0  0  0  0  0  0  0  0  0
   -1.4911    0.6331   -1.9093 H   0  0  0  0  0  0  0  0  0  0  0  0
   -1.3757   -1.7515   -3.6047 H   0  0  0  0  0  0  0  0  0  0  0  0
  1  2  1  0  0  0  0
  1  3  2  0  0  0  0
  1 16  1  0  0  0  0
  2  4  2  0  0  0  0
  2 17  1  0  0  0  0
  3 14  1  0  0  0  0
  3 18  1  0  0  0  0
  4  5  1  0  0  0  0
  4 13  1  0  0  0  0
  5 11  1  0  0  0  0
  5 14  2  0  0  0  0
  6  7  1  0  0  0  0
  6 10  1  0  0  0  0
  6 19  1  0  0  0  0
  6 20  1  0  0  0  0
  7 10  1  0  0  0  0
  7 21  1  0  0  0  0
  7 22  1  0  0  0  0
  8  9  1  0  0  0  0
  8 11  1  0  0  0  0
  8 23  1  0  0  0  0
  8 24  1  0  0  0  0
  9 11  1  0  0  0  0
  9 25  1  0  0  0  0
  9 26  1  0  0  0  0
 10 15  1  0  0  0  0
 10 27  1  0  0  0  0
 11 12  1  0  0  0  0
 12 28  1  0  0  0  0
 12 29  1  0  0  0  0
 12 30  1  0  0  0  0
 13 15  1  0  0  0  0
 13 31  1  0  0  0  0
 13 32  1  0  0  0  0
 15 33  1  0  0  0  0
M  END
$$$$
