33
0 1 C13H18N2
C                    -6.576477804152    -0.758246928323    -5.085821516952
C                    -5.363565123779    -0.511265001306    -4.444457965021
C                    -7.140576165094    -2.026808804938    -4.941411950760
C                    -4.748480443337    -1.518044457000    -3.694104106387
C                    -5.410472058496    -2.762258890153    -3.596485336389
C                    -2.739112239741    -1.089107274474    -6.366450666011
C                    -1.241867188258    -1.233722034422    -6.195314269238
C                    -4.826533065891    -5.260579099837    -3.329781144067
C                    -3.548554417310    -4.506839486032    -3.024521142510
C                    -2.087304142575    -0.727116782421    -5.050906859685
C                    -4.896513661607    -3.880318809808    -2.725531853856
C                    -5.347441379926    -3.765138299221    -1.275449366726
C                    -3.404500288867    -1.249543591629    -3.048621677178
N                    -6.583163196194    -2.999839962855    -4.211516220676
N                    -2.281893636283    -1.614922833996    -3.931495283847
H                    -7.071774671455     0.005185497447    -5.679422904417
H                    -4.883879873209     0.461087222250    -4.531297845038
H                    -8.084904301304    -2.272429465915    -5.426384411929
H                    -3.115544459425    -0.284471004956    -6.991411290776
H                    -3.332951063728    -1.996580726260    -6.375571262783
H                    -0.846189846485    -2.240315018651    -6.099744314646
H                    -0.589935512338    -0.527386416780    -6.700802465189
H                    -5.124249482265    -5.365388927744    -4.368141800442
H                    -5.096826545522    -6.101151550311    -2.696163264804
H                    -2.948902888587    -4.830433938033    -2.176456976803
H                    -2.977131412964    -4.099437715147    -3.851418188039
H                    -2.014190420889     0.343524144189    -4.828856143262
H                    -4.968349827796    -4.604587867404    -0.682736092082
H                    -6.441115675982    -3.770485624351    -1.215034321147
H                    -4.989429628442    -2.837654169966    -0.812563942105
H                    -3.364474658178    -0.185504219515    -2.756534325173
H                    -3.301178158019    -1.839280075126    -2.135830333098
H                    -1.428455459040    -1.649795818558    -3.377486543694
