30
1 1 C12H15N2O
C                     1.327456066890     1.796073110424    -0.472879857013
C                     0.057649449056     1.268065608935    -0.205677423180
C                     1.464990023001     3.053133981837    -1.075242662218
C                    -1.097405381691     1.988155764682    -0.536406162959
C                     0.313799133118     3.766855272891    -1.402953075731
C                    -0.956766303668     3.238767945020    -1.135285632716
C                    -2.878255175036     6.838045897719    -3.325327022442
C                     0.197775595609     5.140038532116    -2.029093617506
C                    -2.034878270558     4.214813698504    -1.558871092649
C                    -4.848769706129     6.754101373768    -4.529298867542
C                    -4.419523203648     8.210693751319    -4.269269584261
C                    -1.260558235349     5.134866110638    -2.537341192147
N                    -3.648217991551     6.034449360876    -4.065227699669
N                    -1.798715874332     6.505690520113    -2.649279566258
O                    -3.290753906730     8.094996864318    -3.328472467658
H                     2.213249863912     1.222778983087    -0.214855864313
H                    -0.031455007791     0.289725935745     0.257810464404
H                     2.452592842721     3.456531310016    -1.284355165176
H                    -2.080616946039     1.572584137969    -0.329571693808
H                     0.333898511271     5.921761957590    -1.266785296425
H                     0.916682029561     5.330185297385    -2.830294696119
H                    -2.902340374149     3.728377861259    -2.018662666833
H                    -2.399699421471     4.799515579435    -0.704061774919
H                    -5.722960705420     6.459519840232    -3.942324271034
H                    -5.034155247071     6.559680872802    -5.586405145054
H                    -4.037507259499     8.710165128300    -5.160360397535
H                    -5.178320179930     8.820879060431    -3.783769840335
H                    -1.269531392767     4.696929211290    -3.541275510693
H                    -3.575504063248     5.024758091705    -4.040415019478
H                    -1.335732488425     7.260527800914    -2.150910925791
