62
0 1 C22H36N2O2
C                    -3.742707747286     0.565928456824     1.982420388612
C                    -2.484184208896     0.875226556758     1.462601523451
C                    -4.597535549177     0.328076418931    -0.258580337869
C                    -3.338998691396     0.637374185483    -0.778416173742
C                    -4.815512352508     0.290760847616     1.124403860102
C                    -2.266191048696     0.912450442829     0.079598809570
C                    -6.986013058798     1.304557896930     2.082889158897
C                    -0.095353880953    -0.102593596706    -0.876515108558
C                    -7.469318728173     0.951870588953     3.498275062688
C                     0.386197904642     0.246856231554    -2.293240979007
C                    -6.198067102005     0.027516939783     1.664427732478
C                    -0.883456124943     1.175147001506    -0.460301933853
C                    -6.679648987200    -3.256679948005     6.090332829162
C                    -8.286072081586    -3.359350788709     4.130146149146
C                     1.208335768468     4.555537129971    -2.933717915688
C                    -0.400958953677     4.452200896551    -4.891491875713
C                    -8.524900181553    -0.720227620111     5.667760918215
C                     1.440965970315     1.913441985740    -4.466983287303
C                    -7.076095366338    -2.640382811446     4.741420393830
C                    -0.003636304704     3.837488571654    -3.542112504995
C                    -7.282211255171    -1.111050390697     4.857506056745
C                     0.199889843777     2.307619782175    -3.655907624353
N                    -7.398016671126    -0.518881713488     3.516906693762
N                     0.316229077827     1.717586721311    -2.314409644382
O                    -6.102941984361    -0.745536732027     2.863943053488
O                    -0.978232996357     1.946456431145    -1.660967485031
H                    -3.898711358618     0.529289988917     3.056418473656
H                    -1.660921827622     1.090346020115     2.141256653802
H                    -5.420791950748     0.112938148616    -0.937234177027
H                    -3.182977611924     0.674014055709    -1.852405278650
H                    -7.818739155347     1.482321227538     1.398026568194
H                    -6.348493349582     2.190839611215     2.084791439842
H                    -0.732317170915    -0.989272500822    -0.875374107240
H                     0.738358543708    -0.278063049942    -0.192262542760
H                    -6.805919464591     1.393460811345     4.259711405561
H                    -8.495398356262     1.271785761769     3.690570287433
H                     1.411697856140    -0.074408967578    -2.486370663295
H                    -0.278735263753    -0.195524846179    -3.052884485365
H                    -6.785451091170    -0.534594757616     0.926850952847
H                    -0.296429489148     1.738332367715     0.276740874222
H                    -7.499195999403    -3.221816118209     6.817085140779
H                    -6.407149844037    -4.309727997239     5.961631798508
H                    -5.817491059630    -2.741559139288     6.529808914512
H                    -9.148007257301    -3.348914355760     4.807315635645
H                    -8.584482376286    -2.888024749448     3.189514379254
H                    -8.043219715935    -4.408167732762     3.927000246241
H                     2.069261332275     4.542718140133    -3.612132296867
H                     0.967405855998     5.605045438758    -2.731852812137
H                     1.507384600141     4.085215045714    -1.992786276947
H                     0.417576964921     4.414937570903    -5.619265271801
H                    -1.264463467912     3.937657748261    -5.328995072003
H                    -0.671718903020     5.505862330966    -4.764143289716
H                    -9.441232721317    -0.952926292197     5.117692235777
H                    -8.546600458353    -1.264598646230     6.614867605205
H                    -8.530602235334     0.346900559382     5.906139492725
H                     2.358356023109     2.145559081487    -3.918430411817
H                     1.444647308000     0.845919854980    -4.703629182163
H                     1.462398266485     2.456245128577    -5.414995460001
H                    -6.230951861952    -2.772533564212     4.059445570792
H                    -0.847629070912     3.972108523494    -2.859190100201
H                    -6.389370410527    -0.690702722694     5.354458851834
H                    -0.694221772312     1.887870423094    -4.151063550598
