
  -OEChem-05262117483D

 28 30  0     1  0  0  0  0  0999 V2000
    4.5806    0.4768    1.1686 C   0  0  0  0  0  0  0  0  0  0  0  0
    4.8763    0.6180   -0.1973 C   0  0  0  0  0  0  0  0  0  0  0  0
    3.3989    1.0111    1.6946 C   0  0  0  0  0  0  0  0  0  0  0  0
    4.0176    1.2946   -1.0721 C   0  0  0  0  0  0  0  0  0  0  0  0
    2.5379    1.6869    0.8286 C   0  0  0  0  0  0  0  0  0  0  0  0
    2.8507    1.8241   -0.5282 C   0  0  0  0  0  0  0  0  0  0  0  0
   -1.0783    1.3715    1.5471 C   0  0  0  0  0  0  0  0  0  0  0  0
   -3.2400    1.0116    2.2882 C   0  0  0  0  0  0  0  0  0  0  0  0
   -2.9303    2.5168    2.1949 C   0  0  0  0  0  0  0  0  0  0  0  0
    1.0188    3.1169   -0.2587 C   0  0  0  0  0  0  0  0  0  0  0  0
    1.1801    2.3001    1.0436 C   0  0  1  0  0  0  0  0  0  0  0  0
   -2.0523    0.4551    1.6140 N   0  0  0  0  0  0  0  0  0  0  0  0
    0.1698    1.1963    1.1643 N   0  3  0  0  0  0  0  0  0  0  0  0
    1.8923    2.5089   -1.2339 O   0  0  0  0  0  0  0  0  0  0  0  0
   -1.4820    2.5743    1.9194 O   0  0  0  0  0  0  0  0  0  0  0  0
    5.2771   -0.0421    1.8195 H   0  0  0  0  0  0  0  0  0  0  0  0
    5.8006    0.2004   -0.5863 H   0  0  0  0  0  0  0  0  0  0  0  0
    3.1679    0.9094    2.7522 H   0  0  0  0  0  0  0  0  0  0  0  0
    4.2496    1.4147   -2.1254 H   0  0  0  0  0  0  0  0  0  0  0  0
   -3.3001    0.6556    3.3203 H   0  0  0  0  0  0  0  0  0  0  0  0
   -4.1517    0.7430    1.7532 H   0  0  0  0  0  0  0  0  0  0  0  0
   -3.4282    3.0064    1.3572 H   0  0  0  0  0  0  0  0  0  0  0  0
   -3.1007    3.0678    3.1174 H   0  0  0  0  0  0  0  0  0  0  0  0
    0.0050    3.1216   -0.6609 H   0  0  0  0  0  0  0  0  0  0  0  0
    1.3510    4.1454   -0.0829 H   0  0  0  0  0  0  0  0  0  0  0  0
    1.0861    2.9213    1.9349 H   0  0  0  0  0  0  0  0  0  0  0  0
   -1.8909   -0.5387    1.4979 H   0  0  0  0  0  0  0  0  0  0  0  0
    0.4751    0.2682    0.8860 H   0  0  0  0  0  0  0  0  0  0  0  0
  1  2  1  0  0  0  0
  1  3  2  0  0  0  0
  1 16  1  0  0  0  0
  2  4  2  0  0  0  0
  2 17  1  0  0  0  0
  3  5  1  0  0  0  0
  3 18  1  0  0  0  0
  4  6  1  0  0  0  0
  4 19  1  0  0  0  0
  5  6  2  0  0  0  0
  5 11  1  0  0  0  0
  6 14  1  0  0  0  0
  7 12  1  0  0  0  0
  7 13  2  0  0  0  0
  7 15  1  0  0  0  0
  8  9  1  0  0  0  0
  8 12  1  0  0  0  0
  8 20  1  0  0  0  0
  8 21  1  0  0  0  0
  9 15  1  0  0  0  0
  9 22  1  0  0  0  0
  9 23  1  0  0  0  0
 10 11  1  0  0  0  0
 10 14  1  0  0  0  0
 10 24  1  0  0  0  0
 10 25  1  0  0  0  0
 11 13  1  0  0  0  0
 11 26  1  0  0  0  0
 12 27  1  0  0  0  0
 13 28  1  0  0  0  0
M  CHG  1  13   1
M  END
$$$$
