
  -OEChem-05262117483D

 28 30  0     1  0  0  0  0  0999 V2000
    0.3849    0.2442    2.4307 C   0  0  0  0  0  0  0  0  0  0  0  0
    0.0815   -0.2128    1.1376 C   0  0  0  0  0  0  0  0  0  0  0  0
    0.1237   -0.5611    3.5447 C   0  0  0  0  0  0  0  0  0  0  0  0
   -0.4918   -1.4708    0.9149 C   0  0  0  0  0  0  0  0  0  0  0  0
   -0.4490   -1.8154    3.3296 C   0  0  0  0  0  0  0  0  0  0  0  0
   -0.7497   -2.2532    2.0363 C   0  0  0  0  0  0  0  0  0  0  0  0
    0.6018   -4.4661    5.6950 C   0  0  0  0  0  0  0  0  0  0  0  0
    0.1329   -5.9760    7.3837 C   0  0  0  0  0  0  0  0  0  0  0  0
    1.6524   -5.8226    7.1822 C   0  0  0  0  0  0  0  0  0  0  0  0
   -1.6472   -3.8412    3.3661 C   0  0  0  0  0  0  0  0  0  0  0  0
   -0.7761   -2.9397    4.2774 C   0  0  1  0  0  0  0  0  0  0  0  0
   -0.3622   -4.8867    6.5206 N   0  3  0  0  0  0  0  0  0  0  0  0
    0.4904   -3.5962    4.7125 N   0  0  0  0  0  0  0  0  0  0  0  0
   -1.2967   -3.5141    2.0088 O   0  0  0  0  0  0  0  0  0  0  0  0
    1.7770   -5.0124    5.9567 O   0  0  0  0  0  0  0  0  0  0  0  0
    0.8189    1.2298    2.5653 H   0  0  0  0  0  0  0  0  0  0  0  0
    0.2890    0.4282    0.2856 H   0  0  0  0  0  0  0  0  0  0  0  0
    0.3562   -0.2116    4.5476 H   0  0  0  0  0  0  0  0  0  0  0  0
   -0.7347   -1.8226   -0.0824 H   0  0  0  0  0  0  0  0  0  0  0  0
   -0.2451   -6.9413    7.0366 H   0  0  0  0  0  0  0  0  0  0  0  0
   -0.1657   -5.8161    8.4205 H   0  0  0  0  0  0  0  0  0  0  0  0
    2.1365   -5.2610    7.9820 H   0  0  0  0  0  0  0  0  0  0  0  0
    2.1763   -6.7585    6.9997 H   0  0  0  0  0  0  0  0  0  0  0  0
   -1.4837   -4.9114    3.5100 H   0  0  0  0  0  0  0  0  0  0  0  0
   -2.7051   -3.6021    3.5223 H   0  0  0  0  0  0  0  0  0  0  0  0
   -1.3080   -2.6172    5.1773 H   0  0  0  0  0  0  0  0  0  0  0  0
   -1.3441   -4.6789    6.3889 H   0  0  0  0  0  0  0  0  0  0  0  0
    1.3395   -3.3746    4.1978 H   0  0  0  0  0  0  0  0  0  0  0  0
  1  2  1  0  0  0  0
  1  3  2  0  0  0  0
  1 16  1  0  0  0  0
  2  4  2  0  0  0  0
  2 17  1  0  0  0  0
  3  5  1  0  0  0  0
  3 18  1  0  0  0  0
  4  6  1  0  0  0  0
  4 19  1  0  0  0  0
  5  6  2  0  0  0  0
  5 11  1  0  0  0  0
  6 14  1  0  0  0  0
  7 12  2  0  0  0  0
  7 13  1  0  0  0  0
  7 15  1  0  0  0  0
  8  9  1  0  0  0  0
  8 12  1  0  0  0  0
  8 20  1  0  0  0  0
  8 21  1  0  0  0  0
  9 15  1  0  0  0  0
  9 22  1  0  0  0  0
  9 23  1  0  0  0  0
 10 11  1  0  0  0  0
 10 14  1  0  0  0  0
 10 24  1  0  0  0  0
 10 25  1  0  0  0  0
 11 13  1  0  0  0  0
 11 26  1  0  0  0  0
 12 27  1  0  0  0  0
 13 28  1  0  0  0  0
M  CHG  1  12   1
M  END
$$$$
