40
0 1 C12H21N3O2S2
C                     8.719434296866    -1.209125999381    -1.249115656602
C                     7.211321448339    -0.744890315605     0.509856585576
C                     9.775688080475    -1.272569002250    -2.325936743313
C                     7.297685910258    -1.744108548640     8.215080603936
C                     9.005277934588    -0.038039993749    -5.949969399548
C                    11.391022249208    -0.640857081714    -6.554517928887
C                     6.604399712671    -0.999020072045     7.069290195035
C                     7.157480043159    -1.381133342467     5.691007445534
C                     6.466159135647    -0.630304160986     4.544566577297
C                    10.833947207583    -0.048769082863    -4.182765805857
C                     7.036708510752    -1.028525495740     3.186199136947
C                    10.304751295790    -0.698740210135    -5.473163672061
N                     7.959267545373    -2.233030132331    -0.957951591827
N                     7.079462743184    -1.956251511898     0.055993351933
N                     9.906643390171    -0.123325436877    -3.053995656964
O                    10.463280463570    -2.272773653356    -2.484540318700
O                     6.703699440537     1.391389902790     1.997252432061
S                     8.431411660851     0.219309811309    -0.273306948050
S                     6.215219841528    -0.037838842908     1.856804445221
H                     7.176720990040    -2.828633979278     8.112502120531
H                     8.372601371623    -1.530705143476     8.232269465096
H                     6.884448849353    -1.452863757882     9.186419304964
H                     9.160148704515     1.026979208180    -6.166592223610
H                     8.641437894099    -0.511845228242    -6.867428869808
H                     8.207747287318    -0.122831180070    -5.203796866394
H                    11.641798821335     0.396927946275    -6.807798038397
H                    11.054028024796    -1.133125705970    -7.472457574549
H                    12.309288614171    -1.139274401193    -6.225439221861
H                     6.714028006003     0.083333213146     7.214312066886
H                     5.526440106484    -1.204618039267     7.096251763335
H                     7.047725916777    -2.463597035191     5.541432966887
H                     8.235457016942    -1.173677661604     5.662167160550
H                     6.589349531792     0.449369804735     4.683552860262
H                     5.388616896818    -0.836769518449     4.567599512818
H                    11.758408390854    -0.541458508837    -3.872884711390
H                    11.057623566980     1.009938982316    -4.356155021144
H                     6.855642278249    -2.079626426844     2.940319607771
H                     8.107290841570    -0.813452435933     3.113322142686
H                    10.100132269366    -1.750406773468    -5.242087139797
H                     9.172949231360     0.570694867088    -2.991763316301
