
  -OEChem-05262117483D

 41 41  0     1  0  0  0  0  0999 V2000
    4.5830   -2.7848   -0.8807 C   0  0  0  0  0  0  0  0  0  0  0  0
    3.4623   -3.7110   -1.4278 C   0  0  0  0  0  0  0  0  0  0  0  0
    4.5936   -3.0572    0.6349 C   0  0  0  0  0  0  0  0  0  0  0  0
    2.8539   -4.3895   -0.1784 C   0  0  2  0  0  0  0  0  0  0  0  0
    1.3445   -4.6169   -0.2739 C   0  0  0  0  0  0  0  0  0  0  0  0
    0.6993   -5.1769    1.0029 C   0  0  0  0  0  0  0  0  0  0  0  0
    1.2610  -10.7601    4.7510 C   0  0  0  0  0  0  0  0  0  0  0  0
    0.7345   -9.3364    4.5308 C   0  0  0  0  0  0  0  0  0  0  0  0
    0.8013  -11.3194    6.1021 C   0  0  0  0  0  0  0  0  0  0  0  0
    1.2023   -6.5809    1.3502 C   0  0  0  0  0  0  0  0  0  0  0  0
    1.1898   -8.7785    3.1822 C   0  0  0  0  0  0  0  0  0  0  0  0
    1.3059  -12.7202    6.3668 C   0  0  0  0  0  0  0  0  0  0  0  0
    3.2064   -3.4581    0.9042 N   0  0  0  0  0  0  0  0  0  0  0  0
   -0.9197   -7.1673    2.8821 O   0  0  0  0  0  0  0  0  0  0  0  0
    1.1849   -6.2340    3.9937 O   0  0  0  0  0  0  0  0  0  0  0  0
    0.8774  -13.1838    7.5674 F   0  0  0  0  0  0  0  0  0  0  0  0
    2.6639  -12.7806    6.3791 F   0  0  0  0  0  0  0  0  0  0  0  0
    0.8810  -13.6033    5.4249 F   0  0  0  0  0  0  0  0  0  0  0  0
    0.5505   -7.0870    2.9687 S   0  0  0  0  0  0  0  0  0  0  0  0
    5.5570   -2.9848   -1.3354 H   0  0  0  0  0  0  0  0  0  0  0  0
    4.3374   -1.7371   -1.0725 H   0  0  0  0  0  0  0  0  0  0  0  0
    2.6976   -3.1265   -1.9481 H   0  0  0  0  0  0  0  0  0  0  0  0
    3.8397   -4.4563   -2.1335 H   0  0  0  0  0  0  0  0  0  0  0  0
    5.3168   -3.8596    0.8668 H   0  0  0  0  0  0  0  0  0  0  0  0
    4.8649   -2.1777    1.2270 H   0  0  0  0  0  0  0  0  0  0  0  0
    3.3627   -5.3638   -0.0442 H   0  0  0  0  0  0  0  0  0  0  0  0
    0.8722   -3.6536   -0.4963 H   0  0  0  0  0  0  0  0  0  0  0  0
    1.1357   -5.2822   -1.1223 H   0  0  0  0  0  0  0  0  0  0  0  0
   -0.3870   -5.2157    0.8807 H   0  0  0  0  0  0  0  0  0  0  0  0
    0.8973   -4.4990    1.8384 H   0  0  0  0  0  0  0  0  0  0  0  0
    2.3557  -10.7623    4.7098 H   0  0  0  0  0  0  0  0  0  0  0  0
    0.9089  -11.4159    3.9472 H   0  0  0  0  0  0  0  0  0  0  0  0
   -0.3596   -9.3308    4.5691 H   0  0  0  0  0  0  0  0  0  0  0  0
    1.0906   -8.6774    5.3292 H   0  0  0  0  0  0  0  0  0  0  0  0
    1.1535  -10.6905    6.9253 H   0  0  0  0  0  0  0  0  0  0  0  0
   -0.2908  -11.3551    6.1588 H   0  0  0  0  0  0  0  0  0  0  0  0
    0.8686   -7.3237    0.6193 H   0  0  0  0  0  0  0  0  0  0  0  0
    2.2906   -6.6243    1.4418 H   0  0  0  0  0  0  0  0  0  0  0  0
    2.2802   -8.7164    3.1162 H   0  0  0  0  0  0  0  0  0  0  0  0
    0.8038   -9.3704    2.3470 H   0  0  0  0  0  0  0  0  0  0  0  0
    3.1138   -3.8863    1.8229 H   0  0  0  0  0  0  0  0  0  0  0  0
  1  2  1  0  0  0  0
  1  3  1  0  0  0  0
  1 20  1  0  0  0  0
  1 21  1  0  0  0  0
  2  4  1  0  0  0  0
  2 22  1  0  0  0  0
  2 23  1  0  0  0  0
  3 13  1  0  0  0  0
  3 24  1  0  0  0  0
  3 25  1  0  0  0  0
  4  5  1  0  0  0  0
  4 13  1  0  0  0  0
  4 26  1  0  0  0  0
  5  6  1  0  0  0  0
  5 27  1  0  0  0  0
  5 28  1  0  0  0  0
  6 10  1  0  0  0  0
  6 29  1  0  0  0  0
  6 30  1  0  0  0  0
  7  8  1  0  0  0  0
  7  9  1  0  0  0  0
  7 31  1  0  0  0  0
  7 32  1  0  0  0  0
  8 11  1  0  0  0  0
  8 33  1  0  0  0  0
  8 34  1  0  0  0  0
  9 12  1  0  0  0  0
  9 35  1  0  0  0  0
  9 36  1  0  0  0  0
 10 19  1  0  0  0  0
 10 37  1  0  0  0  0
 10 38  1  0  0  0  0
 11 19  1  0  0  0  0
 11 39  1  0  0  0  0
 11 40  1  0  0  0  0
 12 16  1  0  0  0  0
 12 17  1  0  0  0  0
 12 18  1  0  0  0  0
 13 41  1  0  0  0  0
 14 19  2  0  0  0  0
 15 19  2  0  0  0  0
M  END
$$$$
