
  -OEChem-05262117483D

 42 42  0     1  0  0  0  0  0999 V2000
   -3.2890   -1.7872    2.8884 C   0  0  0  0  0  0  0  0  0  0  0  0
   -1.8947   -1.4252    2.3281 C   0  0  0  0  0  0  0  0  0  0  0  0
   -3.0639   -3.0246    3.7932 C   0  0  0  0  0  0  0  0  0  0  0  0
   -0.9056   -2.0361    3.3235 C   0  0  2  0  0  0  0  0  0  0  0  0
    0.5477   -2.2138    2.8427 C   0  0  0  0  0  0  0  0  0  0  0  0
    1.6525   -1.7608    3.8197 C   0  0  0  0  0  0  0  0  0  0  0  0
    1.4164   -4.2735   10.0768 C   0  0  0  0  0  0  0  0  0  0  0  0
    0.6678   -3.8308    8.8113 C   0  0  0  0  0  0  0  0  0  0  0  0
    0.4432   -4.6066   11.2130 C   0  0  0  0  0  0  0  0  0  0  0  0
    2.0788   -2.7222    4.9376 C   0  0  0  0  0  0  0  0  0  0  0  0
    1.6627   -3.5013    7.6955 C   0  0  0  0  0  0  0  0  0  0  0  0
    1.1554   -5.0664   12.4692 C   0  0  0  0  0  0  0  0  0  0  0  0
   -1.5944   -3.3521    3.6447 N   0  3  0  0  0  0  0  0  0  0  0  0
   -0.0648   -4.1072    5.7490 O   0  0  0  0  0  0  0  0  0  0  0  0
    0.1131   -1.6753    6.4399 O   0  0  0  0  0  0  0  0  0  0  0  0
    0.2760   -5.3497   13.4554 F   0  0  0  0  0  0  0  0  0  0  0  0
    2.0049   -4.1184   12.9406 F   0  0  0  0  0  0  0  0  0  0  0  0
    1.8916   -6.1856   12.2466 F   0  0  0  0  0  0  0  0  0  0  0  0
    0.7902   -2.9640    6.2040 S   0  0  0  0  0  0  0  0  0  0  0  0
   -3.6974   -0.9677    3.4824 H   0  0  0  0  0  0  0  0  0  0  0  0
   -4.0014   -1.9996    2.0899 H   0  0  0  0  0  0  0  0  0  0  0  0
   -1.7405   -1.8641    1.3354 H   0  0  0  0  0  0  0  0  0  0  0  0
   -1.7439   -0.3479    2.2366 H   0  0  0  0  0  0  0  0  0  0  0  0
   -3.2319   -2.8088    4.8486 H   0  0  0  0  0  0  0  0  0  0  0  0
   -3.6487   -3.9021    3.5170 H   0  0  0  0  0  0  0  0  0  0  0  0
   -0.9349   -1.4769    4.2627 H   0  0  0  0  0  0  0  0  0  0  0  0
    0.7234   -3.2507    2.5287 H   0  0  0  0  0  0  0  0  0  0  0  0
    0.6603   -1.6121    1.9364 H   0  0  0  0  0  0  0  0  0  0  0  0
    1.3851   -0.7965    4.2621 H   0  0  0  0  0  0  0  0  0  0  0  0
    2.5596   -1.5871    3.2320 H   0  0  0  0  0  0  0  0  0  0  0  0
    2.0965   -3.4795   10.4026 H   0  0  0  0  0  0  0  0  0  0  0  0
    2.0310   -5.1525    9.8552 H   0  0  0  0  0  0  0  0  0  0  0  0
   -0.0044   -4.6258    8.4744 H   0  0  0  0  0  0  0  0  0  0  0  0
    0.0576   -2.9477    9.0257 H   0  0  0  0  0  0  0  0  0  0  0  0
   -0.1584   -3.7342   11.4844 H   0  0  0  0  0  0  0  0  0  0  0  0
   -0.2432   -5.4072   10.9217 H   0  0  0  0  0  0  0  0  0  0  0  0
    2.3315   -3.7205    4.5707 H   0  0  0  0  0  0  0  0  0  0  0  0
    2.9435   -2.3073    5.4641 H   0  0  0  0  0  0  0  0  0  0  0  0
    2.3249   -2.6740    7.9675 H   0  0  0  0  0  0  0  0  0  0  0  0
    2.2598   -4.3707    7.4042 H   0  0  0  0  0  0  0  0  0  0  0  0
   -1.1657   -3.7845    4.4983 H   0  0  0  0  0  0  0  0  0  0  0  0
   -1.4546   -4.0026    2.8658 H   0  0  0  0  0  0  0  0  0  0  0  0
  1  2  1  0  0  0  0
  1  3  1  0  0  0  0
  1 20  1  0  0  0  0
  1 21  1  0  0  0  0
  2  4  1  0  0  0  0
  2 22  1  0  0  0  0
  2 23  1  0  0  0  0
  3 13  1  0  0  0  0
  3 24  1  0  0  0  0
  3 25  1  0  0  0  0
  4  5  1  0  0  0  0
  4 13  1  0  0  0  0
  4 26  1  0  0  0  0
  5  6  1  0  0  0  0
  5 27  1  0  0  0  0
  5 28  1  0  0  0  0
  6 10  1  0  0  0  0
  6 29  1  0  0  0  0
  6 30  1  0  0  0  0
  7  8  1  0  0  0  0
  7  9  1  0  0  0  0
  7 31  1  0  0  0  0
  7 32  1  0  0  0  0
  8 11  1  0  0  0  0
  8 33  1  0  0  0  0
  8 34  1  0  0  0  0
  9 12  1  0  0  0  0
  9 35  1  0  0  0  0
  9 36  1  0  0  0  0
 10 19  1  0  0  0  0
 10 37  1  0  0  0  0
 10 38  1  0  0  0  0
 11 19  1  0  0  0  0
 11 39  1  0  0  0  0
 11 40  1  0  0  0  0
 12 16  1  0  0  0  0
 12 17  1  0  0  0  0
 12 18  1  0  0  0  0
 13 41  1  0  0  0  0
 13 42  1  0  0  0  0
 14 19  2  0  0  0  0
 15 19  2  0  0  0  0
M  CHG  1  13   1
M  END
$$$$
