38
0 1 C18H18O2
C                     1.743348253283    -4.980371739169    -5.351082558352
C                     2.779867843933    -4.021500543185    -5.498238040966
C                     0.998908606157    -5.026234088656    -4.190647688739
C                     3.050826594570    -3.128070740181    -4.482803595652
C                     0.512459571233    -4.135685480935    -1.914117072983
C                     0.780479488605    -3.238870610691    -0.904136624341
C                     2.547748589142    -2.238600510947    -2.212554710269
C                     1.253873822285    -4.117048510463    -3.127552966739
C                     2.298900090058    -3.149097411435    -3.275459087226
C                     1.807562193264    -2.260550532932    -1.045536257018
C                    -0.387877253812    -0.593599022043     0.286009878743
C                     0.623735822943     2.271905342347     0.520504768786
C                     0.863984022872     2.189346670009    -0.999320946332
C                     1.348972401693     1.030255132621     1.057132508826
C                    -0.434875619768     0.114858792010    -1.911365679577
C                     0.878112710432     0.675729902232    -1.342170654166
C                     1.026359975592    -0.062174194671     0.015884730383
C                     2.036183613151    -1.233309958836     0.040043183497
O                    -0.784370041792    -1.100211285641     1.312200475293
O                    -1.189393314576    -0.417082607570    -0.793423126135
H                     1.540131906307    -5.679344194598    -6.158193800269
H                     3.360700746232    -3.995860018166    -6.416618438327
H                     0.205332463140    -5.761110979699    -4.075292031079
H                     3.846597997495    -2.394788852752    -4.595080346839
H                    -0.276400951949    -4.874110992019    -1.789936210561
H                     0.201784795618    -3.270629890087     0.014859740584
H                     3.346878198272    -1.508508905919    -2.331706695822
H                     0.991885244506     3.204465297072     0.958111869021
H                    -0.447154002168     2.205698870248     0.745218902903
H                     0.120555707481     2.742992971399    -1.581576610355
H                     1.842639847696     2.620745780715    -1.237487754705
H                     2.432433191284     1.202301608361     1.071647961426
H                     1.038766265416     0.732728458027     2.062068083573
H                    -1.062144007515     0.870762809400    -2.389116411727
H                    -0.259987631743    -0.708034144194    -2.609826955112
H                     1.692981288082     0.440707015043    -2.029676654373
H                     1.978994622352    -1.703290617957     1.027856864459
H                     3.039757726061    -0.807203144123    -0.061783164463
