75
0 1 C35H36O3S
C                     3.393016254377    -0.202417532809    -4.586244457990
C                     5.931869210563   -18.706614727801    -1.182318876741
C                     3.861584142640    -0.755522967464    -3.388822313312
C                     2.140797920662     0.420307312949    -4.610223303067
C                     7.002793157021   -17.844834214709    -0.924206331527
C                     4.618863989027   -18.246183171991    -1.032433088434
C                     3.082596468093    -0.694870099064    -2.233183969438
C                     1.367151771463     0.488490547685    -3.448775720567
C                     1.692349482243    -3.343630404892     0.337413216344
C                     0.811604903662    -2.986962805858    -1.869802265206
C                    -0.925061889366    -1.754867769104     1.527652039684
C                     6.758706744823   -16.530328791656    -0.516199388292
C                     4.374675403293   -16.933966858424    -0.621137224166
C                     2.034463205121    -4.658381673094     0.003332826866
C                     1.135884899448    -4.292008360754    -2.216370924641
C                    -1.566758108550    -1.599020847144     2.755788947321
C                    -0.121584782527     0.285174636017     3.235784200485
C                     1.094339149012    -2.477028759321    -0.587504488107
C                     1.817164108459    -0.079387985369    -2.243399952452
C                     0.105550586041    -0.894393027239     1.119169069797
C                     0.518214034726     0.134140041028     2.003243607104
C                     5.445344640884   -16.064983878362    -0.354703578984
C                     1.758708659010    -5.138142516629    -1.284171154385
C                    -1.163143045116    -0.568515889962     3.612915092840
C                     0.755559411898    -1.080341453979    -0.206354986972
C                     0.997396662198    -0.005378827050    -1.007040038428
C                     1.664368004246     1.043933347496     1.624175703903
C                     0.467772931798     1.360513169271    -0.608314456002
C                     1.313917110289     2.031775260063     0.492301771917
C                     5.180355792366   -14.646292850132     0.054754902632
C                     3.573865809980    -9.671406916477    -0.655119349477
C                     2.895508908030    -8.623305197758    -1.544428788215
C                     3.799177707966   -11.000054706321    -1.388279372687
C                     2.677835317948    -7.306365215571    -0.814077484179
C                     4.465570431776   -12.044866678491    -0.495905526931
O                     3.184846009652   -14.089351976096    -1.691203141527
O                    -1.744875389920    -0.354969987959     4.841017852671
O                     2.044950126868    -6.403484085329    -1.722464454584
S                     4.612737545706   -13.642333321583    -1.411098605283
H                     3.997662088822    -0.253120768960    -5.488116108617
H                     6.119100331112   -19.729448583967    -1.498983372161
H                     4.836845306240    -1.235037452549    -3.355909887981
H                     1.764558744825     0.851660480489    -5.534666700692
H                     8.025369288010   -18.195101076707    -1.038947450401
H                     3.783300872907   -18.909744760682    -1.239569876525
H                     3.449451485157    -1.131983164747    -1.309490675216
H                     0.390035100891     0.963756411823    -3.485977868038
H                     1.903156400046    -2.984669468246     1.341307550260
H                     0.330720294111    -2.347065048342    -2.602747945186
H                    -1.232569100158    -2.559946705943     0.866319186651
H                     7.595071342162   -15.863227552478    -0.317155212031
H                     3.356497184725   -16.567941083216    -0.527114361484
H                     2.505808659894    -5.288638409219     0.749001615066
H                     0.913546765715    -4.681950903259    -3.205491964362
H                    -2.371591798211    -2.273675810541     3.044318275806
H                     0.187533709370     1.064413161729     3.927527227366
H                     2.011835735762     1.595568129889     2.503189809504
H                     2.500443342738     0.421312410975     1.286139000386
H                     0.429462618454     2.022216112969    -1.477804218494
H                    -0.557066167324     1.253710274776    -0.237336603415
H                     0.750805961185     2.883530944824     0.892585680685
H                     2.244508552250     2.429114593993     0.070449108051
H                     4.361414121850   -14.570014759853     0.776484026036
H                     6.074759953493   -14.162194764342     0.458239777889
H                     4.535717136219    -9.282290647144    -0.294126959728
H                     2.958423246991    -9.851182967315     0.236503329228
H                     3.504002088343    -8.434696819434    -2.436448905465
H                     1.927052799314    -8.998189230135    -1.894397088431
H                     2.841211648434   -11.398701319632    -1.738332791057
H                     4.416260159381   -10.827338858451    -2.278985849845
H                     3.636464595278    -6.886721840101    -0.477869220219
H                     2.041924789004    -7.453554914783     0.070204998604
H                     5.475740235900   -11.743236451591    -0.195015052729
H                     3.864390549308   -12.242073477391     0.398604919439
H                    -2.448555061850    -1.009834014724     4.973031876629
