
  -OEChem-05262117483D

 75 79  0     1  0  0  0  0  0999 V2000
    3.6976   -3.5322   -3.5013 C   0  0  0  0  0  0  0  0  0  0  0  0
   -5.1522  -17.7543    1.1518 C   0  0  0  0  0  0  0  0  0  0  0  0
    3.8778   -3.5619   -2.1133 C   0  0  0  0  0  0  0  0  0  0  0  0
    3.0036   -2.4647   -4.0802 C   0  0  0  0  0  0  0  0  0  0  0  0
   -6.1614  -16.8229    0.8867 C   0  0  0  0  0  0  0  0  0  0  0  0
   -3.8104  -17.3840    1.0082 C   0  0  0  0  0  0  0  0  0  0  0  0
    3.3614   -2.5413   -1.3149 C   0  0  0  0  0  0  0  0  0  0  0  0
    2.4957   -1.4390   -3.2786 C   0  0  0  0  0  0  0  0  0  0  0  0
    0.9908   -2.4012    1.8085 C   0  0  0  0  0  0  0  0  0  0  0  0
    0.2333   -2.7775   -0.4409 C   0  0  0  0  0  0  0  0  0  0  0  0
   -0.2350    0.6469    1.5458 C   0  0  0  0  0  0  0  0  0  0  0  0
   -5.8272  -15.5288    0.4777 C   0  0  0  0  0  0  0  0  0  0  0  0
   -3.4764  -16.0919    0.5962 C   0  0  0  0  0  0  0  0  0  0  0  0
    0.5301   -3.6584    2.1821 C   0  0  0  0  0  0  0  0  0  0  0  0
   -0.2444   -4.0407   -0.0815 C   0  0  0  0  0  0  0  0  0  0  0  0
   -0.5842    1.6965    2.3945 C   0  0  0  0  0  0  0  0  0  0  0  0
    1.6876    2.5263    2.2517 C   0  0  0  0  0  0  0  0  0  0  0  0
    0.8700   -1.9390    0.4836 C   0  0  0  0  0  0  0  0  0  0  0  0
    2.6531   -1.4651   -1.8813 C   0  0  0  0  0  0  0  0  0  0  0  0
    1.0598    0.5241    1.0187 C   0  0  0  0  0  0  0  0  0  0  0  0
    2.0378    1.4783    1.3973 C   0  0  0  0  0  0  0  0  0  0  0  0
   -4.4846  -15.1534    0.3223 C   0  0  0  0  0  0  0  0  0  0  0  0
   -0.0887   -4.4919    1.2366 C   0  0  0  0  0  0  0  0  0  0  0  0
    0.3842    2.6445    2.7451 C   0  0  0  0  0  0  0  0  0  0  0  0
    1.3903   -0.5996    0.1018 C   0  0  0  0  0  0  0  0  0  0  0  0
    2.1168   -0.3739   -1.0279 C   0  0  0  0  0  0  0  0  0  0  0  0
    3.4602    1.3416    0.9042 C   0  0  0  0  0  0  0  0  0  0  0  0
    2.4596    1.0507   -1.4263 C   0  0  0  0  0  0  0  0  0  0  0  0
    3.6200    1.6415   -0.6004 C   0  0  0  0  0  0  0  0  0  0  0  0
   -4.1223  -13.7569   -0.0885 C   0  0  0  0  0  0  0  0  0  0  0  0
   -2.1864   -8.9017    0.6187 C   0  0  0  0  0  0  0  0  0  0  0  0
   -1.4892   -7.8781    1.5218 C   0  0  0  0  0  0  0  0  0  0  0  0
   -2.5313  -10.1985    1.3624 C   0  0  0  0  0  0  0  0  0  0  0  0
   -1.1388   -6.6008    0.7730 C   0  0  0  0  0  0  0  0  0  0  0  0
   -3.2310  -11.2109    0.4581 C   0  0  0  0  0  0  0  0  0  0  0  0
   -2.1247  -13.3314    1.6934 O   0  0  0  0  0  0  0  0  0  0  0  0
    0.1162    3.7044    3.5797 O   0  0  0  0  0  0  0  0  0  0  0  0
   -0.5103   -5.7106    1.6973 O   0  0  0  0  0  0  0  0  0  0  0  0
   -3.5110  -12.7853    1.3819 S   0  0  2  0  0  0  0  0  0  0  0  0
    4.0978   -4.3283   -4.1240 H   0  0  0  0  0  0  0  0  0  0  0  0
   -5.4097  -18.7616    1.4691 H   0  0  0  0  0  0  0  0  0  0  0  0
    4.4239   -4.3814   -1.6525 H   0  0  0  0  0  0  0  0  0  0  0  0
    2.8562   -2.4306   -5.1570 H   0  0  0  0  0  0  0  0  0  0  0  0
   -7.2058  -17.1033    0.9967 H   0  0  0  0  0  0  0  0  0  0  0  0
   -3.0225  -18.1020    1.2209 H   0  0  0  0  0  0  0  0  0  0  0  0
    3.5002   -2.5741   -0.2386 H   0  0  0  0  0  0  0  0  0  0  0  0
    1.9473   -0.6223   -3.7416 H   0  0  0  0  0  0  0  0  0  0  0  0
    1.4617   -1.7644    2.5528 H   0  0  0  0  0  0  0  0  0  0  0  0
    0.1101   -2.4409   -1.4655 H   0  0  0  0  0  0  0  0  0  0  0  0
   -0.9842   -0.0940    1.2811 H   0  0  0  0  0  0  0  0  0  0  0  0
   -6.6156  -14.8072    0.2730 H   0  0  0  0  0  0  0  0  0  0  0  0
   -2.4354  -15.7956    0.5071 H   0  0  0  0  0  0  0  0  0  0  0  0
    0.6376   -4.0174    3.2018 H   0  0  0  0  0  0  0  0  0  0  0  0
   -0.7305   -4.6542   -0.8315 H   0  0  0  0  0  0  0  0  0  0  0  0
   -1.5990    1.7748    2.7822 H   0  0  0  0  0  0  0  0  0  0  0  0
    2.4272    3.2618    2.5571 H   0  0  0  0  0  0  0  0  0  0  0  0
    4.1220    1.9923    1.4841 H   0  0  0  0  0  0  0  0  0  0  0  0
    3.7881    0.3114    1.0829 H   0  0  0  0  0  0  0  0  0  0  0  0
    2.7215    1.0966   -2.4867 H   0  0  0  0  0  0  0  0  0  0  0  0
    1.5781    1.6846   -1.2828 H   0  0  0  0  0  0  0  0  0  0  0  0
    3.6509    2.7245   -0.7706 H   0  0  0  0  0  0  0  0  0  0  0  0
    4.5787    1.2334   -0.9413 H   0  0  0  0  0  0  0  0  0  0  0  0
   -3.2913  -13.7376   -0.8000 H   0  0  0  0  0  0  0  0  0  0  0  0
   -4.9780  -13.2172   -0.5051 H   0  0  0  0  0  0  0  0  0  0  0  0
   -3.1025   -8.4613    0.2019 H   0  0  0  0  0  0  0  0  0  0  0  0
   -1.5399   -9.1385   -0.2369 H   0  0  0  0  0  0  0  0  0  0  0  0
   -2.1340   -7.6236    2.3710 H   0  0  0  0  0  0  0  0  0  0  0  0
   -0.5709   -8.3078    1.9379 H   0  0  0  0  0  0  0  0  0  0  0  0
   -1.6171  -10.6541    1.7575 H   0  0  0  0  0  0  0  0  0  0  0  0
   -3.1709   -9.9691    2.2239 H   0  0  0  0  0  0  0  0  0  0  0  0
   -2.0439   -6.1325    0.3610 H   0  0  0  0  0  0  0  0  0  0  0  0
   -0.4567   -6.8152   -0.0613 H   0  0  0  0  0  0  0  0  0  0  0  0
   -4.2081  -10.8489    0.1174 H   0  0  0  0  0  0  0  0  0  0  0  0
   -2.6122  -11.4582   -0.4116 H   0  0  0  0  0  0  0  0  0  0  0  0
   -0.8148    3.6636    3.8498 H   0  0  0  0  0  0  0  0  0  0  0  0
  1  3  1  0  0  0  0
  1  4  2  0  0  0  0
  1 40  1  0  0  0  0
  2  5  1  0  0  0  0
  2  6  2  0  0  0  0
  2 41  1  0  0  0  0
  3  7  2  0  0  0  0
  3 42  1  0  0  0  0
  4  8  1  0  0  0  0
  4 43  1  0  0  0  0
  5 12  2  0  0  0  0
  5 44  1  0  0  0  0
  6 13  1  0  0  0  0
  6 45  1  0  0  0  0
  7 19  1  0  0  0  0
  7 46  1  0  0  0  0
  8 19  2  0  0  0  0
  8 47  1  0  0  0  0
  9 14  2  0  0  0  0
  9 18  1  0  0  0  0
  9 48  1  0  0  0  0
 10 15  1  0  0  0  0
 10 18  2  0  0  0  0
 10 49  1  0  0  0  0
 11 16  2  0  0  0  0
 11 20  1  0  0  0  0
 11 50  1  0  0  0  0
 12 22  1  0  0  0  0
 12 51  1  0  0  0  0
 13 22  2  0  0  0  0
 13 52  1  0  0  0  0
 14 23  1  0  0  0  0
 14 53  1  0  0  0  0
 15 23  2  0  0  0  0
 15 54  1  0  0  0  0
 16 24  1  0  0  0  0
 16 55  1  0  0  0  0
 17 21  1  0  0  0  0
 17 24  2  0  0  0  0
 17 56  1  0  0  0  0
 18 25  1  0  0  0  0
 19 26  1  0  0  0  0
 20 21  2  0  0  0  0
 20 25  1  0  0  0  0
 21 27  1  0  0  0  0
 22 30  1  0  0  0  0
 23 38  1  0  0  0  0
 24 37  1  0  0  0  0
 25 26  2  0  0  0  0
 26 28  1  0  0  0  0
 27 29  1  0  0  0  0
 27 57  1  0  0  0  0
 27 58  1  0  0  0  0
 28 29  1  0  0  0  0
 28 59  1  0  0  0  0
 28 60  1  0  0  0  0
 29 61  1  0  0  0  0
 29 62  1  0  0  0  0
 30 39  1  0  0  0  0
 30 63  1  0  0  0  0
 30 64  1  0  0  0  0
 31 32  1  0  0  0  0
 31 33  1  0  0  0  0
 31 65  1  0  0  0  0
 31 66  1  0  0  0  0
 32 34  1  0  0  0  0
 32 67  1  0  0  0  0
 32 68  1  0  0  0  0
 33 35  1  0  0  0  0
 33 69  1  0  0  0  0
 33 70  1  0  0  0  0
 34 38  1  0  0  0  0
 34 71  1  0  0  0  0
 34 72  1  0  0  0  0
 35 39  1  0  0  0  0
 35 73  1  0  0  0  0
 35 74  1  0  0  0  0
 36 39  2  0  0  0  0
 37 75  1  0  0  0  0
M  END
$$$$
