28
-1 1 C13H11O4
C                     3.007413298381    -8.365999250907     5.511590123927
C                     6.864385222413    -5.090898935246     5.495424405737
C                     3.227693594236    -7.163001986185     4.876141148637
C                     6.663982320162    -6.292297285735     6.149689388024
C                     3.992978986927    -8.919204520135     6.370124002537
C                     5.898934951380    -4.542699761808     4.623009626796
C                     5.451508502326    -6.998111880787     5.939019918710
C                     4.448172471534    -6.457907839446     5.070537407995
C                     5.181206100767    -8.246788860065     6.574521695301
C                     4.697129949373    -5.204854919184     4.411424961371
C                     4.361835420994    -2.547079846734     2.442702774658
C                     3.194716815664    -2.652898503367     4.738059531156
C                     3.410408568299    -3.354406638403     3.395952558176
O                     5.423171078569    -3.095116404015     2.051549321233
O                     3.893210736142    -1.404557244694     2.186869554443
O                     6.170431700612    -8.746136885839     7.405895230776
O                     3.706490388020    -4.777899468270     3.595273885709
H                     2.073909116884    -8.903783878166     5.361908402227
H                     7.799118539693    -4.551398662553     5.636070812864
H                     2.484605095282    -6.730516744546     4.216012533599
H                     7.416338844659    -6.707951210088     6.811223111435
H                     3.810794735272    -9.871888766675     6.868531632781
H                     6.099673092686    -3.643419338520     4.052870660369
H                     4.125383855881    -2.569174556352     5.307276639132
H                     2.830445982591    -1.644465077841     4.531640937083
H                     2.462807005366    -3.191956690835     5.352893810234
H                     2.449958466272    -3.409673858660     2.876801451154
H                     5.856398734668    -9.591977877540     7.761153249890
