
  -OEChem-05262117483D

 40 40  0     1  0  0  0  0  0999 V2000
    9.2399   -1.6323   -1.1874 C   0  0  0  0  0  0  0  0  0  0  0  0
    7.5517   -1.5356    0.4379 C   0  0  0  0  0  0  0  0  0  0  0  0
   10.3156   -1.3906   -2.2041 C   0  0  0  0  0  0  0  0  0  0  0  0
    7.2805   -1.6822    8.2056 C   0  0  0  0  0  0  0  0  0  0  0  0
   13.4702   -3.7641   -2.2657 C   0  0  0  0  0  0  0  0  0  0  0  0
   14.3290   -2.3772   -4.2063 C   0  0  0  0  0  0  0  0  0  0  0  0
    6.4921   -1.3242    6.9412 C   0  0  0  0  0  0  0  0  0  0  0  0
    7.2506   -1.6611    5.6516 C   0  0  0  0  0  0  0  0  0  0  0  0
    6.4612   -1.2960    4.3871 C   0  0  0  0  0  0  0  0  0  0  0  0
   11.8609   -2.4951   -3.7681 C   0  0  0  0  0  0  0  0  0  0  0  0
    7.2403   -1.6294    3.1178 C   0  0  0  0  0  0  0  0  0  0  0  0
   13.2559   -2.5076   -3.1184 C   0  0  0  0  0  0  0  0  0  0  0  0
    8.8221   -2.8228   -0.8328 N   0  0  0  0  0  0  0  0  0  0  0  0
    7.8308   -2.7676    0.1103 N   0  0  0  0  0  0  0  0  0  0  0  0
   10.7657   -2.5178   -2.8042 N   0  0  0  0  0  0  0  0  0  0  0  0
   10.7111   -0.2474   -2.4381 O   0  0  0  0  0  0  0  0  0  0  0  0
    6.2617    0.4362    1.6580 O   0  0  0  0  0  0  0  0  0  0  0  0
    8.4586   -0.3013   -0.3864 S   0  0  0  0  0  0  0  0  0  0  0  0
    6.2677   -1.0797    1.6419 S   0  0  1  0  0  0  0  0  0  0  0  0
    7.5066   -2.7541    8.2411 H   0  0  0  0  0  0  0  0  0  0  0  0
    8.2328   -1.1410    8.2440 H   0  0  0  0  0  0  0  0  0  0  0  0
    6.7172   -1.4302    9.1102 H   0  0  0  0  0  0  0  0  0  0  0  0
   13.4086   -4.6714   -2.8805 H   0  0  0  0  0  0  0  0  0  0  0  0
   14.4580   -3.7517   -1.7934 H   0  0  0  0  0  0  0  0  0  0  0  0
   12.7246   -3.8432   -1.4675 H   0  0  0  0  0  0  0  0  0  0  0  0
   14.2965   -3.2294   -4.8967 H   0  0  0  0  0  0  0  0  0  0  0  0
   15.3306   -2.3476   -3.7651 H   0  0  0  0  0  0  0  0  0  0  0  0
   14.1943   -1.4623   -4.7935 H   0  0  0  0  0  0  0  0  0  0  0  0
    6.2518   -0.2534    6.9482 H   0  0  0  0  0  0  0  0  0  0  0  0
    5.5309   -1.8543    6.9447 H   0  0  0  0  0  0  0  0  0  0  0  0
    7.4923   -2.7324    5.6397 H   0  0  0  0  0  0  0  0  0  0  0  0
    8.2106   -1.1279    5.6459 H   0  0  0  0  0  0  0  0  0  0  0  0
    6.2304   -0.2252    4.3937 H   0  0  0  0  0  0  0  0  0  0  0  0
    5.5032   -1.8313    4.3844 H   0  0  0  0  0  0  0  0  0  0  0  0
   11.7448   -1.5941   -4.3757 H   0  0  0  0  0  0  0  0  0  0  0  0
   11.7434   -3.3636   -4.4258 H   0  0  0  0  0  0  0  0  0  0  0  0
    7.4124   -2.7031    2.9921 H   0  0  0  0  0  0  0  0  0  0  0  0
    8.1947   -1.0957    3.0738 H   0  0  0  0  0  0  0  0  0  0  0  0
   13.3128   -1.6270   -2.4673 H   0  0  0  0  0  0  0  0  0  0  0  0
   10.3802   -3.3976   -2.4803 H   0  0  0  0  0  0  0  0  0  0  0  0
  1  3  1  0  0  0  0
  1 13  2  0  0  0  0
  1 18  1  0  0  0  0
  2 14  2  0  0  0  0
  2 18  1  0  0  0  0
  2 19  1  0  0  0  0
  3 15  1  0  0  0  0
  3 16  2  0  0  0  0
  4  7  1  0  0  0  0
  4 20  1  0  0  0  0
  4 21  1  0  0  0  0
  4 22  1  0  0  0  0
  5 12  1  0  0  0  0
  5 23  1  0  0  0  0
  5 24  1  0  0  0  0
  5 25  1  0  0  0  0
  6 12  1  0  0  0  0
  6 26  1  0  0  0  0
  6 27  1  0  0  0  0
  6 28  1  0  0  0  0
  7  8  1  0  0  0  0
  7 29  1  0  0  0  0
  7 30  1  0  0  0  0
  8  9  1  0  0  0  0
  8 31  1  0  0  0  0
  8 32  1  0  0  0  0
  9 11  1  0  0  0  0
  9 33  1  0  0  0  0
  9 34  1  0  0  0  0
 10 12  1  0  0  0  0
 10 15  1  0  0  0  0
 10 35  1  0  0  0  0
 10 36  1  0  0  0  0
 11 19  1  0  0  0  0
 11 37  1  0  0  0  0
 11 38  1  0  0  0  0
 12 39  1  0  0  0  0
 13 14  1  0  0  0  0
 15 40  1  0  0  0  0
 17 19  2  0  0  0  0
M  END
$$$$
