42
1 1 C12F3H23NO2S
C                    -1.216442964423    -0.509513292444     0.762544535204
C                    -1.469519753465    -2.031904924355     0.709363268011
C                    -0.091259536330    -0.358744942385     1.781452113430
C                    -0.151220611363    -2.719943578467     1.155339046536
C                    -0.346867459347    -3.628144929382     2.373163110561
C                     0.915850819166    -4.387782545998     2.859460446254
C                     3.603897066486    -1.078265502366     8.065698931006
C                     2.805822298041    -1.064743770483     6.754011974570
C                     3.892298969100     0.344571793356     8.556799888705
C                     1.220884883221    -4.236933639291     4.355634321352
C                     2.527753977494    -2.496249385798     6.288210905229
C                     4.680935158187     0.361731253429     9.850734648382
N                     0.790146074547    -1.543677531205     1.463636213068
O                     0.281889657355    -1.784580873688     4.962421254418
O                     2.434230425261    -1.973559998858     3.655282877738
F                     4.919548904341     1.626374842680    10.262563833318
F                     5.882594916926    -0.255137182846     9.713757333779
F                     4.018582760589    -0.273923794050    10.850623888704
S                     1.563489296251    -2.490164826853     4.758247181359
H                    -0.894881976398    -0.128523248278    -0.212262938315
H                    -2.104522224900     0.051618003628     1.057706152798
H                    -2.268672667560    -2.307708239438     1.401467611799
H                    -1.771972903845    -2.361670297022    -0.285996051343
H                     0.495139495292     0.557550988900     1.702225347189
H                    -0.424562728531    -0.485448577781     2.813425156363
H                     0.320008080458    -3.277995454764     0.343265821042
H                    -0.789229396741    -3.040164208244     3.181833917094
H                    -1.115001529383    -4.349435190249     2.079008279069
H                     1.804862897354    -4.086601019039     2.297183243391
H                     0.797666460601    -5.458945040251     2.673570255465
H                     4.549320361392    -1.611371329939     7.920053884197
H                     3.043732640679    -1.621094209754     8.834362104168
H                     1.856483033567    -0.539360300029     6.896486752461
H                     3.366839275960    -0.533422360214     5.978672400088
H                     4.473181174839     0.905744703924     7.818871169186
H                     2.963879238661     0.894070223848     8.738109262261
H                     0.385123701364    -4.537542808179     4.992471466051
H                     2.112596791788    -4.807676502752     4.629781676898
H                     3.446545534963    -3.046793174119     6.067034146137
H                     1.929088194786    -3.054912223644     7.014796896449
H                     1.344740291075    -1.330848209230     0.629831743323
H                     1.469758825146    -1.731757928259     2.239990326098
