
  -OEChem-05262117483D

 38 41  0     1  0  0  0  0  0999 V2000
    0.5429   -6.3648   -4.4667 C   0  0  0  0  0  0  0  0  0  0  0  0
   -0.2520   -6.6138   -3.3172 C   0  0  0  0  0  0  0  0  0  0  0  0
    1.3335   -5.2361   -4.5332 C   0  0  0  0  0  0  0  0  0  0  0  0
   -0.2403   -5.7294   -2.2586 C   0  0  0  0  0  0  0  0  0  0  0  0
    2.1697   -3.1337   -3.4869 C   0  0  0  0  0  0  0  0  0  0  0  0
    2.1755   -2.2513   -2.4308 C   0  0  0  0  0  0  0  0  0  0  0  0
    0.5983   -3.6256   -1.2256 C   0  0  0  0  0  0  0  0  0  0  0  0
    1.3652   -4.3059   -3.4583 C   0  0  0  0  0  0  0  0  0  0  0  0
    0.5629   -4.5561   -2.2992 C   0  0  0  0  0  0  0  0  0  0  0  0
    1.3774   -2.4854   -1.2754 C   0  0  0  0  0  0  0  0  0  0  0  0
    0.9170    0.6885   -1.3187 C   0  0  0  0  0  0  0  0  0  0  0  0
   -1.8523    0.5359   -0.1361 C   0  0  0  0  0  0  0  0  0  0  0  0
   -1.1629    0.9553    1.1788 C   0  0  0  0  0  0  0  0  0  0  0  0
   -1.0473   -0.6893   -0.5916 C   0  0  0  0  0  0  0  0  0  0  0  0
    1.2962    1.7264    0.7163 C   0  0  0  0  0  0  0  0  0  0  0  0
    0.3335    0.5682    1.0173 C   0  0  2  0  0  0  0  0  0  0  0  0
    0.4054   -0.3040   -0.2654 C   0  0  2  0  0  0  0  0  0  0  0  0
    1.3769   -1.5059   -0.1234 C   0  0  0  0  0  0  0  0  0  0  0  0
    0.9014    0.5619   -2.5207 O   0  0  0  0  0  0  0  0  0  0  0  0
    1.4149    1.8100   -0.7226 O   0  0  0  0  0  0  0  0  0  0  0  0
    0.5249   -7.0685   -5.2949 H   0  0  0  0  0  0  0  0  0  0  0  0
   -0.8711   -7.5063   -3.2757 H   0  0  0  0  0  0  0  0  0  0  0  0
    1.9430   -5.0434   -5.4133 H   0  0  0  0  0  0  0  0  0  0  0  0
   -0.8495   -5.9203   -1.3776 H   0  0  0  0  0  0  0  0  0  0  0  0
    2.7834   -2.9373   -4.3631 H   0  0  0  0  0  0  0  0  0  0  0  0
    2.7865   -1.3553   -2.4817 H   0  0  0  0  0  0  0  0  0  0  0  0
   -0.0078   -3.8291   -0.3443 H   0  0  0  0  0  0  0  0  0  0  0  0
   -2.9169    0.3221   -0.0044 H   0  0  0  0  0  0  0  0  0  0  0  0
   -1.7701    1.3324   -0.8845 H   0  0  0  0  0  0  0  0  0  0  0  0
   -1.2965    2.0171    1.4089 H   0  0  0  0  0  0  0  0  0  0  0  0
   -1.5913    0.3918    2.0146 H   0  0  0  0  0  0  0  0  0  0  0  0
   -1.3276   -1.5708   -0.0021 H   0  0  0  0  0  0  0  0  0  0  0  0
   -1.1717   -0.9375   -1.6475 H   0  0  0  0  0  0  0  0  0  0  0  0
    0.9364    2.6959    1.0688 H   0  0  0  0  0  0  0  0  0  0  0  0
    2.2969    1.5507    1.1246 H   0  0  0  0  0  0  0  0  0  0  0  0
    0.6850    0.0233    1.8974 H   0  0  0  0  0  0  0  0  0  0  0  0
    1.0852   -2.0333    0.7915 H   0  0  0  0  0  0  0  0  0  0  0  0
    2.3925   -1.1273    0.0453 H   0  0  0  0  0  0  0  0  0  0  0  0
  1  2  1  0  0  0  0
  1  3  2  0  0  0  0
  1 21  1  0  0  0  0
  2  4  2  0  0  0  0
  2 22  1  0  0  0  0
  3  8  1  0  0  0  0
  3 23  1  0  0  0  0
  4  9  1  0  0  0  0
  4 24  1  0  0  0  0
  5  6  2  0  0  0  0
  5  8  1  0  0  0  0
  5 25  1  0  0  0  0
  6 10  1  0  0  0  0
  6 26  1  0  0  0  0
  7  9  1  0  0  0  0
  7 10  2  0  0  0  0
  7 27  1  0  0  0  0
  8  9  2  0  0  0  0
 10 18  1  0  0  0  0
 11 17  1  0  0  0  0
 11 19  2  0  0  0  0
 11 20  1  0  0  0  0
 12 13  1  0  0  0  0
 12 14  1  0  0  0  0
 12 28  1  0  0  0  0
 12 29  1  0  0  0  0
 13 16  1  0  0  0  0
 13 30  1  0  0  0  0
 13 31  1  0  0  0  0
 14 17  1  0  0  0  0
 14 32  1  0  0  0  0
 14 33  1  0  0  0  0
 15 16  1  0  0  0  0
 15 20  1  0  0  0  0
 15 34  1  0  0  0  0
 15 35  1  0  0  0  0
 16 17  1  0  0  0  0
 16 36  1  0  0  0  0
 17 18  1  0  0  0  0
 18 37  1  0  0  0  0
 18 38  1  0  0  0  0
M  END
$$$$
