
  -OEChem-05262117483D

 42 42  0     1  0  0  0  0  0999 V2000
   -1.2164   -0.5095    0.7625 C   0  0  0  0  0  0  0  0  0  0  0  0
   -1.4695   -2.0319    0.7094 C   0  0  0  0  0  0  0  0  0  0  0  0
   -0.0913   -0.3587    1.7815 C   0  0  0  0  0  0  0  0  0  0  0  0
   -0.1512   -2.7199    1.1553 C   0  0  2  0  0  0  0  0  0  0  0  0
   -0.3469   -3.6281    2.3732 C   0  0  0  0  0  0  0  0  0  0  0  0
    0.9159   -4.3878    2.8595 C   0  0  0  0  0  0  0  0  0  0  0  0
    3.6039   -1.0783    8.0657 C   0  0  0  0  0  0  0  0  0  0  0  0
    2.8058   -1.0647    6.7540 C   0  0  0  0  0  0  0  0  0  0  0  0
    3.8923    0.3446    8.5568 C   0  0  0  0  0  0  0  0  0  0  0  0
    1.2209   -4.2369    4.3556 C   0  0  0  0  0  0  0  0  0  0  0  0
    2.5278   -2.4962    6.2882 C   0  0  0  0  0  0  0  0  0  0  0  0
    4.6809    0.3617    9.8507 C   0  0  0  0  0  0  0  0  0  0  0  0
    0.7901   -1.5437    1.4636 N   0  3  0  0  0  0  0  0  0  0  0  0
    0.2819   -1.7846    4.9624 O   0  0  0  0  0  0  0  0  0  0  0  0
    2.4342   -1.9736    3.6553 O   0  0  0  0  0  0  0  0  0  0  0  0
    4.9195    1.6264   10.2626 F   0  0  0  0  0  0  0  0  0  0  0  0
    5.8826   -0.2551    9.7138 F   0  0  0  0  0  0  0  0  0  0  0  0
    4.0186   -0.2739   10.8506 F   0  0  0  0  0  0  0  0  0  0  0  0
    1.5635   -2.4902    4.7582 S   0  0  0  0  0  0  0  0  0  0  0  0
   -0.8949   -0.1285   -0.2123 H   0  0  0  0  0  0  0  0  0  0  0  0
   -2.1045    0.0516    1.0577 H   0  0  0  0  0  0  0  0  0  0  0  0
   -2.2687   -2.3077    1.4015 H   0  0  0  0  0  0  0  0  0  0  0  0
   -1.7720   -2.3617   -0.2860 H   0  0  0  0  0  0  0  0  0  0  0  0
    0.4951    0.5576    1.7022 H   0  0  0  0  0  0  0  0  0  0  0  0
   -0.4246   -0.4854    2.8134 H   0  0  0  0  0  0  0  0  0  0  0  0
    0.3200   -3.2780    0.3433 H   0  0  0  0  0  0  0  0  0  0  0  0
   -0.7892   -3.0402    3.1818 H   0  0  0  0  0  0  0  0  0  0  0  0
   -1.1150   -4.3494    2.0790 H   0  0  0  0  0  0  0  0  0  0  0  0
    1.8049   -4.0866    2.2972 H   0  0  0  0  0  0  0  0  0  0  0  0
    0.7977   -5.4589    2.6736 H   0  0  0  0  0  0  0  0  0  0  0  0
    4.5493   -1.6114    7.9201 H   0  0  0  0  0  0  0  0  0  0  0  0
    3.0437   -1.6211    8.8344 H   0  0  0  0  0  0  0  0  0  0  0  0
    1.8565   -0.5394    6.8965 H   0  0  0  0  0  0  0  0  0  0  0  0
    3.3668   -0.5334    5.9787 H   0  0  0  0  0  0  0  0  0  0  0  0
    4.4732    0.9057    7.8189 H   0  0  0  0  0  0  0  0  0  0  0  0
    2.9639    0.8941    8.7381 H   0  0  0  0  0  0  0  0  0  0  0  0
    0.3851   -4.5375    4.9925 H   0  0  0  0  0  0  0  0  0  0  0  0
    2.1126   -4.8077    4.6298 H   0  0  0  0  0  0  0  0  0  0  0  0
    3.4465   -3.0468    6.0670 H   0  0  0  0  0  0  0  0  0  0  0  0
    1.9291   -3.0549    7.0148 H   0  0  0  0  0  0  0  0  0  0  0  0
    1.3447   -1.3308    0.6298 H   0  0  0  0  0  0  0  0  0  0  0  0
    1.4698   -1.7318    2.2400 H   0  0  0  0  0  0  0  0  0  0  0  0
  1  2  1  0  0  0  0
  1  3  1  0  0  0  0
  1 20  1  0  0  0  0
  1 21  1  0  0  0  0
  2  4  1  0  0  0  0
  2 22  1  0  0  0  0
  2 23  1  0  0  0  0
  3 13  1  0  0  0  0
  3 24  1  0  0  0  0
  3 25  1  0  0  0  0
  4  5  1  0  0  0  0
  4 13  1  0  0  0  0
  4 26  1  0  0  0  0
  5  6  1  0  0  0  0
  5 27  1  0  0  0  0
  5 28  1  0  0  0  0
  6 10  1  0  0  0  0
  6 29  1  0  0  0  0
  6 30  1  0  0  0  0
  7  8  1  0  0  0  0
  7  9  1  0  0  0  0
  7 31  1  0  0  0  0
  7 32  1  0  0  0  0
  8 11  1  0  0  0  0
  8 33  1  0  0  0  0
  8 34  1  0  0  0  0
  9 12  1  0  0  0  0
  9 35  1  0  0  0  0
  9 36  1  0  0  0  0
 10 19  1  0  0  0  0
 10 37  1  0  0  0  0
 10 38  1  0  0  0  0
 11 19  1  0  0  0  0
 11 39  1  0  0  0  0
 11 40  1  0  0  0  0
 12 16  1  0  0  0  0
 12 17  1  0  0  0  0
 12 18  1  0  0  0  0
 13 41  1  0  0  0  0
 13 42  1  0  0  0  0
 14 19  2  0  0  0  0
 15 19  2  0  0  0  0
M  CHG  1  13   1
M  END
$$$$
