38
0 1 C18H18O2
C                     0.542941289840    -6.364757547650    -4.466710909209
C                    -0.251999124944    -6.613818008666    -3.317183260342
C                     1.333510849033    -5.236142405346    -4.533178900686
C                    -0.240307690031    -5.729439892978    -2.258591577108
C                     2.169668299954    -3.133686082985    -3.486914908584
C                     2.175460398529    -2.251341526524    -2.430760065238
C                     0.598307228105    -3.625647583371    -1.225637524294
C                     1.365213823974    -4.305895838757    -3.458310345589
C                     0.562853672641    -4.556109509209    -2.299163112299
C                     1.377438812394    -2.485412873711    -1.275404693585
C                     0.917014247014     0.688454449813    -1.318698453934
C                    -1.852304682062     0.535883478753    -0.136103092684
C                    -1.162927839328     0.955284877359     1.178849268150
C                    -1.047276821407    -0.689286776773    -0.591552598517
C                     1.296220064379     1.726413148471     0.716335198928
C                     0.333509158555     0.568221651558     1.017298429705
C                     0.405407476607    -0.304003237433    -0.265421016963
C                     1.376852764508    -1.505894717580    -0.123366707408
O                     0.901363381208     0.561852929743    -2.520705003666
O                     1.414919460539     1.810021136884    -0.722603985627
H                     0.524927907085    -7.068544161003    -5.294877281530
H                    -0.871062678250    -7.506344241583    -3.275745806023
H                     1.942995749773    -5.043399851230    -5.413305532579
H                    -0.849499347219    -5.920323098295    -1.377602587449
H                     2.783354539656    -2.937270345805    -4.363099863480
H                     2.786535169864    -1.355290454790    -2.481730842803
H                    -0.007767204889    -3.829115151936    -0.344262483984
H                    -2.916855482783     0.322096181981    -0.004447252904
H                    -1.770083275527     1.332376129049    -0.884543144894
H                    -1.296452997604     2.017113325920     1.408937609599
H                    -1.591295500173     0.391840219609     2.014615837032
H                    -1.327640876739    -1.570763112184    -0.002135970893
H                    -1.171718652862    -0.937535945623    -1.647475736330
H                     0.936418603818     2.695921070978     1.068758463352
H                     2.296923766638     1.550689949471     1.124598745485
H                     0.684975887544     0.023292978494     1.897400015641
H                     1.085224362606    -2.033258623161     0.791467874551
H                     2.392548782118    -1.127337433346     0.045333193443
