31   
torsion grid (-165,)
C        2.0189088934   -0.0519328167   -0.2437809817
C        0.7924880683    0.6221791886   -0.1588776054
C        8.3439041711    4.0286377953    2.0337632130
C        9.0337766360    4.3032098499    0.8408917180
C        3.1922642042    0.6900376627   -0.3855490756
C        0.7452902110    2.0145615082   -0.1993908377
C        7.0053479339    3.6728694297    1.9806807812
C        8.3231014235    4.1986842020   -0.3512122656
C        3.1698083856    2.0902364803   -0.4170337254
C        1.9353357983    2.7527337129   -0.2939069285
C        6.3746514299    3.5962481507    0.7141944638
C        4.0092372108    4.1512402728   -1.4637379490
C        2.9356596396    4.9242450391   -0.7170598430
C        4.4158734919    2.9064984228   -0.6598628052
N        7.0274395704    3.8545434492   -0.4312703022
N        5.0347552703    3.2699509390    0.6238391012
O        1.8112458950    4.1125145482   -0.2985698790
H        2.0541401386   -1.1373502689   -0.2202464566
H       -0.1335190991    0.0591486510   -0.0733198610
H        8.8506918622    4.0928414833    2.9935834077
H       10.0813964504    4.5868908071    0.8392691532
H        4.1496053441    0.1827169422   -0.4896399878
H       -0.1972743282    2.5515104305   -0.1434265022
H        6.4431894750    3.4572724293    2.8860945038
H        8.8135258847    4.3996181545   -1.3031792765
H        3.6449492206    3.8281463319   -2.4454526506
H        4.8757067071    4.7982267142   -1.6187173532
H        3.3624417206    5.3715328831    0.1869717290
H        2.5093633306    5.7201957882   -1.3328789136
H        5.1347141747    2.3250076837   -1.2468216468
H        4.6353852525    2.8213669268    1.4376702856
31   
torsion grid (-150,)
C        1.9431158758   -0.0339530076   -0.3838431439
C        0.7614849943    0.6878667060   -0.1711329391
C        8.3227129813    4.1240337900    2.0574560665
C        9.0209549198    4.3892209658    0.8671760423
C        3.1518274665    0.6543671826   -0.5202704084
C        0.7869289350    2.0811005503   -0.0849853024
C        6.9946966508    3.7326974135    1.9951582379
C        8.3277144982    4.2390348478   -0.3302662271
C        3.2009135049    2.0479045389   -0.4185885330
C        2.0107178248    2.7567695670   -0.1752591853
C        6.3811052718    3.6104113157    0.7234364266
C        4.0400540827    4.0790963014   -1.4885254800
C        3.0056018353    4.9024564870   -0.7312771225
C        4.4540514209    2.8522748946   -0.6579548679
N        7.0424536226    3.8596685599   -0.4195276092
N        5.0531113722    3.2466554657    0.6246982590
O        2.0001303094    4.1161958406   -0.0360701536
H        1.9183119256   -1.1172294768   -0.4608157345
H       -0.1877994254    0.1648020862   -0.0870980845
H        8.8148114043    4.2232408799    3.0219600132
H       10.0609206697    4.6997769919    0.8716927702
H        4.0725994294    0.1093359350   -0.7188857713
H       -0.1210091143    2.6573867847    0.0681203370
H        6.4265192178    3.5235994034    2.8982923603
H        8.8251455067    4.4309912596   -1.2804703075
H        3.6363876945    3.7214005320   -2.4419162323
H        4.9094135621    4.7053677030   -1.7015870298
H        3.4950740815    5.5013787782    0.0412814262
H        2.4644444065    5.5747528953   -1.4042487877
H        5.1818279315    2.2637989743   -1.2264322910
H        4.6469069460    2.8183934996    1.4457882837
31   
torsion grid (-135,)
C        1.7401042227    0.0161203022   -0.6176149299
C        0.6618964882    0.7926955551   -0.1773170011
C        8.2088814437    4.4266792131    2.0094320762
C        8.9764701249    4.4917923840    0.8341930358
C        3.0036963443    0.6005938850   -0.7633939778
C        0.8387944283    2.1477054011    0.1229107878
C        6.9209355684    3.9179148088    1.9552721893
C        8.3879961169    4.0368193682   -0.3424840465
C        3.2000373386    1.9464397659   -0.4523252992
C        2.1130042985    2.7064840259    0.0078446509
C        6.4162645435    3.4790314899    0.7053878298
C        4.1132546118    4.0120260758   -1.3878926024
C        3.1100170099    4.8260361894   -0.5571600269
C        4.4899062167    2.7007989544   -0.6635353708
N        7.1409558680    3.5462311135   -0.4253667654
N        5.1552791139    2.9278286557    0.6227055824
O        2.3162662395    4.0216823104    0.3587608217
H        1.5948845066   -1.0339417908   -0.8557104552
H       -0.3241260648    0.3461934935   -0.0774266643
H        8.6171180677    4.7698834026    2.9570071643
H        9.9892042073    4.8821338694    0.8337320463
H        3.8432372445    0.0098254853   -1.1234226625
H        0.0135192980    2.7687037159    0.4593711627
H        6.3050135730    3.8469005616    2.8485045671
H        8.9409888978    4.0686923945   -1.2808417056
H        3.6834667745    3.7431199753   -2.3580860114
H        5.0092381662    4.6088859927   -1.5752595641
H        3.6248613927    5.5413406948    0.0881010780
H        2.4194197414    5.3792394336   -1.2031799558
H        5.1756011440    2.1296418197   -1.2914301121
H        4.5409457617    3.0944969698    1.4095317571
31   
torsion grid (-120,)
C        1.7578573624    0.0413525809   -0.6882986886
C        0.6854313108    0.7920634251   -0.1932328460
C        8.2606372078    4.4139419790    1.9947201980
C        9.0389693138    4.3944389044    0.8249068589
C        3.0240814681    0.6269534721   -0.8189119502
C        0.8698149989    2.1277773727    0.1868796912
C        6.9536210486    3.9552260288    1.9519255325
C        8.4409717316    3.9109978842   -0.3354599215
C        3.2255851845    1.9503647749   -0.4285535184
C        2.1493329093    2.6733377566    0.1054407906
C        6.4403946423    3.4805022794    0.7188120485
C        4.1042445940    4.0618508477   -1.3502531847
C        2.9290763378    4.7688277699   -0.6311174999
C        4.4949342981    2.7435219030   -0.6331121423
N        7.1752712504    3.4687382440   -0.4070497295
N        5.1577392378    2.9743087557    0.6540987547
O        2.3972785829    3.9845080665    0.4699216100
H        1.6046436441   -0.9919456278   -0.9874539136
H       -0.3012637147    0.3427977799   -0.1155160382
H        8.6756313714    4.7831114370    2.9295344639
H       10.0667938269    4.7431109383    0.8161306500
H        3.8525931385    0.0565822979   -1.2330604977
H        0.0496542297    2.7326723166    0.5630270029
H        6.3289484755    3.9486225961    2.8418212665
H        9.0012223839    3.8787362616   -1.2695237569
H        3.8204063025    3.8122317005   -2.3774055207
H        4.9807529344    4.7119645273   -1.4024480074
H        3.2431297572    5.7053864014   -0.1673722823
H        2.1085100064    4.9823689613   -1.3254824086
H        5.1977085200    2.1964626772   -1.2617723426
H        4.5376385301    3.2539500293    1.4044684135
31   
torsion grid (-105,)
C        1.7291781860    0.0283513323   -0.7339323981
C        0.6485996269    0.7967339445   -0.2865318510
C        8.3018737023    4.4332079732    1.9550753927
C        9.0572663438    4.3691324845    0.7718185803
C        3.0162480483    0.5812935070   -0.7730559276
C        0.8487753856    2.1092233153    0.1621916189
C        6.9924516801    3.9795428342    1.9527163526
C        8.4348165624    3.8485795422   -0.3591965257
C        3.2267025257    1.8798678227   -0.3111090712
C        2.1518732700    2.5979478652    0.2348299452
C        6.4527383507    3.4649901838    0.7471336707
C        4.0470775845    4.0018526759   -1.2762894291
C        2.8233326418    4.6641751420   -0.5845809132
C        4.4789911119    2.6971078118   -0.5394539381
N        7.1659037178    3.4108698322   -0.3912857456
N        5.1657021024    2.9642294395    0.7267668970
O        2.4401883389    3.9069316789    0.5913943061
H        1.5632904106   -0.9855273148   -1.0879334570
H       -0.3566046043    0.3839083763   -0.3078224089
H        8.7364069337    4.8324181526    2.8684367592
H       10.0862301397    4.7121597256    0.7311245537
H        3.8450272288    0.0154905478   -1.1928435229
H        0.0201193571    2.7287123976    0.4945764957
H        6.3850622258    4.0062201033    2.8540966508
H        8.9767468154    3.7810177068   -1.3021607103
H        3.8004613587    3.7423472627   -2.3106464734
H        4.9021876834    4.6813554775   -1.3068466883
H        3.0531405566    5.6644235758   -0.2137196289
H        1.9601317290    4.7244466165   -1.2566950151
H        5.1816105920    2.1569866756   -1.1735429562
H        4.5584858826    3.2935031884    1.4676221579
31   
torsion grid (-90,)
C        1.7105022262    0.0574776188   -0.8086863832
C        0.6290077829    0.8682885250   -0.4466929505
C        8.3444171729    4.4949135198    1.8989345158
C        9.0756471780    4.3936264717    0.7031280699
C        3.0166373294    0.5585290637   -0.7266975193
C        0.8480688532    2.1543404922    0.0655933480
C        7.0367374988    4.0381437145    1.9390912886
C        8.4314169214    3.8343373934   -0.3967971912
C        3.2366428930    1.8309109735   -0.1999253292
C        2.1569044019    2.5584944320    0.3317506581
C        6.4738838850    3.4824158365    0.7625520359
C        4.0022355613    3.9419551864   -1.2265177354
C        2.7872737148    4.6093294935   -0.5149422890
C        4.4777685595    2.6640162502   -0.4528089995
N        7.1635865038    3.3924860054   -0.3880606807
N        5.1883485242    2.9786552299    0.7863703864
O        2.5011751338    3.8575287542    0.6878880870
H        1.5327210336   -0.9351283195   -1.2137420996
H       -0.3881694812    0.5143456691   -0.5923603829
H        8.7964665360    4.9251846976    2.7894144286
H       10.1024520750    4.7377247698    0.6297939358
H        3.8496039756   -0.0130717550   -1.1300403216
H        0.0173999085    2.8059847305    0.3254018399
H        6.4480684649    4.0928701499    2.8515698622
H        8.9539373083    3.7370149577   -1.3480893692
H        3.7329310716    3.6411621133   -2.2438987658
H        4.8466453296    4.6312305094   -1.3035778153
H        3.0124204583    5.6224981163   -0.1772850651
H        1.8941650318    4.6303913360   -1.1484058835
H        5.1762065026    2.1208122861   -1.0888430986
H        4.5939580929    3.3327356701    1.5258455305
31   
torsion grid (-75,)
C        1.7092730481    0.0853997428   -0.8649048459
C        0.6370415159    0.9480519534   -0.6088360924
C        8.3762635646    4.5521479517    1.8570641358
C        9.0799470694    4.4244147535    0.6473301478
C        3.0224949829    0.5249570298   -0.6516034980
C        0.8662068607    2.2100027664   -0.0438177522
C        7.0745310479    4.0844095745    1.9403956294
C        8.4166246798    3.8287273415   -0.4217313012
C        3.2426861801    1.7760205684   -0.0729246647
C        2.1481511037    2.5173576621    0.4208445439
C        6.4902165786    3.4909643675    0.7930104273
C        3.9654510413    3.8806423290   -1.1567955669
C        2.7580701910    4.5601627098   -0.4322130849
C        4.4733806850    2.6243163278   -0.3498971316
N        7.1538668574    3.3755289105   -0.3706565665
N        5.2103891662    2.9769984705    0.8611593068
O        2.5532365668    3.8033074971    0.7792958924
H        1.5267153319   -0.8883323406   -1.3117471274
H       -0.3730359026    0.6581082970   -0.8855672768
H        8.8446757112    5.0112902728    2.7243803655
H       10.1012514045    4.7760016983    0.5404382782
H        3.8628042303   -0.0586963737   -1.0214506321
H        0.0436239856    2.8997718758    0.1318700186
H        6.5065368063    4.1589671684    2.8645011254
H        8.9179866766    3.7099897124   -1.3819654083
H        3.6839153454    3.5483154711   -2.1609488047
H        4.8043199485    4.5722927586   -1.2660489663
H        2.9840762323    5.5797780344   -0.1144529675
H        1.8452453902    4.5603080775   -1.0353343469
H        5.1634069561    2.0751097922   -0.9902545266
H        4.6293564921    3.3470469133    1.6030891393
31   
torsion grid (-60,)
C        1.7510388121    0.0720330019   -0.8978810383
C        0.6947210501    0.9809718433   -0.7739108371
C        8.4087361615    4.5783401927    1.8008435108
C        9.0810875680    4.4251391835    0.5762958885
C        3.0466317922    0.4798325268   -0.5537125473
C        0.9056153180    2.2360933153   -0.1853274329
C        7.1091812668    4.1138915945    1.9254247747
C        8.3895180869    3.8086902709   -0.4627221637
C        3.2314813243    1.7274924987    0.0438866050
C        2.1119057550    2.4840807725    0.4834175908
C        6.4937344473    3.4979216111    0.8061766322
C        3.9019112255    3.8296906312   -1.0968446616
C        2.7340351317    4.5457390560   -0.3300442925
C        4.4488534718    2.5986306731   -0.2607104590
N        7.1281360362    3.3582303776   -0.3713002077
N        5.2153458966    2.9901857842    0.9170267530
O        2.5811935531    3.7456996837    0.8545846796
H        1.5853680154   -0.8956357496   -1.3642206093
H       -0.2845580831    0.7379698606   -1.1771003414
H        8.8992323209    5.0540957036    2.6467700197
H       10.0996460216    4.7729249423    0.4360322418
H        3.9072319265   -0.1065317961   -0.8686430402
H        0.0849950683    2.9485023672   -0.1194080793
H        6.5651666013    4.2078056393    2.8621116070
H        8.8661820226    3.6696621277   -1.4327833819
H        3.5685896840    3.4534290312   -2.0691927288
H        4.7369310960    4.5106055587   -1.2792324696
H        3.0097567705    5.5458995443    0.0099078782
H        1.8030673346    4.5950685176   -0.8999624941
H        5.1305822002    2.0471116375   -0.9082174519
H        4.6541109287    3.3652741064    1.6708585561
31   
torsion grid (60,)
C        1.8992583823    0.6773836953    0.4436658722
C        0.8005710859    1.3832414433   -0.0574124153
C        8.7840538764    3.9700939453    1.3205611576
C        9.1883146434    4.6525682959    0.1617259420
C        3.1945434788    1.0926584964    0.1056793074
C        0.9901010951    2.3986038566   -1.0055783112
C        7.5327650111    3.3739784258    1.3615121187
C        8.2885873873    4.6977324858   -0.8999990332
C        3.3566376414    2.1111441374   -0.8374743417
C        2.2458893189    2.5505438994   -1.6104328751
C        6.6948105539    3.4788232763    0.2249928982
C        3.7287754942    4.5470594315   -0.4650544497
C        2.5957834023    4.8199667905   -1.5119635281
C        4.4564662836    3.1675410626   -0.7828052455
N        7.0685605632    4.1387508041   -0.8821278565
N        5.4562587793    2.8547758621    0.2239865077
O        2.6528321142    3.6561653720   -2.3487658582
H        1.7513885776   -0.1179272603    1.1697933430
H       -0.1994894171    1.1746522003    0.3125059808
H        9.4445171063    3.9033246362    2.1816459995
H       10.1600250593    5.1305331841    0.0881097619
H        4.0528854960    0.7016436749    0.6459671093
H        0.1336013503    2.9554524359   -1.3822219857
H        7.1977400015    2.8289874675    2.2409738167
H        8.5512173573    5.2170534837   -1.8210429851
H        4.4882623806    5.3327216206   -0.4851938065
H        3.3313183069    4.4887589215    0.5541598457
H        1.6065948239    4.9472867712   -1.0642798689
H        2.8234217225    5.6719114568   -2.1555579336
H        4.9807622538    3.2739957665   -1.7300538991
H        5.0865862042    2.6668628050    1.1486233733
31   
torsion grid (75,)
C        1.8416982208    0.6612746547    0.4410924561
C        0.7413970719    1.2785553966   -0.1639153732
C        8.8134268952    3.9560656761    1.3010652421
C        9.2105365741    4.6020503006    0.1191104182
C        3.1341789641    1.1454838270    0.1966445398
C        0.9355319970    2.3020404786   -1.1014955166
C        7.5510861387    3.3871378198    1.3762194857
C        8.2951421166    4.6412308052   -0.9294194909
C        3.3200124769    2.1671757928   -0.7386264258
C        2.2331469180    2.5751081497   -1.5447608191
C        6.6967221154    3.4824106311    0.2513184237
C        3.7478493241    4.5908081039   -0.4299808630
C        2.5778296717    4.8402741588   -1.4322066234
C        4.4362488054    3.1962905593   -0.7127200863
N        7.0646927981    4.1078013817   -0.8775126525
N        5.4459629349    2.8835349603    0.2844788185
O        2.5693617694    3.6915311483   -2.2994688001
H        1.6882967788   -0.1390840818    1.1604264185
H       -0.2679659131    0.9876638156    0.1141696041
H        9.4870284724    3.8962254557    2.1524403862
H       10.1902792201    5.0580685129    0.0181927240
H        3.9738684097    0.7764988943    0.7799475754
H        0.0882883049    2.8004962896   -1.5676226152
H        7.2198895969    2.8698799797    2.2736830058
H        8.5529279793    5.1331505234   -1.8667292851
H        4.5155813553    5.3640545603   -0.5158240638
H        3.3892106190    4.5861505068    0.6052334337
H        1.6083038814    4.9542988733   -0.9369471714
H        2.7636244526    5.7017035486   -2.0765064429
H        4.9443092269    3.2629557653   -1.6735147234
H        5.0869241684    2.7277052107    1.2192177519
31   
torsion grid (90,)
C        1.8455696023    0.6059439017    0.3880552596
C        0.7376026715    1.1350305533   -0.2814005813
C        8.8270404806    3.9572779269    1.2366564531
C        9.2271259088    4.5483258152    0.0273601060
C        3.1105205047    1.1856212923    0.2163885647
C        0.9013512863    2.1899100840   -1.1896056627
C        7.5518760152    3.4231106985    1.3448212503
C        8.3015838446    4.5705257866   -1.0128094242
C        3.2725433157    2.2366689917   -0.6881707382
C        2.1916035770    2.6164628924   -1.5077369441
C        6.6882240908    3.4970089873    0.2254980751
C        3.7800891203    4.6587604361   -0.4825424315
C        2.5653876402    4.8856703720   -1.4265752413
C        4.4101778470    3.2360310793   -0.7044120219
N        7.0591297455    4.0700970647   -0.9296977603
N        5.4239978744    2.9300323527    0.2917888604
O        2.4559815949    3.7316315387   -2.2844797599
H        1.7166901075   -0.2183237659    1.0846507058
H       -0.2571120918    0.7451556457   -0.0823886236
H        9.5077840878    3.9128250903    2.0832899792
H       10.2164834081    4.9760334395   -0.1002454579
H        3.9518064824    0.8439385266    0.8133410141
H        0.0498513547    2.6215690338   -1.7101201676
H        7.2176062699    2.9483835713    2.2643654388
H        8.5614062707    5.0204555902   -1.9703965646
H        4.5617261566    5.4026994878   -0.6560986127
H        3.4742971247    4.7328484204    0.5670044650
H        1.6289559087    5.0226632779   -0.8745126654
H        2.7184010193    5.7350385129   -2.0948077410
H        4.9065431441    3.2397706123   -1.6750930096
H        5.0706285772    2.8158180547    1.2347148454
31   
torsion grid (105,)
C        1.8577585347    0.5597709280    0.3606549277
C        0.7555104680    1.0100189229   -0.3726064363
C        8.8405375497    3.9432572192    1.2061831654
C        9.2389569253    4.4867111484   -0.0257676478
C        3.0882436150    1.2246621772    0.2625979293
C        0.8867506757    2.0974343905   -1.2468215836
C        7.5529090046    3.4483089445    1.3479849128
C        8.2996212030    4.5039787466   -1.0535384982
C        3.2278336132    2.3058330440   -0.6089639240
C        2.1461659981    2.6651799697   -1.4316301871
C        6.6754992875    3.5128389032    0.2389078429
C        3.7933596084    4.7214373372   -0.4837061818
C        2.5651113046    4.9448393239   -1.4041574104
C        4.3795786449    3.2831949903   -0.6554823535
N        7.0452300772    4.0410271553   -0.9378763143
N        5.3974067426    2.9829824600    0.3388208588
O        2.3475140403    3.7768954468   -2.2267930487
H        1.7530410709   -0.2877576256    1.0328664168
H       -0.2110890458    0.5272496378   -0.2547992274
H        9.5321714684    3.9048806401    2.0442369762
H       10.2377734738    4.8825346038   -0.1797321322
H        3.9300679536    0.9050034006    0.8706587738
H        0.0422627938    2.4695485163   -1.8207282731
H        7.2193334931    3.0102484709    2.2857737063
H        8.5577361111    4.9178452117   -2.0277142137
H        4.5877979934    5.4396209622   -0.7020132021
H        3.5075828386    4.8478615076    0.5665017026
H        1.6558050817    5.1449474227   -0.8256826215
H        2.7258890734    5.7634486738   -2.1077625008
H        4.8648930499    3.2383007442   -1.6319276606
H        5.0523197535    2.9080908012    1.2887623439
31   
torsion grid (120,)
C        1.8867775441    0.5484174329    0.3787060429
C        0.7774380565    0.9657004313   -0.3630953505
C        8.8268320168    3.9760865921    1.2775734457
C        9.2229849586    4.5115789419    0.0413363775
C        3.0829221373    1.2774254905    0.3259587803
C        0.8620359738    2.0999047296   -1.1806760465
C        7.5340640205    3.4981214096    1.4299526171
C        8.2765757991    4.5387872641   -0.9796037000
C        3.1810400294    2.4076602591   -0.4871781782
C        2.0773169672    2.7756074963   -1.2745694475
C        6.6494805247    3.5713431638    0.3271026576
C        3.7883720952    4.8068540449   -0.3966297298
C        2.6023297168    5.0694435215   -1.3540706820
C        4.3463257965    3.3654313365   -0.5550193579
N        7.0170627146    4.0924500276   -0.8537115964
N        5.3658134698    3.0585531336    0.4365519734
O        2.2183024655    3.8812064529   -2.0842434996
H        1.8196999770   -0.3359755783    1.0066706557
H       -0.1575667508    0.4149117886   -0.3016240706
H        9.5241309517    3.9306750369    2.1105556678
H       10.2256997585    4.8939821940   -0.1209173263
H        3.9413641813    0.9574389081    0.9098944348
H        0.0147271024    2.4432638973   -1.7675467857
H        7.2017337659    3.0664544968    2.3711214823
H        8.5328971028    4.9470593130   -1.9566043878
H        4.5992164606    5.5168246112   -0.5786603816
H        3.4659002998    4.9268347542    0.6435755934
H        1.7267174578    5.4400413451   -0.8080829968
H        2.8630473416    5.7929689529   -2.1283947101
H        4.8242195576    3.2935775906   -1.5346890139
H        5.0238897851    2.9862690914    1.3877941374
31   
torsion grid (135,)
C        2.2577527449    0.1453248836    0.2128010436
C        0.9661614747    0.6752062861    0.0906167149
C        8.4120160664    3.6878806563    1.9279563618
C        9.1036301995    4.0821824186    0.7700061848
C        3.3592601591    0.9279956395   -0.1376350582
C        0.7841666807    1.9599237164   -0.4215471386
C        7.0575066176    3.4056270191    1.8482988726
C        8.3775916234    4.1671818547   -0.4144867289
C        3.1985734840    2.2245332375   -0.6494387371
C        1.8911212698    2.6940603503   -0.8663794401
C        6.4115888038    3.5228803227    0.5921204140
C        3.9999172287    4.5272824547   -1.3717216835
C        2.6161950306    4.9153903451   -0.8661030871
C        4.4007632527    3.1399157550   -0.8293904520
N        7.0659974445    3.8986044151   -0.5196830570
N        5.0594636223    3.2715300211    0.4801491141
O        1.6727606769    3.9516233725   -1.3754805800
H        2.4044611209   -0.8575830132    0.6040723346
H        0.1042708549    0.0949910678    0.4098824446
H        8.9295240026    3.6027910699    2.8804608006
H       10.1637180160    4.3141361437    0.7891868958
H        4.3662905415    0.5395779587    0.0035803210
H       -0.2047438545    2.3978170874   -0.5228315921
H        6.4935614953    3.1007353851    2.7266126988
H        8.8684968686    4.4676593772   -1.3395709907
H        3.9642552981    4.4975689167   -2.4661768516
H        4.7602932514    5.2556925441   -1.0828461285
H        2.5685281842    4.9308837159    0.2305564947
H        2.2909343617    5.8827580617   -1.2536528873
H        5.1197592998    2.6907551837   -1.5228905660
H        4.6304406585    2.7754442819    1.2494103033
31   
torsion grid (150,)
C        2.2249444480    0.0802359600    0.0984536026
C        0.9383743227    0.6318724722    0.0172479583
C        8.4066012532    3.7684153980    1.9301882944
C        9.1007149768    4.1089911858    0.7567954544
C        3.3297655417    0.8780437681   -0.1980140273
C        0.7677483299    1.9581459829   -0.3746433151
C        7.0520215235    3.4834800091    1.8617983824
C        8.3783258461    4.1405683904   -0.4325384096
C        3.1819906792    2.2158386949   -0.5944210401
C        1.8821365506    2.7370905102   -0.7189172294
C        6.4100519512    3.5446631354    0.5997585409
C        4.0111145068    4.4430533165   -1.4303848195
C        2.7156289910    4.9434762878   -0.8094343309
C        4.4019132764    3.0928723510   -0.8069184200
N        7.0667577655    3.8680949164   -0.5271303069
N        5.0575837347    3.2896458768    0.4957680414
O        1.6475857979    4.0276775824   -1.1172961415
H        2.3616491755   -0.9545513258    0.3996538244
H        0.0689334886    0.0306286356    0.2705280981
H        8.9225096799    3.7265199735    2.8864137248
H       10.1609392750    4.3408249405    0.7678593534
H        4.3342822765    0.4660978920   -0.1187521510
H       -0.2188924137    2.4079264136   -0.4395485997
H        6.4860976970    3.2189034153    2.7518301872
H        8.8716256910    4.3978681308   -1.3693313279
H        3.8600565857    4.3199461454   -2.5088632946
H        4.8246322959    5.1566417656   -1.2843752461
H        2.8087471033    5.0367001416    0.2807523257
H        2.4021608580    5.9035464416   -1.2233928943
H        5.1134080548    2.5922085197   -1.4722128755
H        4.6274455259    2.8255639306    1.2842161968
31   
torsion grid (165,)
C        2.1691047518    0.0450002539   -0.0009759250
C        0.8924215141    0.6216733031   -0.0731762095
C        8.3924074193    3.8667987861    1.9748105044
C        9.0871671122    4.1703264121    0.7918584288
C        3.2889264389    0.8450091332   -0.2227830272
C        0.7477806414    1.9765145261   -0.3601123144
C        7.0386635017    3.5752139340    1.9143444719
C        8.3652744113    4.1592171402   -0.3981522594
C        3.1693246239    2.2126444231   -0.5132522550
C        1.8816946869    2.7740284081   -0.5816615671
C        6.3977303070    3.5914730803    0.6507978111
C        4.0131357964    4.3703511764   -1.4461614496
C        2.7922893295    4.9675583263   -0.7679951196
C        4.4011367243    3.0630534282   -0.7423032143
N        7.0548747430    3.8786446552   -0.4851818416
N        5.0436666576    3.3306884634    0.5549735874
O        1.6524645223    4.0914152333   -0.8726542932
H        2.2844865842   -1.0125474843    0.2188212341
H        0.0080288660    0.0129467010    0.0969889575
H        8.9071107066    3.8587660946    2.9325404378
H       10.1466137902    4.4060400622    0.7960384302
H        4.2855697104    0.4088970183   -0.1814353118
H       -0.2319846915    2.4419059534   -0.4186169017
H        6.4725670783    3.3393953000    2.8122694145
H        8.8586227732    4.3865170938   -1.3426303998
H        3.7838703748    4.1645550548   -2.4981034293
H        4.8528767554    5.0676015613   -1.4128710004
H        2.9981258720    5.1537494479    0.2941859112
H        2.4755729663    5.9020079064   -1.2348007281
H        5.1131387209    2.5206738644   -1.3735460441
H        4.6286249062    2.8632064412    1.3500261264
31   
torsion grid (180,)
C        2.1103862386   -0.0038143006   -0.1320823473
C        0.8525216736    0.6165532565   -0.1543340245
C        8.3708424514    3.9533369163    2.0278290837
C        9.0689926155    4.2334353158    0.8411220642
C        3.2540959775    0.7769637058   -0.2938254764
C        0.7494353886    1.9950611191   -0.3215633432
C        7.0224901054    3.6378572339    1.9664969311
C        8.3569902841    4.1756060521   -0.3534506583
C        3.1754252268    2.1675220991   -0.4588054843
C        1.9083849920    2.7781299198   -0.4497704176
C        6.3916964283    3.6068696029    0.6982686484
C        4.0256582240    4.2696637743   -1.4567065404
C        2.8796226970    4.9622678177   -0.7415638698
C        4.4164331367    2.9983181588   -0.6916566672
N        7.0520598712    3.8709298192   -0.4412341319
N        5.0419534478    3.3222234077    0.6006997619
O        1.7131323986    4.1214263903   -0.6061667023
H        2.1922883330   -1.0797773601   -0.0076588459
H       -0.0512349128    0.0218550667   -0.0478652683
H        8.8785543924    3.9820057289    2.9888823587
H       10.1243965126    4.4866044499    0.8459313601
H        4.2363313809    0.3079078661   -0.3099501163
H       -0.2164060855    2.4915554145   -0.3451966983
H        6.4532679839    3.4192948643    2.8667998431
H        8.8538763852    4.3830167349   -1.3006420149
H        3.7286104024    3.9971231643   -2.4759817185
H        4.8836541516    4.9424546461   -1.5211707603
H        3.1974894295    5.2683925877    0.2626805582
H        2.5319085938    5.8445629885   -1.2827775648
H        5.1335448039    2.4302326096   -1.2936944524
H        4.6341057795    2.8602999312    1.4029158607
