25   
torsion grid (-165,)
C        0.1108534269   -5.3569423580    2.6340973216
C       -1.0295995468   -4.5623157609    2.4898302378
C        0.1891131283   -5.6161526600    0.2098379137
C       -0.9491642680   -4.8141475504    0.0616840878
C        0.6896767073   -5.8729231808    1.4789652700
C       -1.5509448217   -4.3143540113    1.2270724132
C       -1.3137158351   -0.5478029968   -0.6203388293
C       -0.0848452783   -1.2033172985    0.0234866614
C       -0.7617544980   -2.3664176281   -1.8672955556
C       -1.9046139444   -3.3760143783   -1.6516509515
O       -1.2906377507   -1.0561015211   -1.9621854951
O        0.1457652556   -2.3757654677   -0.7724146196
O       -1.4339688872   -4.6583274896   -1.2079798294
F        1.7980813777   -6.6502649209    1.5920054642
F       -2.6820355516   -3.5518307362    1.1387069411
H        0.5348549656   -5.5770224062    3.6078108157
H       -1.5373415018   -4.1442404008    3.3537050502
H        0.6788703389   -6.0133072950   -0.6725594039
H       -2.2405835198   -0.8356482612   -0.1097779871
H       -1.2545299905    0.5405636066   -0.6757165002
H        0.8026320375   -0.5640060495   -0.0304962963
H       -0.2587886881   -1.5003829089    1.0622903685
H       -0.2038937403   -2.5818624722   -2.7832068584
H       -2.3983998034   -3.5708282769   -2.6057355295
H       -2.6380777792   -2.9647793163   -0.9583771563
25   
torsion grid (-150,)
C       -0.0052993524   -5.1226945649    2.6572159761
C       -1.2565614356   -4.5363573014    2.4535163552
C        0.2483473742   -5.3457174170    0.2404545770
C       -1.0021617600   -4.7506120062    0.0325642747
C        0.7159123421   -5.5223182543    1.5349760407
C       -1.7436272395   -4.3714754482    1.1620642263
C       -1.1276067979   -0.7829330523   -0.3500558408
C        0.2023920865   -1.5039406693   -0.0966109566
C       -0.8670379516   -2.3378428855   -1.9778788827
C       -1.9732739356   -3.3917755786   -1.7071334731
O       -1.3720925341   -1.0355090221   -1.7409825154
O        0.2473181868   -2.5159608567   -1.1147319188
O       -1.4573084843   -4.6527794696   -1.2539927842
F        1.9352627101   -6.0943122951    1.7116876547
F       -2.9870317486   -3.8310391410    1.0063441302
H        0.3985936860   -5.2752912531    3.6522861885
H       -1.8756803247   -4.2240511996    3.2889392752
H        0.8492864515   -5.6326627368   -0.6150609749
H       -1.9346871618   -1.1950044566    0.2688993222
H       -1.0805736826    0.2982227478   -0.2102845406
H        1.0642450814   -0.8404215176   -0.2234350791
H        0.2462089369   -1.9805303581    0.8875454473
H       -0.5153951518   -2.3812802270   -3.0122552234
H       -2.4983590106   -3.6167365183   -2.6374421515
H       -2.6955226022   -2.9867829522   -0.9977282121
25   
torsion grid (-135,)
C       -2.8130435641   -2.1746256207   -0.0253711551
C       -2.9173463387   -2.6855513040   -1.3262884165
C       -1.8338292731   -0.1292509253   -0.9428321027
C       -1.9361793381   -0.6443544421   -2.2410836652
C       -2.2724474825   -0.9064554334    0.1266281515
C       -2.4853126241   -1.9287088355   -2.4026481151
C        1.8656622875    1.7048622385   -1.1099155531
C        1.6089578956    0.1958049462   -1.1147257863
C        0.5268108967    1.2388101612   -2.8775495475
C       -0.9724037641    1.2875409993   -3.2697312176
O        0.7566632205    2.2069063052   -1.8662340589
O        0.9197472349   -0.0239732134   -2.3551101827
O       -1.5700751972    0.0021139549   -3.3818617921
F       -2.1452192399   -0.3865568125    1.3787621813
F       -2.5907095720   -2.4320485589   -3.6557437532
H       -3.1372934737   -2.7426551661    0.8397010383
H       -3.3321248019   -3.6713970322   -1.5122961492
H       -1.4042145535    0.8440592368   -0.7407442764
H        1.8343542542    2.1606670349   -0.1189130851
H        2.8129538365    1.9583702104   -1.6050160015
H        2.5262416962   -0.3991017891   -1.1101057743
H        0.9659857141   -0.1143817213   -0.2829824636
H        1.1609953188    1.4539316810   -3.7513884681
H       -1.0747675312    1.7303511860   -4.2618842433
H       -1.5104041416    1.9182994962   -2.5556151530
25   
torsion grid (-120,)
C       -2.7494353409   -2.0635436043    0.0315851017
C       -2.8510990963   -2.6323858302   -1.2456955094
C       -1.8019987941   -0.0473007697   -0.9797358699
C       -1.9020300593   -0.6213015798   -2.2530352901
C       -2.2262875771   -0.7826138339    0.1251632110
C       -2.4338134925   -1.9193892193   -2.3570393236
C        1.7133750459    1.5600688165   -0.9780527620
C        1.6150095996    0.0581474543   -1.2605317765
C        0.5106769409    1.2896866123   -2.8808157543
C       -0.9610468563    1.2733448128   -3.3732217121
O        0.5993842753    2.0879523157   -1.7084935454
O        0.9974717857   -0.0030979283   -2.5567735711
O       -1.5454396469   -0.0218111011   -3.4207926750
F       -2.1019866800   -0.2066708916    1.3528296977
F       -2.5374704610   -2.4788507112   -3.5860253329
H       -3.0630661519   -2.5974207620    0.9219896819
H       -3.2527952130   -3.6311240341   -1.3858390794
H       -1.3810745491    0.9390689430   -0.8271461189
H        1.5864504145    1.8248936301    0.0729851921
H        2.6528568674    1.9852659517   -1.3565742642
H        2.5888352152   -0.4365866001   -1.3087139975
H        0.9754421835   -0.4544742064   -0.5339346767
H        1.1611036567    1.7180919846   -3.6595559869
H       -1.0026487453    1.6234161806   -4.4055389192
H       -1.5499440814    1.9568292115   -2.7521385391
25   
torsion grid (-105,)
C       -2.7500570893   -2.0008723488    0.0847199136
C       -2.7772242062   -2.6185453236   -1.1736185199
C       -1.8284762933    0.0108210390   -0.9605878802
C       -1.8544159407   -0.6114116679   -2.2146035390
C       -2.2753751368   -0.6995591729    0.1521138965
C       -2.3377231709   -1.9312369735   -2.2925121457
C        1.5939495163    1.3993473531   -0.8802373708
C        1.6347996639   -0.0119587982   -1.4635996997
C        0.5059356067    1.4178297701   -2.8910443956
C       -0.9466947526    1.2754638121   -3.4100158050
O        0.5011477445    1.9967491049   -1.5901371339
O        1.1949279442    0.1815942322   -2.8173010408
O       -1.4639809048   -0.0500362709   -3.3892401234
F       -2.2258392490   -0.0762120336    1.3613899767
F       -2.3708600118   -2.5370782865   -3.5030158219
H       -3.0836498296   -2.5132460531    0.9805078016
H       -3.1388513514   -3.6351060840   -1.2931121487
H       -1.4412843922    1.0136878955   -0.8307204686
H        1.3640185269    1.4331806884    0.1864157580
H        2.5231216112    1.9500792144   -1.0785485961
H        2.6369241393   -0.4470009123   -1.4859879339
H        0.9477203363   -0.6868064077   -0.9414128227
H        1.0617682620    2.0779029536   -3.5748371262
H       -0.9715094776    1.5456699346   -4.4669781091
H       -1.5905262187    1.9707020748   -2.8592811837
25   
torsion grid (-90,)
C       -2.9125417868   -1.8909586463    0.1632681678
C       -2.7757422092   -2.5884912982   -1.0444460859
C       -1.8472240705    0.0523764732   -0.8742208589
C       -1.7191861985   -0.6465988401   -2.0811670189
C       -2.4426376681   -0.5864110286    0.2117309805
C       -2.1913564711   -1.9711308814   -2.1382214584
C        1.5227303650    1.1745311168   -0.8235328069
C        1.7399324294    0.0158957681   -1.7955657067
C        0.5389783051    1.6343306462   -2.8724934852
C       -0.8699465169    1.2302307363   -3.3471422200
O        0.5272726898    1.9746280299   -1.4830156502
O        1.5123024223    0.6348137261   -3.0702208486
O       -1.1565787647   -0.1637738517   -3.2231051073
F       -2.5493203834    0.1096700700    1.3755224556
F       -2.0665151023   -2.6528847429   -3.3016435764
H       -3.3651694016   -2.3456406846    1.0377102493
H       -3.1247171703   -3.6114215855   -1.1457762285
H       -1.4647926789    1.0595901356   -0.7604909018
H        1.1282913227    0.8609472376    0.1462957942
H        2.4358163276    1.7645795408   -0.6799786759
H        2.7579914934   -0.3780056877   -1.7920323507
H        1.0259344570   -0.7977730579   -1.6279290321
H        0.8461153027    2.5178541229   -3.4491235502
H       -0.9294791825    1.4176336516   -4.4222906931
H       -1.6206717485    1.8481262161   -2.8437282917
25   
torsion grid (-75,)
C       -3.0974100226   -1.8321715845    0.2005337406
C       -2.8236351750   -2.5868968686   -0.9475740406
C       -1.9644761327    0.0814348084   -0.8218481505
C       -1.7042297609   -0.6735263739   -1.9720715363
C       -2.6574508374   -0.5162426150    0.2287826278
C       -2.1420129553   -2.0102217436   -2.0071873560
C        1.5476087872    0.9991270244   -0.8882766113
C        1.8829737285    0.0800722375   -2.0641192695
C        0.4760440186    1.7097870676   -2.8229287215
C       -0.8701327263    1.1655650330   -3.3110069020
O        0.4924041742    1.8300044086   -1.4006089615
O        1.5686790844    0.8996877032   -3.1999588914
O       -1.0357694449   -0.2354734094   -3.0762707057
F       -2.8957285187    0.2331975043    1.3381804292
F       -1.8861275962   -2.7465212142   -3.1151535674
H       -3.6303581777   -2.2522066498    1.0466389290
H       -3.1423006670   -3.6212948618   -1.0306020680
H       -1.6007243462    1.0961427782   -0.7183306582
H        1.1743861954    0.4619686628   -0.0123604837
H        2.3989025045    1.6279548537   -0.6027998698
H        2.9403324272   -0.1846382980   -2.1246736159
H        1.2697574694   -0.8267792113   -2.0653179697
H        0.6249302345    2.7018728796   -3.2714361433
H       -0.9047864146    1.2744418078   -4.3985991748
H       -1.6882748362    1.7477592380   -2.8737455342
25   
torsion grid (-60,)
C       -3.2141478454   -1.7619155600    0.1703907029
C       -2.7555374220   -2.5611803657   -0.8846449622
C       -2.1427019430    0.1770673869   -0.8705550405
C       -1.6980125004   -0.6227347693   -1.9300665246
C       -2.8920852654   -0.4121387834    0.1454477371
C       -2.0155277503   -1.9932807391   -1.9090508257
C        1.5619568611    0.8027446752   -0.9415118939
C        2.0000667621    0.1927929224   -2.2763789748
C        0.4397870459    1.8054855339   -2.7139299451
C       -0.8398718297    1.1930192659   -3.2900641939
O        0.4725464808    1.6699848578   -1.2977989256
O        1.6073162403    1.1944961959   -3.2272790198
O       -0.9627443304   -0.2014398204   -2.9974840892
F       -3.3103052195    0.3825113524    1.1664016287
F       -1.5785751440   -2.7733205081   -2.9278842978
H       -3.7972991937   -2.1729592372    0.9872702567
H       -2.9741882421   -3.6237926061   -0.9228299122
H       -1.8753191352    1.2226837209   -0.7955076236
H        1.1980221142    0.0580599532   -0.2284457777
H        2.3568066079    1.3992540305   -0.4797475472
H        3.0805965727    0.0598586843   -2.3589409988
H        1.4883590582   -0.7519652621   -2.4843023661
H        0.4744782682    2.8689151645   -2.9867621995
H       -0.7926299145    1.2617404964   -4.3801012338
H       -1.7163055120    1.7495550201   -2.9405715373
25   
torsion grid (-45,)
C       -3.2232457330   -1.6614438318    0.2208582819
C       -2.6152689553   -2.5066876459   -0.7163024446
C       -2.2371370261    0.2653781670   -0.9210734503
C       -1.6438967220   -0.5817153425   -1.8641602727
C       -3.0139681014   -0.2956911333    0.0900686246
C       -1.8448140205   -1.9679016139   -1.7336779026
C        1.5419567861    0.5596936108   -1.0589619613
C        2.1165358510    0.3671886626   -2.4740289774
C        0.4204849526    1.8880603331   -2.5918774114
C       -0.7709254444    1.1880040336   -3.2701788720
O        0.5120805843    1.5512069564   -1.2185339291
O        1.6522199971    1.5244382022   -3.1862776238
O       -0.8694733445   -0.1937162875   -2.9160134507
F       -3.5784828802    0.5463786164    0.9957593590
F       -1.2590789294   -2.7924823831   -2.6370773170
H       -3.8337382645   -2.0491220807    1.0290976713
H       -2.7395353284   -3.5839614190   -0.6672415382
H       -2.0708474869    1.3341262681   -0.9251546039
H        1.1052786789   -0.3602526455   -0.6585731111
H        2.2807634244    0.9521155409   -0.3536027196
H        3.2079903383    0.3757213728   -2.5023459247
H        1.7393465853   -0.5471447228   -2.9428748851
H        0.3107761867    2.9740315448   -2.6942636374
H       -0.6157578542    1.2091344948   -4.3514334246
H       -1.7049082034    1.7127682934   -3.0409820100
25   
torsion grid (-30,)
C       -3.3278068642   -1.6217797703    0.2501302929
C       -2.6361483901   -2.4957849448   -0.5984111839
C       -2.3627021070    0.2717160650   -0.9632699295
C       -1.6845581289   -0.6054692401   -1.8166631013
C       -3.1679184045   -0.2590629970    0.0416896218
C       -1.8344937795   -1.9878900293   -1.6072499013
C        1.6191265864    0.3669582693   -1.1683597656
C        2.1799895284    0.5067766371   -2.5965612114
C        0.3658277265    1.8560206313   -2.4108005389
C       -0.7420812152    1.1253055393   -3.2143754082
O        0.5314510175    1.3077271045   -1.1178175492
O        1.6232106337    1.7477881109   -3.0558604679
O       -0.8786113664   -0.2496291589   -2.8554854193
F       -3.8150114771    0.6124089558    0.8601796898
F       -1.1646439100   -2.8397571534   -2.4233467424
H       -3.9637056800   -1.9847547796    1.0501938661
H       -2.7175710368   -3.5723331268   -0.4854637988
H       -2.2485823385    1.3456118349   -1.0303023373
H        1.2465487127   -0.6416861598   -0.9667799727
H        2.3428388754    0.6536945584   -0.3999213604
H        3.2673151250    0.5953420926   -2.6328761624
H        1.8552641736   -0.3205956396   -3.2376443983
H        0.1308160232    2.9217837537   -2.3262739050
H       -0.4646240083    1.1294023167   -4.2702228972
H       -1.7019066277    1.6431547732   -3.1077182803
25   
torsion grid (-15,)
C       -3.4657318879   -1.5724006372    0.2475452015
C       -2.7451871606   -2.4892463697   -0.5290460775
C       -2.4412328913    0.2544753837   -1.0155827513
C       -1.7311239329   -0.6645465590   -1.7955056842
C       -3.2899915200   -0.2220917132   -0.0192165827
C       -1.8988573483   -2.0339919155   -1.5261786539
C        1.7464226629    0.2062523601   -1.2802631532
C        2.2689337397    0.6563598861   -2.6601372683
C        0.3363758340    1.7485263525   -2.2428432247
C       -0.6799008994    1.0085704870   -3.1699919158
O        0.5911719536    1.0331793742   -1.0519155824
O        1.5872356219    1.8984740465   -2.8912877590
O       -0.8847167166   -0.3573889916   -2.8166607389
F       -3.9660808698    0.6913537605    0.7269897315
F       -1.2004688378   -2.9269237935   -2.2714931746
H       -4.1357517893   -1.8938982060    1.0374055716
H       -2.8370933468   -3.5587325502   -0.3673310017
H       -2.3278495399    1.3243125299   -1.1363568667
H        1.4572552483   -0.8487167478   -1.2730036640
H        2.4583351466    0.4018381696   -0.4736822736
H        3.3416877210    0.8550838278   -2.6830825259
H        2.0153027903   -0.0718992141   -3.4403907000
H       -0.0240464350    2.7488758293   -1.9875085276
H       -0.2750889800    0.9871305429   -4.1830818181
H       -1.6371208845    1.5417032237   -3.1975992237
25   
torsion grid (0,)
C       -3.5630008113   -1.4784281213    0.2763967936
C       -2.8452992207   -2.4476680821   -0.4373351650
C       -2.4684759484    0.2610655376   -1.0487691040
C       -1.7583364603   -0.7099421364   -1.7630181323
C       -3.3513809204   -0.1471806347   -0.0511227097
C       -1.9643200117   -2.0607463938   -1.4329068716
C        1.9144908334    0.1385185002   -1.4544907457
C        2.3888812008    0.9008574633   -2.7150652188
C        0.3276945604    1.6378836780   -2.1357251936
C       -0.6058020991    0.8828114910   -3.1414197937
O        0.7187442600    0.8279175831   -1.0514169136
O        1.5209062019    2.0433219779   -2.7826407711
O       -0.8808506702   -0.4668006990   -2.7742187644
F       -4.0264046895    0.8166072836    0.6298242947
F       -1.2698321810   -3.0038075708   -2.1168654925
H       -4.2585806159   -1.7467587293    1.0639925473
H       -2.9651289769   -3.5056131004   -0.2256691326
H       -2.3403712957    1.3211519293   -1.2288302733
H        1.6875760564   -0.9097102708   -1.6717610169
H        2.6237750283    0.1996835912   -0.6256407821
H        3.4140816914    1.2692358936   -2.6470637590
H        2.2864867866    0.2854724504   -3.6175201545
H       -0.1537126191    2.5359790356   -1.7408193895
H       -0.1017792190    0.8122128585   -4.1061404960
H       -1.5388700977    1.4389365779   -3.2895255526
25   
torsion grid (15,)
C        0.0695633878   -1.7347393905   -6.3715141464
C       -0.4522814931   -0.4407608615   -6.4354940929
C       -0.2635641506   -1.7161592823   -3.9533862773
C       -0.7801498171   -0.4152909926   -4.0139299613
C        0.1423386070   -2.3456350603   -5.1217669319
C       -0.8806377679    0.1925563831   -5.2742258990
C        2.3359848632    0.6899933997   -3.4845425217
C        1.9334715278    2.1116737617   -3.8907345303
C        0.7177337682    1.5463774017   -2.0656401856
C       -0.7778962456    1.4711463665   -2.5090261485
O        1.4363524165    0.3714290549   -2.4085460493
O        1.3729156636    2.6404564594   -2.6812200027
O       -1.2270106006    0.1516279501   -2.8535933962
F        0.6484741485   -3.6033698908   -5.0389903617
F       -1.4187523943    1.4407538325   -5.3793158479
H        0.4026606467   -2.2606957087   -7.2598157787
H       -0.5537020529    0.0801092410   -7.3826409961
H       -0.1587896496   -2.2007182175   -2.9893723657
H        2.2018726809   -0.0381698180   -4.2896345276
H        3.3645990938    0.6438221287   -3.1110537857
H        2.7734456787    2.7464874029   -4.1774477440
H        1.1873993135    2.1075148306   -4.6954355741
H        0.7892449288    1.6960385317   -0.9841905547
H       -0.9381863348    2.1683289777   -3.3333063881
H       -1.4196528445    1.7693532709   -1.6782316026
25   
torsion grid (30,)
C       -0.0267140014   -1.8586557158   -6.3467447208
C       -0.4567550791   -0.5333823187   -6.4444358777
C       -0.4014696555   -1.7703052890   -3.9370590082
C       -0.8254399858   -0.4388235436   -4.0307048705
C       -0.0182811292   -2.4487206788   -5.0852913759
C       -0.8606295958    0.1506883740   -5.3036667560
C        2.3275041300    0.8917776766   -3.6352377682
C        1.9566940310    2.3796977657   -3.7137316695
C        0.7268757523    1.4495859159   -2.0592223634
C       -0.7384864575    1.4787150985   -2.5718711214
O        1.4639945027    0.3707888125   -2.6101720455
O        1.3941080984    2.6451936658   -2.4200878374
O       -1.2567602454    0.1771338827   -2.8879166204
F        0.3973497366   -3.7366735529   -4.9694388519
F       -1.3109432260    1.4310478833   -5.4449013680
H        0.2849841922   -2.4233771115   -7.2188273601
H       -0.5061543142   -0.0256344115   -7.4028288137
H       -0.3486342464   -2.2442039697   -2.9634185616
H        2.1394968254    0.3590108479   -4.5724630423
H        3.3662054667    0.7376347016   -3.3256854423
H        2.8121700751    3.0433598759   -3.8492340960
H        1.2202679460    2.5701785277   -4.5047406728
H        0.7595111142    1.3646727632   -0.9693336599
H       -0.8134374922    2.1475617770   -3.4300761153
H       -1.3907017491    1.8604531926   -1.7841965756
25   
torsion grid (45,)
C       -0.0957915500   -2.1470180719   -6.2884847599
C       -0.2200577873   -0.7597895812   -6.4006995706
C       -0.6633570391   -1.9639348788   -3.9228066836
C       -0.7829926458   -0.5724095806   -4.0306438988
C       -0.3299286840   -2.7160999267   -5.0408552043
C       -0.5708245317    0.0014711876   -5.2940059921
C        2.4319112882    1.3231749671   -3.8108972260
C        1.9640962584    2.7490662731   -3.4946986700
C        0.8265082248    1.3272120157   -2.1394338514
C       -0.6487467362    1.3849454190   -2.5811831047
O        1.5923066992    0.4902290422   -2.9951918046
O        1.3980607865    2.6210613703   -2.1806010389
O       -1.1817209818    0.0916784764   -2.9043487110
F       -0.2172484464   -4.0627817835   -4.9029569804
F       -0.6956998937    1.3527482724   -5.4632441890
H        0.1667717947   -2.7686691324   -7.1375188678
H       -0.0641912040   -0.2554964196   -7.3495526212
H       -0.8177138094   -2.4373508935   -2.9592980353
H        2.2925763908    1.0536330098   -4.8620192272
H        3.4761140771    1.1572679550   -3.5248684775
H        2.7749143933    3.4773727816   -3.4387702378
H        1.2100936525    3.0952938052   -4.2114559505
H        0.9144072133    0.9483269536   -1.1164087793
H       -0.7632616463    2.0789404674   -3.4135761005
H       -1.2579007432    1.7380154621   -1.7467942064
25   
torsion grid (60,)
C       -4.3218340415   -0.9760945997   -5.7511269624
C       -3.3630856539   -1.9149943467   -5.3440267384
C       -2.9901917390    0.7890685056   -4.7055477349
C       -2.0346955466   -0.1522112549   -4.3020942598
C       -4.1065764764    0.3523555400   -5.4187747357
C       -2.2476167100   -1.5032143983   -4.6354909356
C        2.8478460596    1.8185619800   -2.8571891458
C        2.2587816288    3.1989495635   -2.5595990565
C        0.6417262875    1.5433516965   -2.4808968060
C       -0.6726234599    1.4872819959   -3.2408458219
O        1.7011115718    1.0803705749   -3.2894979903
O        0.9171280048    2.9023799932   -2.1349477115
O       -0.9018297971    0.1303819518   -3.6084246223
F       -5.0185536760    1.2858598114   -5.7995819294
F       -1.3280307848   -2.4159680116   -4.2438456511
H       -5.2061714360   -1.2671721986   -6.3073924400
H       -3.4768687127   -2.9698005807   -5.5739065784
H       -2.8892913503    1.8443701760   -4.4838876959
H        3.5825193289    1.8098867544   -3.6640621659
H        3.2821878562    1.3621019806   -1.9568486933
H        2.7759219413    3.7289518931   -1.7550289327
H        2.2292340691    3.8302451561   -3.4554740469
H        0.5834650990    0.9463111262   -1.5571426017
H       -0.5911136772    2.1222186856   -4.1312877987
H       -1.4768829423    1.8626412165   -2.5967332924
25   
torsion grid (75,)
C       -4.3738697608   -1.0031493116   -5.6949623867
C       -3.4505587019   -1.9406237656   -5.2101399933
C       -2.9870389278    0.7892530329   -4.7746525586
C       -2.0670645122   -0.1507936288   -4.2934856331
C       -4.1140988811    0.3384850164   -5.4618923668
C       -2.3253727978   -1.5148474619   -4.5256730779
C        2.8559662941    2.0251048382   -2.8768156813
C        2.1973328341    3.3024136207   -2.3399390893
C        0.6682830101    1.5823765408   -2.6058189154
C       -0.6455301582    1.5194929147   -3.3612717428
O        1.7553233514    1.3310818633   -3.4695437447
O        0.8363625774    2.9071165248   -2.0947987427
O       -0.9311469552    0.1446482304   -3.6099866245
F       -4.9907750319    1.2712044875   -5.9191759084
F       -1.4399197505   -2.4262622343   -4.0585477319
H       -5.2645302061   -1.3049861661   -6.2351770476
H       -3.5995871662   -3.0052541515   -5.3609064778
H       -2.8514235050    1.8541086788   -4.6310307795
H        3.6053156137    2.2006082236   -3.6503108413
H        3.2958491951    1.4260398424   -2.0674401652
H        2.6462301781    3.6555000693   -1.4067433119
H        2.2064565042    4.1112409565   -3.0788641502
H        0.6698869212    0.8643116133   -1.7704017379
H       -0.5466201211    2.0783374676   -4.2988030215
H       -1.4296195245    1.9718892825   -2.7428266995
25   
torsion grid (90,)
C       -4.4241248399   -1.0177300747   -5.6459087905
C       -3.5478630699   -1.9597373554   -5.0879500818
C       -2.9595487853    0.7708086099   -4.8470626766
C       -2.0866908278   -0.1737645696   -4.2925680976
C       -4.1035026477    0.3239653766   -5.5084862094
C       -2.4070625113   -1.5377313435   -4.4276248248
C        2.8877401791    2.1498021121   -2.9021542384
C        2.1636759631    3.2739539054   -2.1440290196
C        0.7295043695    1.5506684021   -2.7251603343
C       -0.5866062551    1.4932487757   -3.4812887120
O        1.8248951554    1.5154983737   -3.6165879661
O        0.8105190006    2.8004408245   -2.0349693464
O       -0.9425038720    0.1173021010   -3.6211823827
F       -4.9339595660    1.2604900361   -6.0383232989
F       -1.5661642122   -2.4526518444   -3.8895521450
H       -5.3255272055   -1.3164481553   -6.1697675529
H       -3.7456814634   -3.0244463540   -5.1629953736
H       -2.7753811295    1.8358357968   -4.7787949507
H        3.6236177861    2.5028777744   -3.6263152631
H        3.3632630484    1.4386868115   -2.2126112976
H        2.5762314786    3.4445764075   -1.1447500727
H        2.1616130094    4.2156146380   -2.7030943159
H        0.7942860656    0.7226507902   -2.0019319671
H       -0.4655029339    1.9730755720   -4.4585203697
H       -1.3476139223    2.0248615085   -2.8991859047
25   
torsion grid (105,)
C       -4.4913426940   -1.0413040392   -5.5895000692
C       -3.6571199659   -1.9755974763   -4.9587782773
C       -2.9311669057    0.7325718560   -4.9561031128
C       -2.1007564080   -0.2041628070   -4.3279661847
C       -4.1029524858    0.2893065779   -5.5695063491
C       -2.4899366151   -1.5568371916   -4.3442437977
C        2.9181997563    2.2654051946   -2.9905120931
C        2.1431596931    3.1694079077   -2.0115420859
C        0.8031062938    1.5121692923   -2.9055977478
C       -0.5172459203    1.4509203147   -3.6613586107
O        1.8839923004    1.7009488204   -3.7984204370
O        0.8040537526    2.6489097606   -2.0408604085
O       -0.9360812429    0.0842872451   -3.6915504235
F       -4.8912630835    1.2180748227   -6.1722158407
F       -1.6892156867   -2.4639906749   -3.7357878467
H       -5.4121390295   -1.3376109478   -6.0799188544
H       -3.9084793710   -3.0314725148   -4.9412151776
H       -2.6934294511    1.7887939634   -4.9808750944
H        3.6056535217    2.8052076489   -3.6437799463
H        3.4639361296    1.4728720029   -2.4604766211
H        2.5423444872    3.1201969642   -0.9931105860
H        2.1136736048    4.2131584876   -2.3396822481
H        0.9480334603    0.5938945421   -2.3153091091
H       -0.3753328928    1.8400089622   -4.6751039980
H       -1.2557799599    2.0607891579   -3.1305325712
25   
torsion grid (120,)
C       -4.5312392692   -1.0338051725   -5.5428709645
C       -3.7415805838   -1.9539735915   -4.8382761097
C       -2.8984620475    0.7132054395   -5.0287767089
C       -2.1130324069   -0.2094188478   -4.3262747740
C       -4.0852255198    0.2766104140   -5.6177162841
C       -2.5603995670   -1.5417616733   -4.2465393915
C        2.9075423388    2.4057188695   -2.9924431907
C        2.0864615079    3.0687589683   -1.8681507426
C        0.8594768251    1.4805475811   -3.0117867058
C       -0.4602086533    1.4201460524   -3.7738528235
O        1.9042376721    1.8946761412   -3.8721672714
O        0.7907989277    2.4576174744   -1.9735968031
O       -0.9392159932    0.0741686295   -3.7046376546
F       -4.8290795904    1.1914606363   -6.2937262573
F       -1.8023640524   -2.4355039842   -3.5674867288
H       -5.4616666199   -1.3255994891   -6.0175758653
H       -4.0387298220   -2.9938832203   -4.7452933163
H       -2.6149203626    1.7534890669   -5.1292324657
H        3.5328277245    3.1011858860   -3.5546507010
H        3.5279537506    1.5852865294   -2.6068562014
H        2.5116024947    2.8820684185   -0.8764244841
H        1.9705912090    4.1471728235   -2.0154224216
H        1.0894034787    0.4948811389   -2.5779728800
H       -0.2904463900    1.7144757063   -4.8148982223
H       -1.1756424933    2.1048551578   -3.3072243643
25   
torsion grid (135,)
C       -5.6017605645   -0.8454635824   -3.3785414826
C       -4.6533468438   -1.8405541577   -3.1010728273
C       -3.9156800694    0.8559776380   -2.8841308930
C       -2.9720717707   -0.1412979039   -2.6072530835
C       -5.2040154856    0.4773852277   -3.2618388519
C       -3.3694695065   -1.4866135715   -2.7246140511
C        2.0790968905    2.6470155155   -1.5819912153
C        1.5161275827    2.5896311392   -0.1492737591
C        0.1965315515    1.4194313349   -1.6426349756
C       -1.2600060810    1.4381828987   -2.0918768098
O        0.9374835576    2.3634018412   -2.3940319978
O        0.3193176858    1.8050611913   -0.2755316993
O       -1.6853133090    0.0803795749   -2.2332519428
F       -6.1010529527    1.4640352029   -3.5248810236
F       -2.4578649186   -2.4523594194   -2.4589741961
H       -6.6157434472   -1.0901774855   -3.6754142794
H       -4.9057790070   -2.8937055496   -3.1753226094
H       -3.6778518745    1.9101890366   -2.8149926185
H        2.4678678671    3.6258696148   -1.8673888255
H        2.8539871957    1.8845378764   -1.7400510889
H        2.2070154559    2.1112350021    0.5525902559
H        1.2422082383    3.5794766543    0.2301048229
H        0.6163036154    0.4102997456   -1.7783698536
H       -1.3295950973    1.9584475940   -3.0534143969
H       -1.8652475546    1.9592730862   -1.3431674332
25   
torsion grid (150,)
C       -5.4886456029   -0.7551047259   -3.2189520259
C       -4.5645285288   -1.7759943030   -2.9535279598
C       -3.7222214536    0.8955619857   -2.8497056868
C       -2.8030234751   -0.1271978993   -2.5839407798
C       -5.0388495731    0.5547927970   -3.1594573813
C       -3.2531160176   -1.4596348634   -2.6440197854
C        2.0155909253    2.9608548858   -1.3673000448
C        1.2834151592    2.6237975742   -0.0727953229
C        0.4587304272    1.3338081633   -1.7972728421
C       -1.0147647423    1.4016691266   -2.1902362129
O        1.1118505105    2.4655123792   -2.3623637310
O        0.6624781320    1.3707292901   -0.3869099059
O       -1.4940056726    0.0588844423   -2.2737735232
F       -5.9105307717    1.5666281589   -3.4128251624
F       -2.3662968359   -2.4508347183   -2.3904259454
H       -6.5229345854   -0.9706090893   -3.4638794677
H       -4.8572564597   -2.8208255709   -2.9853361031
H       -3.4435561237    1.9417146347   -2.8239278383
H        2.1573422993    4.0298132674   -1.5387563611
H        2.9806653415    2.4410318110   -1.4312243276
H        1.9404383110    2.4739160346    0.7867600215
H        0.5269819469    3.3826794591    0.1690451737
H        0.8973155752    0.3985551493   -2.1689561200
H       -1.1002458733    1.8933881269   -3.1662161268
H       -1.5726606031    1.9718780419   -1.4386351854
25   
torsion grid (165,)
C       -5.4650866375   -0.7337578244   -3.1262222154
C       -4.5523549533   -1.7447005569   -2.7922758769
C       -3.6673812909    0.9120188594   -2.9212080884
C       -2.7596124669   -0.1006104427   -2.5861544297
C       -4.9940985585    0.5688542692   -3.1814085055
C       -3.2312076616   -1.4257995805   -2.5300174349
C        1.8680442985    3.0787002191   -1.2035942472
C        1.1269502796    2.4458029611   -0.0312348034
C        0.5326391839    1.3611858945   -1.9636507104
C       -0.9422094520    1.4236907523   -2.3428672135
O        1.1166011907    2.6089464922   -2.3313339460
O        0.7383243231    1.1765893863   -0.5692780433
O       -1.4435590030    0.0889787131   -2.3099076637
F       -5.8543698041    1.5709497454   -3.5035331991
F       -2.3558354032   -2.4075842074   -2.2101551373
H       -6.5065109334   -0.9513162646   -3.3367109120
H       -4.8614522708   -2.7836652875   -2.7338497505
H       -3.3722422241    1.9519769346   -2.9864050551
H        1.8470124672    4.1706307440   -1.2110870012
H        2.9053011666    2.7249764809   -1.2623949434
H        1.7476432171    2.2655417392    0.8487043546
H        0.2465126121    3.0376179309    0.2545600054
H        1.0209783286    0.5250548895   -2.4791481592
H       -1.0337965035    1.8443411099   -3.3516602651
H       -1.4794589711    2.0624281358   -1.6315161273
25   
torsion grid (180,)
C       -5.4510528874   -0.7283370767   -3.0467645494
C       -4.5464069066   -1.7119200024   -2.6213644772
C       -3.6396885382    0.9141977103   -2.9944497589
C       -2.7399890662   -0.0711448915   -2.5682203922
C       -4.9695749228    0.5597315109   -3.2216188966
C       -3.2223075886   -1.3817598245   -2.3899083864
C        1.7685878800    3.1011461283   -1.0904772273
C        1.0697246551    2.2506218715   -0.0359051242
C        0.5721573068    1.4127905864   -2.1127688868
C       -0.9076927396    1.4487099172   -2.4807606954
O        1.0759291534    2.7352322852   -2.2921117448
O        0.7869325563    1.0468130801   -0.7577527022
O       -1.4234626372    0.1324946624   -2.3057559832
F       -5.8221595917    1.5351111368   -3.6339350282
F       -2.3549892407   -2.3371492421   -1.9813743219
H       -6.4943860104   -0.9557504811   -3.2363137564
H       -4.8641773360   -2.7384801168   -2.4677438947
H       -3.3362561350    1.9415552274   -3.1539016098
H        1.6541097360    4.1777718021   -0.9463253886
H        2.8330967814    2.8475086318   -1.1727112033
H        1.6969396570    1.9924288846    0.8196238587
H        0.1437277544    2.7242036721    0.3172811366
H        1.1126860036    0.6896730657   -2.7354717937
H       -1.0148452752    1.7790243153   -3.5215283018
H       -1.4256365988    2.1578847881   -1.8234822613
