23   
torsion grid (-165,)
C        5.7432212163   -0.4409268726    3.5882437347
C        6.1471006591   -0.9628120547    2.3525709312
C        4.5627898504    0.3032306596    3.6762031492
C        5.3744437343   -0.7395752281    1.2145063485
C        3.7867647816    0.5230736604    2.5352889774
C        4.1837261082    0.0043273678    1.2911425570
C        3.4001459832    0.2105744679    0.0256079570
C        1.0091935198   -0.2078023022    0.6370994420
C        1.5673795381    1.3865451218   -1.2636041572
C        2.0095084840    0.8404654762    0.0971570704
O        3.8596020877   -0.1637801031   -1.0484908346
H        6.3458434659   -0.6127736834    4.4765401970
H        7.0643767051   -1.5415137542    2.2810220600
H        4.2474320360    0.7128074401    4.6322216130
H        5.6728459666   -1.1321688467    0.2474700319
H        2.8767064223    1.1068493789    2.6255225134
H        1.1581127732   -0.4128966707    1.7008667981
H        1.0918133395   -1.1486438301    0.0835552427
H       -0.0132129943    0.1648387008    0.5144401687
H        1.4790962437    0.5817109835   -1.9982266595
H        2.2886394472    2.1102442339   -1.6542672214
H        0.5953110752    1.8815288921   -1.1689715891
H        2.0398420516    1.6756569181    0.8065339297
23   
torsion grid (-150,)
C        5.7303816004   -0.4635771760    3.5805355341
C        6.1419156477   -0.9664733045    2.3394567935
C        4.5473077412    0.2756290897    3.6742469733
C        5.3737913437   -0.7291424169    1.2012218916
C        3.7756504027    0.5094067170    2.5331066855
C        4.1802594422    0.0096733781    1.2838606934
C        3.4015659300    0.2335027496    0.0187197740
C        1.0147044043   -0.1890416295    0.6681572719
C        1.5510207673    1.3914206499   -1.2620336775
C        2.0088469103    0.8563572489    0.0979621907
O        3.8661404406   -0.1213701059   -1.0596729493
H        6.3295485115   -0.6463205403    4.4689944575
H        7.0614334179   -1.5411082017    2.2639518840
H        4.2266570836    0.6704748013    4.6346957622
H        5.6777860622   -1.1063801217    0.2297991494
H        2.8635169745    1.0892180941    2.6268731058
H        0.9987070258   -0.1929881115    1.7612690670
H        1.2438006186   -1.1990086183    0.3150649309
H        0.0004215280    0.0545158437    0.3349915786
H        1.4449149078    0.5801879908   -1.9875772165
H        2.2718975211    2.1051898690   -1.6711078517
H        0.5843745249    1.8945024733   -1.1566017158
H        2.0479445807    1.7016277509    0.7949074576
23   
torsion grid (-135,)
C        5.5819838629   -0.1519827259    3.8354407640
C        6.1045653718   -0.7498197678    2.6812550313
C        4.3714752506    0.5445846059    3.7700565330
C        5.4205207276   -0.6496339342    1.4712445684
C        3.6846603289    0.6416265147    2.5570976898
C        4.2010699941    0.0460086076    1.3943106643
C        3.5153332984    0.1232688347    0.0595833553
C        1.0937786975   -0.2530679397    0.6374101809
C        1.7315320024    1.0573397597   -1.4669759157
C        2.1119382829    0.7230642227   -0.0217788810
O        4.0644456634   -0.3258613439   -0.9407611921
H        6.1159106284   -0.2282763222    4.7793096947
H        7.0455467017   -1.2917125793    2.7292621832
H        3.9636064400    1.0123607733    4.6622561984
H        5.8114649481   -1.1025620753    0.5654702586
H        2.7483592500    1.1885707459    2.5271495725
H        0.8182169155    0.0571136525    1.6488242291
H        1.4768787455   -1.2764589022    0.6877895394
H        0.1729026137   -0.2787219953    0.0467043899
H        1.6898253948    0.1526599023   -2.0797634015
H        2.4616716163    1.7308073974   -1.9249294604
H        0.7494365624    1.5408382014   -1.4900176772
H        2.1115034802    1.6578001875    0.5505747053
23   
torsion grid (-120,)
C        5.5833264092   -0.1709894549    3.8188373136
C        6.1199983839   -0.7322675662    2.6528970583
C        4.3536085276    0.4927440039    3.7697074673
C        5.4293378699   -0.6279084865    1.4468870324
C        3.6615508484    0.5960197010    2.5603597078
C        4.1921576328    0.0369545872    1.3858997177
C        3.5004618692    0.1217780855    0.0541528570
C        1.0721067942   -0.1948654075    0.6637130365
C        1.7252889227    1.0705051342   -1.4655527198
C        2.1080566252    0.7509713657   -0.0176707354
O        4.0386029201   -0.3349480715   -0.9483341939
H        6.1213399721   -0.2506322907    4.7600940235
H        7.0758011587   -1.2486035899    2.6885169404
H        3.9346126732    0.9299246739    4.6722094617
H        5.8290065617   -1.0538675564    0.5318745180
H        2.7084727338    1.1139627676    2.5432409911
H        0.6162621279    0.2653566637    1.5448666309
H        1.5208691059   -1.1387743320    0.9865563571
H        0.2692085254   -0.4397904613   -0.0373516672
H        1.6888685099    0.1587865001   -2.0676356907
H        2.4513593519    1.7436017951   -1.9305093276
H        0.7404063926    1.5485518204   -1.4942490847
H        2.1426966269    1.6919087528    0.5427395266
23   
torsion grid (-105,)
C        5.5970431878   -0.1764356592    3.7921805032
C        6.1248252600   -0.7282417385    2.6178170469
C        4.3602454422    0.4752612279    3.7603517065
C        5.4183084140   -0.6269432186    1.4206375848
C        3.6532987802    0.5770914578    2.5596098502
C        4.1748163255    0.0270437798    1.3765427238
C        3.4664628320    0.1090730248    0.0525877633
C        1.0334326172   -0.1746066548    0.6503703514
C        1.7131896667    1.1106856497   -1.4526603514
C        2.0856263594    0.7663732441   -0.0077952152
O        3.9840064337   -0.3674176865   -0.9514254815
H        6.1471222553   -0.2542315168    4.7265878381
H        7.0861030176   -1.2350842785    2.6398269881
H        3.9473106120    0.9040135251    4.6696664355
H        5.8104430040   -1.0470011587    0.4996679455
H        2.6941700948    1.0843791494    2.5567019956
H        0.4003323725    0.3675672876    1.3591155476
H        1.4998524573   -0.9919516411    1.2082952556
H        0.3938261155   -0.6243287557   -0.1139404458
H        1.6975782109    0.2100012510   -2.0713407588
H        2.4336841567    1.8042376409   -1.8961251490
H        0.7215216003    1.5748184236   -1.4842320409
H        2.1374077694    1.6945747735    0.5714303179
23   
torsion grid (-90,)
C        5.6192254269   -0.1765423066    3.7917919624
C        6.1232876564   -0.7550042601    2.6199121202
C        4.3960415244    0.5003828772    3.7616900239
C        5.4069112978   -0.6544909253    1.4285407170
C        3.6788487072    0.6005806379    2.5668274349
C        4.1765344984    0.0240893558    1.3859183159
C        3.4586483726    0.1008001200    0.0663642852
C        1.0282267695   -0.2114408708    0.6220331726
C        1.7164291883    1.1331384405   -1.4299418919
C        2.0762722658    0.7561815417    0.0100305899
O        3.9688601921   -0.3826663078   -0.9383262056
H        6.1765495493   -0.2531656689    4.7220016101
H        7.0738046616   -1.2818618701    2.6392640479
H        4.0011442935    0.9505913000    4.6686263945
H        5.7817246577   -1.0945837000    0.5097725639
H        2.7309355563    1.1285627997    2.5671220580
H        0.2276487109    0.3451066944    1.1192685185
H        1.4675383962   -0.8686628098    1.3785985416
H        0.5932213199   -0.8459758811   -0.1552003986
H        1.7282573305    0.2495447739   -2.0723808439
H        2.4284267172    1.8534675608   -1.8437571145
H        0.7159543239    1.5780631379   -1.4642119353
H        2.1103420906    1.6658105875    0.6190495354
23   
torsion grid (-75,)
C        5.6347969315   -0.1776293748    3.7593786122
C        6.1184372983   -0.7658886925    2.5837363089
C        4.4176680189    0.5105124416    3.7438885057
C        5.3858526958   -0.6637064060    1.4025436532
C        3.6854046527    0.6122717903    2.5583079210
C        4.1610212904    0.0259132649    1.3730759058
C        3.4259760378    0.1000523024    0.0632715068
C        0.9972990127   -0.2181214485    0.5782593672
C        1.6976908282    1.1942558983   -1.4142813981
C        2.0486060672    0.7669388009    0.0141552523
O        3.9164775021   -0.4013001602   -0.9428638285
H        6.2040678798   -0.2552950567    4.6822114979
H        7.0644424546   -1.3011257180    2.5923363251
H        4.0395248674    0.9682819366    4.6541869943
H        5.7434595598   -1.1116816166    0.4807622511
H        2.7436076983    1.1508243535    2.5693958382
H        0.0797085997    0.3157205987    0.8458027386
H        1.3511655318   -0.7254345711    1.4811515018
H        0.7575593270   -0.9844604681   -0.1647895628
H        1.7166930337    0.3346761145   -2.0880497062
H        2.4108457807    1.9310566386   -1.7961431095
H        0.6966405879    1.6383979490   -1.4404418571
H        2.0716533336    1.6544570660    0.6554572169
23   
torsion grid (-60,)
C        5.6330308865   -0.1855085078    3.7320056481
C        6.1023310835   -0.7725739088    2.5498712806
C        4.4240871362    0.5169551848    3.7279088315
C        5.3657407397   -0.6565662844    1.3725997846
C        3.6857688182    0.6328495548    2.5474285566
C        4.1484693583    0.0469680311    1.3567612425
C        3.4063311362    0.1358434941    0.0527866887
C        0.9831746423   -0.2109715463    0.5618101241
C        1.6655655561    1.2455594456   -1.4024186032
C        2.0246825861    0.7907093931    0.0153664202
O        3.8938078230   -0.3487052615   -0.9632322383
H        6.2071520571   -0.2749399523    4.6507697354
H        7.0421277019   -1.3186312047    2.5504448673
H        4.0572207152    0.9749100338    4.6427082523
H        5.7129177766   -1.1031380862    0.4460803644
H        2.7516826019    1.1843967576    2.5660771569
H       -0.0068435885    0.2556386164    0.5910519012
H        1.2275426242   -0.5542900638    1.5712326594
H        0.9264766292   -1.0894498744   -0.0893522264
H        1.6530197551    0.3970781284   -2.0909299753
H        2.3923065274    1.9693519920   -1.7833029807
H        0.6761590089    1.7150885042   -1.4067497091
H        2.0347169616    1.6676967817    0.6723744156
23   
torsion grid (-45,)
C        5.6046669150   -0.2149138588    3.7285336097
C        6.0662463600   -0.8064385404    2.5455545633
C        4.4159188061    0.5211760459    3.7217202893
C        5.3417958785   -0.6596597022    1.3641913010
C        3.6881281977    0.6640878079    2.5376386968
C        4.1434089816    0.0756103004    1.3456094878
C        3.4135334021    0.1973786236    0.0380095045
C        1.0058546862   -0.2164711640    0.5824610521
C        1.6212549342    1.2618594793   -1.3931318438
C        2.0145092802    0.8098836228    0.0162603145
O        3.9231085054   -0.2307614500   -0.9925256191
H        6.1695911456   -0.3268862627    4.6505137653
H        6.9900470104   -1.3791538519    2.5486598783
H        4.0566498684    0.9840684786    4.6370524030
H        5.6845584277   -1.1063802672    0.4361154013
H        2.7701192917    1.2422315851    2.5530230755
H       -0.0176211699    0.1196474154    0.3880135843
H        1.1297418604   -0.3771352724    1.6563347022
H        1.1266485313   -1.1835214415    0.0811368516
H        1.5696426246    0.4111122159   -2.0780177858
H        2.3502948978    1.9679098081   -1.8012598271
H        0.6415209873    1.7500051553   -1.3678507492
H        2.0079863927    1.6894229248    0.6711525890
23   
torsion grid (-30,)
C        5.5942410888   -0.2394318861    3.7233674418
C        6.0608898050   -0.8146622717    2.5343077392
C        4.4044179943    0.4948885647    3.7211903997
C        5.3405039246   -0.6537714652    1.3523061822
C        3.6804287213    0.6517117899    2.5364813985
C        4.1405317857    0.0790418044    1.3388059732
C        3.4149911670    0.2184505248    0.0307095361
C        1.0086252983   -0.1943588866    0.6117991698
C        1.6032756240    1.2657470296   -1.3933239843
C        2.0131640028    0.8256296538    0.0150180324
O        3.9299156995   -0.1912155637   -1.0044161949
H        6.1560378410   -0.3623047477    4.6458840988
H        6.9857619546   -1.3856536130    2.5332901310
H        4.0414084159    0.9459177965    4.6409566082
H        5.6876040127   -1.0875420445    0.4196993912
H        2.7623900628    1.2295456993    2.5554485459
H        0.0071269310   -0.0109497257    0.2107814225
H        0.9715877213   -0.1627166907    1.7033196378
H        1.2755511372   -1.2157192442    0.3184989421
H        1.5476274290    0.4096711432   -2.0714606621
H        2.3252101259    1.9712644612   -1.8146476597
H        0.6220183444    1.7500945198   -1.3602263787
H        2.0167040584    1.7155726880    0.6555826884
23   
torsion grid (-15,)
C        5.5833578219   -0.2706295481    3.7122086328
C        6.0667262930   -0.8079377631    2.5120947978
C        4.3797597910    0.4408268508    3.7214750096
C        5.3492212878   -0.6322923724    1.3304120311
C        3.6592911839    0.6133352421    2.5367818088
C        4.1361058696    0.0785648107    1.3284287863
C        3.4139445369    0.2380336053    0.0205421577
C        1.0066129557   -0.1510493981    0.6504510191
C        1.5919171055    1.2652168081   -1.3983434215
C        2.0137194950    0.8507857622    0.0143403590
O        3.9317145680   -0.1546610849   -1.0194305951
H        6.1428285881   -0.4052999214    4.6344996489
H        7.0023701152   -1.3610220382    2.5023070122
H        4.0033650589    0.8617669309    4.6500870930
H        5.7087354152   -1.0370455249    0.3894879256
H        2.7294221383    1.1713376724    2.5644972442
H        0.0727786370   -0.1561734584    0.0807715249
H        0.7800130982    0.0856639127    1.6929046255
H        1.3915690543   -1.1757587112    0.6251206091
H        1.5228758023    0.3951323089   -2.0571328622
H        2.3138463657    1.9564597930   -1.8424520418
H        0.6140867153    1.7566581978   -1.3646671739
H        2.0397833061    1.7542755563    0.6346763170
23   
torsion grid (0,)
C        5.6117288897   -0.2660568709    3.7459589705
C        6.1241584205   -0.7908268376    2.5524217548
C        4.3884238806    0.4111640597    3.7397779768
C        5.4164218836   -0.6371311961    1.3616731164
C        3.6790145796    0.5636554029    2.5457847875
C        4.1853616567    0.0414722187    1.3439698616
C        3.4738911493    0.1806896341    0.0272547322
C        1.0547784295   -0.1408052446    0.6714084936
C        1.6772362886    1.1869238182   -1.4284993097
C        2.0846534503    0.8198561693    0.0014366369
O        3.9944511683   -0.2398139779   -1.0001443657
H        6.1634620676   -0.3843930921    4.6751299549
H        7.0749635502   -1.3175002610    2.5547284664
H        3.9879927187    0.8203754105    4.6635763817
H        5.7976128505   -1.0341183028    0.4259787062
H        2.7313111658    1.0914209954    2.5618959897
H        0.2395620919   -0.3611766270   -0.0235071182
H        0.6146825127    0.2970504203    1.5717353352
H        1.5034565821   -1.0952903448    0.9616876678
H        1.6273092836    0.2951822015   -2.0588184411
H        2.3971076417    1.8727851759   -1.8842883572
H        0.6935686398    1.6683184261   -1.4241783944
H        2.1367831631    1.7422832182    0.5906883352
23   
torsion grid (15,)
C        5.6015474495   -0.2907088790    3.6696719478
C        6.0910169779   -0.7778065372    2.4509260654
C        4.3696950010    0.3697610166    3.7110433339
C        5.3512806914   -0.6034429924    1.2825722896
C        3.6294397541    0.5447993262    2.5391493591
C        4.1124035485    0.0600769268    1.3119623595
C        3.3669662351    0.2222549497    0.0160827726
C        0.9510891444   -0.0805778250    0.6703347082
C        1.5767164361    1.3167898894   -1.3769702546
C        1.9898898697    0.8900407322    0.0342884276
O        3.8518225055   -0.1988121424   -1.0282498531
H        6.1774899603   -0.4254761783    4.5817491319
H        7.0483448120   -1.2913636860    2.4160377142
H        3.9864866147    0.7483801244    4.6549700238
H        5.7134254531   -0.9725701362    0.3281099978
H        2.6746902333    1.0574712227    2.5930685209
H        0.2804168616   -0.4708843254   -0.1005400736
H        0.3275984976    0.4378358280    1.4056345106
H        1.4170835429   -0.9294793836    1.1774367490
H        1.5360134061    0.4523077043   -2.0441608657
H        2.2886477013    2.0301573701   -1.8024628491
H        0.5880145470    1.7877460781   -1.3526010286
H        2.0662984604    1.7836371016    0.6630868388
23   
torsion grid (30,)
C        5.6358375469   -0.2793739171    3.6824887323
C        6.1053610115   -0.7956380785    2.4679159401
C        4.4115352846    0.3947750575    3.7253349280
C        5.3531667627   -0.6369161183    1.3053951626
C        3.6590666442    0.5548118116    2.5590195533
C        4.1217211968    0.0405307533    1.3358246140
C        3.3627304114    0.1807208912    0.0449956926
C        0.9432437515   -0.1209031253    0.6423599195
C        1.6040574417    1.3212818878   -1.3503815437
C        1.9922748925    0.8627499348    0.0580139661
O        3.8300088256   -0.2747751387   -0.9931691744
H        6.2213393408   -0.4021908640    4.5901506926
H        7.0568071002   -1.3199259804    2.4317488739
H        4.0435821711    0.7959913382    4.6659855197
H        5.6995674937   -1.0293889704    0.3544405992
H        2.7108641264    1.0792849353    2.6148965570
H        0.4714140510   -0.6888730735   -0.1650830354
H        0.1455452188    0.4323182104    1.1494569924
H        1.3702328657   -0.8235509125    1.3625517464
H        1.5966284130    0.4747531106   -2.0408268002
H        2.3118008239    2.0601982559   -1.7380971612
H        0.6062785900    1.7734756303   -1.3384030835
H        2.0562736936    1.7371446367    0.7140872806
23   
torsion grid (45,)
C        5.6394049838   -0.2922314076    3.6356160798
C        6.0806699464   -0.8146488102    2.4130836012
C        4.4295095752    0.4059400891    3.6969178867
C        5.3164419984   -0.6390353395    1.2609911119
C        3.6635440949    0.5825171984    2.5418302227
C        4.0986948570    0.0618607775    1.3111074157
C        3.3254851010    0.2182293238    0.0309351646
C        0.9110799327   -0.1181826998    0.5979439130
C        1.5626931193    1.3976531990   -1.3330025894
C        1.9514697610    0.8920748028    0.0592446920
O        3.7835077407   -0.2245693498   -1.0170824540
H        6.2353567385   -0.4285771909    4.5345133113
H        7.0209341993   -1.3575365252    2.3625064970
H        4.0832690640    0.8132560397    4.6431640546
H        5.6421169856   -1.0355956901    0.3043980484
H        2.7279891299    1.1274196315    2.6122717484
H        0.6448828934   -0.8353394672   -0.1850407922
H       -0.0066735106    0.4069424679    0.8838596868
H        1.2700722574   -0.6705414285    1.4705317113
H        1.5573118426    0.5762509923   -2.0532001226
H        2.2693855196    2.1508959888   -1.6941418197
H        0.5641790779    1.8473534125   -1.3060818592
H        1.9980155949    1.7427818763    0.7476196299
23   
torsion grid (60,)
C        5.6352274909   -0.2943564376    3.6070215641
C        6.0629217279   -0.8185191594    2.3803671242
C        4.4336302902    0.4170050311    3.6784418523
C        5.2920213739   -0.6306418920    1.2347768305
C        3.6612822384    0.6046835514    2.5293248557
C        4.0817477249    0.0826875519    1.2941573352
C        3.3012292435    0.2494144898    0.0205093910
C        0.8914136460   -0.1107332713    0.5737826201
C        1.5326443367    1.4618729876   -1.3140184174
C        1.9255996918    0.9163534289    0.0621360129
O        3.7516311482   -0.1828184078   -1.0354973327
H        6.2356987932   -0.4394552182    4.5015184344
H        6.9967180538   -1.3716979011    2.3217580687
H        4.0988469960    0.8261934223    4.6279951247
H        5.6067973840   -1.0278629283    0.2748613445
H        2.7334161563    1.1615083103    2.6074118680
H        0.8212478680   -0.9540088594   -0.1211305682
H       -0.0971043580    0.3549808449    0.6429452545
H        1.1523180085   -0.5057658978    1.5599238438
H        1.4815005293    0.6565994234   -2.0510044442
H        2.2621469464    2.1934125793   -1.6742099399
H        0.5533541184    1.9491039700   -1.2591495955
H        1.9602370737    1.7500419385    0.7723425481
23   
torsion grid (75,)
C        5.6710860109   -0.3265711076    3.6156353528
C        6.0960121585   -0.8620871157    2.3928768777
C        4.4791282626    0.4015912882    3.6777562438
C        5.3335296813   -0.6689748981    1.2425634158
C        3.7134764216    0.5929937394    2.5247415158
C        4.1320950749    0.0598798691    1.2938275446
C        3.3595058223    0.2328141585    0.0168186653
C        0.9573255956   -0.1667881345    0.5891836551
C        1.5585284324    1.4086970976   -1.3157279866
C        1.9723233238    0.8723512496    0.0580549432
O        3.8245486875   -0.1759188362   -1.0422531565
H        6.2658459417   -0.4755610030    4.5133241981
H        7.0222160207   -1.4285102837    2.3410195545
H        4.1465257928    0.8211455350    4.6235320387
H        5.6479023581   -1.0737120107    0.2856358894
H        2.7939651072    1.1644646195    2.5955266471
H        1.0718857766   -1.1209547573    0.0642736420
H       -0.0655706660    0.1927842878    0.4418001412
H        1.0995406261   -0.3663763071    1.6555267458
H        1.4892679658    0.5992563836   -2.0472271464
H        2.2854632985    2.1333003837   -1.6944147563
H        0.5830479499    1.9009751141   -1.2452379186
H        1.9938832768    1.7139974325    0.7598897457
23   
torsion grid (90,)
C        5.6379134097   -0.3635007607    3.6114452622
C        6.0690016125   -0.8819511086    2.3834635639
C        4.4529306546    0.3756374101    3.6774470493
C        5.3183401302   -0.6600310507    1.2305623951
C        3.6984905879    0.5935661106    2.5217511766
C        4.1228353453    0.0781761628    1.2854811871
C        3.3633680232    0.2849397533    0.0058715667
C        0.9710763375   -0.1489955563    0.6293453362
C        1.5202484181    1.4085649085   -1.3159257303
C        1.9643898405    0.8966516302    0.0576265728
O        3.8489087969   -0.0744120728   -1.0616284268
H        6.2235141143   -0.5341099255    4.5112863971
H        6.9900502032   -1.4565632133    2.3295771581
H        4.1173913199    0.7827799806    4.6276162422
H        5.6377756726   -1.0491237859    0.2688092580
H        2.7847160534    1.1739490877    2.5937652097
H        1.2456034390   -1.1644604835    0.3258752718
H       -0.0442817685    0.0582162325    0.2797820478
H        0.9621063567   -0.1436645507    1.7232259221
H        1.4336210240    0.5865812778   -2.0318904655
H        2.2386296005    2.1251800718   -1.7243803735
H        0.5465034263    1.9018159144   -1.2309748100
H        1.9877268744    1.7529064273    0.7419093864
23   
torsion grid (105,)
C        5.6452875057   -0.3863442652    3.6074581778
C        6.0967060372   -0.8825860309    2.3775737528
C        4.4474398433    0.3319980554    3.6708793363
C        5.3533939429   -0.6593094957    1.2201394993
C        3.7010254419    0.5521978556    2.5103872569
C        4.1458119902    0.0590170257    1.2724774587
C        3.3946016703    0.2707406890   -0.0114734483
C        1.0001907870   -0.1289591301    0.6600406500
C        1.5475816542    1.3593108282   -1.3488280696
C        1.9984923693    0.8910288648    0.0378400637
O        3.8855599874   -0.0862818291   -1.0769317832
H        6.2250290468   -0.5582283091    4.5108514018
H        7.0277673538   -1.4410357267    2.3257832326
H        4.0957065461    0.7211103754    4.6227511886
H        5.6880832301   -1.0316975802    0.2569516064
H        2.7759158222    1.1144070663    2.5802382457
H        1.3882635103   -1.1516219643    0.6258504851
H        0.0494315085   -0.1083731802    0.1203587149
H        0.7947973104    0.0912416204    1.7114345719
H        1.4595977319    0.5144580560   -2.0374448418
H        2.2627710472    2.0637477034   -1.7830750358
H        0.5731385539    1.8532177081   -1.2753166969
H        2.0441094042    1.7704075599    0.6905363914
23   
torsion grid (120,)
C        5.6425443407   -0.4103184878    3.5889613207
C        6.1056362108   -0.8690773622    2.3490238630
C        4.4295685829    0.2808833945    3.6680455285
C        5.3574350849   -0.6344854433    1.1968486795
C        3.6786762356    0.5138219448    2.5131092265
C        4.1361041289    0.0583621502    1.2654053682
C        3.3812161751    0.2857729792   -0.0143263526
C        0.9861439342   -0.0736791850    0.7017507441
C        1.5318891535    1.3720963748   -1.3409389124
C        1.9919391740    0.9230792982    0.0488554065
O        3.8674371437   -0.0627410689   -1.0844291472
H        6.2250798391   -0.5908014364    4.4888646946
H        7.0482147386   -1.4065963418    2.2852259600
H        4.0690177411    0.6387361129    4.6288342512
H        5.6993111838   -0.9780694455    0.2254877219
H        2.7396129028    1.0508911412    2.5952461785
H        1.4454222797   -1.0409119361    0.9253750894
H        0.1493059604   -0.2609935553    0.0229316386
H        0.5753160429    0.3144747904    1.6379896637
H        1.4494006607    0.5172476991   -2.0174092193
H        2.2391932972    2.0774052342   -1.7864489011
H        0.5531484722    1.8584572262   -1.2709830980
H        2.0680051946    1.8105198499    0.6873499160
23   
torsion grid (135,)
C        5.6671033083   -0.4065346253    3.5853914906
C        6.1232967957   -0.8654256335    2.3430854875
C        4.4482007672    0.2738089794    3.6682426438
C        5.3649252918   -0.6429924313    1.1949296547
C        3.6879127565    0.4960713727    2.5173566787
C        4.1386024844    0.0401631719    1.2671394348
C        3.3727072870    0.2552873982   -0.0090786946
C        0.9718358727   -0.0660745448    0.6952438793
C        1.5494627392    1.3832081581   -1.3302751413
C        1.9956767640    0.9197800655    0.0591081867
O        3.8416507088   -0.1200064984   -1.0778488250
H        6.2576187305   -0.5782454535    4.4818419920
H        7.0701289926   -1.3947227710    2.2740733037
H        4.0899789265    0.6315676058    4.6299244949
H        5.7030461074   -0.9889315289    0.2231378429
H        2.7436163753    1.0232212724    2.6052311816
H        1.4532939627   -0.9345123059    1.1532481903
H        0.3019431048   -0.4525100993   -0.0789719087
H        0.3565870293    0.4234106281    1.4555134485
H        1.4872937062    0.5356658703   -2.0173776376
H        2.2542120245    2.1032436054   -1.7563024924
H        0.5640176438    1.8575708425   -1.2691873981
H        2.0881331096    1.7972670981    0.7086138893
23   
torsion grid (150,)
C        5.6963073523   -0.3975136414    3.5815287443
C        6.1323897443   -0.8801722906    2.3410143084
C        4.4849439606    0.2951028244    3.6727395015
C        5.3592240552   -0.6686963177    1.2008321820
C        3.7104880878    0.5069328215    2.5293964777
C        4.1402235452    0.0269429427    1.2805405549
C        3.3589011867    0.2256574645    0.0108398873
C        0.9542010767   -0.0915405744    0.6642912746
C        1.5654170514    1.4048963625   -1.3050676210
C        1.9892519387    0.9058465132    0.0790214186
O        3.8086343566   -0.1797959528   -1.0553872565
H        6.2978893706   -0.5607213180    4.4721485059
H        7.0736069155   -1.4187895577    2.2671912433
H        4.1438661638    0.6704627230    4.6339553267
H        5.6797506859   -1.0329776909    0.2297952786
H        2.7725370162    1.0443959692    2.6226588871
H        1.4108382370   -0.8309165704    1.3281387740
H        0.4877519973   -0.6535129044   -0.1514781631
H        0.1625882677    0.4309261628    1.2092089698
H        1.5299571862    0.5771483750   -2.0172106861
H        2.2687220925    2.1473220128   -1.6939689476
H        0.5725353672    1.8647872005   -1.2522713628
H        2.0734625031    1.7621955359    0.7569142577
23   
torsion grid (165,)
C        5.7200273529   -0.3944236039    3.5802233058
C        6.1355796211   -0.8986986565    2.3412088413
C        4.5179841262    0.3136947445    3.6739527390
C        5.3528699347   -0.6942356490    1.2063672222
C        3.7338873353    0.5186270071    2.5358120291
C        4.1427206652    0.0167450808    1.2884681717
C        3.3497481280    0.2040126788    0.0245895958
C        0.9447498703   -0.1250797572    0.6315973117
C        1.5722047472    1.4238098978   -1.2821504807
C        1.9822562247    0.8878285591    0.0924858322
O        3.7855367118   -0.2200809624   -1.0405131825
H        6.3295409454   -0.5525327904    4.4663766414
H        7.0694734265   -1.4494840480    2.2644494323
H        4.1916713933    0.7069401031    4.6331345278
H        5.6586573231   -1.0761469517    0.2373849958
H        2.8047032285    1.0704178835    2.6322326397
H        1.3303733579   -0.7119805381    1.4702139849
H        0.6777204215   -0.8337126391   -0.1595817829
H        0.0321472056    0.3880244354    0.9501080107
H        1.5440705962    0.6164164094   -2.0175554771
H        2.2796355932    2.1766257165   -1.6427950500
H        0.5791601764    1.8829144573   -1.2271737217
H        2.0494080740    1.7247826373    0.7961103860
23   
torsion grid (180,)
C        5.7429664768   -0.4069352168    3.5850430734
C        6.1497682051   -0.9233680496    2.3480571459
C        4.5481608491    0.3131532063    3.6793213102
C        5.3649626526   -0.7190550839    1.2147819580
C        3.7615758069    0.5169967091    2.5427018542
C        4.1612454519    0.0030035617    1.2973168612
C        3.3650604076    0.1878951622    0.0359037643
C        0.9633065412   -0.1714963866    0.6251588547
C        1.5784947601    1.4124442127   -1.2618837857
C        1.9916169746    0.8568344277    0.1042340546
O        3.8008617913   -0.2311725559   -1.0314436573
H        6.3544045191   -0.5648170236    4.4698925031
H        7.0782417658   -1.4833092530    2.2717845214
H        4.2297093312    0.7165158991    4.6369501463
H        5.6636246946   -1.1097187315    0.2470566501
H        2.8392794656    1.0803188590    2.6383596468
H        1.2426094472   -0.5792592886    1.6010077466
H        0.8767690366   -1.0070198488   -0.0772458774
H       -0.0220526583    0.2966120020    0.7189101845
H        1.5051508480    0.6112061581   -2.0014618226
H        2.3084762619    2.1381120417   -1.6326901283
H        0.6053290588    1.9090872560   -1.1862949888
H        2.0394289525    1.6854884691    0.8196336783
