22   
torsion grid (-165,)
C        2.0673146257   -2.1417598794    1.2961960722
C        2.3425795742   -2.7503801366    2.6632286997
C        0.9370546874   -0.0111961484   -0.7189756743
C        4.6380428411    2.4018729972    1.2905233276
C        2.9304232818    1.2730594279    0.0926584638
C        2.3390812983   -0.1194697680   -0.1116853447
N        2.3270315523   -0.7988092137    1.1878253762
O        1.6269127690   -2.8175061033    0.3666124447
O        4.1829421835    1.1642468335    0.7623843837
H        1.4510291366   -3.2899438385    2.9921603118
H        3.1511155784   -3.4810106177    2.5657183733
H        2.6163744152   -2.0137803423    3.4238512549
H        0.2667543789    0.5331361435   -0.0449001049
H        0.5267769370   -1.0061091888   -0.8924657012
H        0.9792671699    0.5220581089   -1.6753707840
H        5.5854961781    2.2059212580    1.7973335010
H        3.9188426221    2.8171094301    2.0120960540
H        4.8040920854    3.1420409769    0.4942008897
H        3.0550818815    1.7691198093   -0.8805750194
H        2.2367013890    1.8788292127    0.6978120585
H        2.9831241882   -0.6831070826   -0.7993081182
H        2.9652211959   -0.4050210529    1.8702387190
22   
torsion grid (-150,)
C        3.0935520197   -1.7633137169    1.8976763518
C        2.9366871269   -2.1866856863    3.3497363145
C        0.5563923877   -0.5838703598   -0.5551806419
C        3.9321924429    1.7827193420   -1.8935150127
C        2.7513436675    0.6429887113   -0.1760240954
C        1.9962595112   -0.6859766975   -0.0561731123
N        2.0124674269   -1.1413759539    1.3351650870
O        4.1311410353   -1.9767032375    1.2702225593
O        2.7825932120    1.0261054554   -1.5458622443
H        3.0802372178   -3.2686207310    3.4148885016
H        3.7265936661   -1.7152881771    3.9405561618
H        1.9654702874   -1.9301574681    3.7829896374
H       -0.0221006402    0.1227086814    0.0541907153
H        0.0606806667   -1.5592919142   -0.5210968532
H        0.5467874166   -0.2201326278   -1.5846541685
H        3.8655412433    1.9921022436   -2.9639257888
H        4.8552703061    1.2206861900   -1.6919583496
H        3.9722722754    2.7364095696   -1.3457247321
H        2.2558584329    1.4211282672    0.4277480106
H        3.7673101056    0.4986788452    0.2113943647
H        2.5441488299   -1.4263792139   -0.6452735890
H        1.1944451965   -0.9699395228    1.9040699444
22   
torsion grid (-135,)
C        3.1108677332   -1.7140500606    1.8753063107
C        2.9585718156   -2.1833176281    3.3134531240
C        0.5450613839   -0.5901637842   -0.5752416438
C        3.9638159924    1.6957246718   -1.8900464292
C        2.6711618889    0.7318888059   -0.1317368121
C        1.9816347190   -0.6373229873   -0.0600757173
N        2.0048853248   -1.1339139985    1.3170029495
O        4.1654156385   -1.8565856162    1.2554711452
O        2.7085351805    1.1649323237   -1.4889613167
H        3.1596316359   -3.2572729394    3.3530380812
H        3.7141209443   -1.6856956130    3.9272871361
H        1.9694106316   -1.9906941900    3.7391935617
H       -0.0759788003    0.0651162081    0.0494473211
H        0.0982585021   -1.5894911544   -0.5820027018
H        0.5306957401   -0.1914325117   -1.5917203382
H        3.8787471498    1.9459649178   -2.9504627933
H        4.7703999977    0.9612353786   -1.7564854610
H        4.2178393941    2.6072657944   -1.3290082828
H        2.1217446484    1.4661028349    0.4780009817
H        3.6825884216    0.6308764215    0.2765609035
H        2.5721613827   -1.3321972462   -0.6637008224
H        1.1736398598   -1.0197231546    1.8811462085
22   
torsion grid (-120,)
C        3.1473824385   -1.6723310986    1.8698367213
C        3.0052273536   -2.1888683395    3.2925884149
C        0.5590212362   -0.6030814446   -0.5820209709
C        3.9904292028    1.5810909519   -1.8581822028
C        2.6109597336    0.8073076545   -0.0691219411
C        1.9887420811   -0.5972356050   -0.0467971020
N        2.0189722634   -1.1335865210    1.3152528498
O        4.2136646704   -1.7438395630    1.2573398473
O        2.6729824751    1.2887054208   -1.4098310571
H        3.2557813639   -3.2530631093    3.3042532689
H        3.7314211837   -1.6742620455    3.9274447448
H        2.0045247890   -2.0545108723    3.7137113930
H       -0.1018118207    0.0001032823    0.0542097153
H        0.1608773462   -1.6216737615   -0.6295107896
H        0.5401213232   -0.1707258939   -1.5847561508
H        3.9097397573    1.8766910597   -2.9072333393
H        4.6478445193    0.7039772339   -1.7809309118
H        4.4359695871    2.4090737232   -1.2879472427
H        1.9941595672    1.4968958060    0.5250769867
H        3.6071948748    0.7590071009    0.3821989084
H        2.6198310424   -1.2460478270   -0.6610129490
H        1.1769886800   -1.0769900186    1.8721306481
22   
torsion grid (-105,)
C        3.1655508217   -1.6048650791    1.8427019000
C        3.0365711585   -2.1650600062    3.2499567622
C        0.5614291680   -0.5877715871   -0.6135459463
C        3.9707692445    1.4779618327   -1.8401266358
C        2.5327327106    0.9061977466   -0.0290089082
C        1.9804713460   -0.5291911351   -0.0544031135
N        2.0184023147   -1.1035047637    1.2916429611
O        4.2385171351   -1.6113139466    1.2374843927
O        2.6351778877    1.4295282369   -1.3503972467
H        3.3381762283   -3.2158949526    3.2364330669
H        3.7315451736   -1.6330776708    3.9051279516
H        2.0269591451   -2.0900752305    3.6645091049
H       -0.1386947529   -0.0406290215    0.0312805164
H        0.2149074819   -1.6222051305   -0.7033443075
H        0.5366956866   -0.1213739921   -1.6009576820
H        3.9170793854    1.8313900470   -2.8727704194
H        4.4486043099    0.4887310999   -1.8223977622
H        4.5850368310    2.1759233637   -1.2535769352
H        1.8468375352    1.5537632631    0.5332976658
H        3.5042374315    0.9098926347    0.4765207155
H        2.6502340225   -1.1316609670   -0.6752269225
H        1.1698026469   -1.0980156915    1.8412928229
22   
torsion grid (-90,)
C        3.1589244484   -1.5534994700    1.8307042328
C        3.0189641992   -2.1398072542    3.2261355575
C        0.5877539238   -0.5669425588   -0.6666794358
C        3.9056298075    1.3971913904   -1.8437092201
C        2.4733292763    0.9976412350    0.0122913969
C        1.9859517618   -0.4613695848   -0.0632888243
N        2.0112659893   -1.0627052773    1.2707889015
O        4.2403795041   -1.5312997366    1.2413387051
O        2.6109640573    1.5786208319   -1.2792388614
H        3.3440924171   -3.1833544904    3.2005698596
H        3.6909761604   -1.6036960155    3.9016121145
H        2.0011999541   -2.0937574499    3.6246607843
H       -0.1546607750   -0.0675671507   -0.0304930251
H        0.2894624384   -1.6124682010   -0.7928328675
H        0.5706779544   -0.0755776900   -1.6422751274
H        3.8879216415    1.8642707735   -2.8312375560
H        4.1651565501    0.3356186885   -1.9535362493
H        4.6764295636    1.8820814434   -1.2282053723
H        1.7335726032    1.6012679814    0.5523028412
H        3.4208435444    1.0347479188    0.5634785582
H        2.6965560109   -1.0270425270   -0.6722498738
H        1.1548004776   -1.0785782201    1.8079870131
22   
torsion grid (-75,)
C        3.1486566420   -1.5884414431    1.8532334551
C        2.9511886479   -2.1650047871    3.2457665212
C        0.7092680618   -0.5705550664   -0.7471636062
C        3.7844239810    1.3496394186   -1.9095236668
C        2.5059520629    1.0352931742    0.0759591774
C        2.0658274332   -0.4356202433   -0.0600683168
N        2.0341799148   -1.0536085810    1.2655118416
O        4.2437667526   -1.6122783467    1.2904740454
O        2.6242922322    1.7112862893   -1.1683821865
H        3.2521161642   -3.2159208126    3.2344296837
H        3.6143500813   -1.6417039154    3.9399263684
H        1.9229286375   -2.0927257738    3.6121956370
H       -0.0828279933   -0.0962100072   -0.1533389736
H        0.4474130682   -1.6223698326   -0.8976339447
H        0.7334465707   -0.0697634211   -1.7180486106
H        3.8380763711    2.0310115455   -2.7617961855
H        3.7357883743    0.3181540037   -2.2838104143
H        4.6934903390    1.4570987341   -1.3011786891
H        1.7512111765    1.5885704714    0.6465519498
H        3.4550005958    1.0708211844    0.6286896927
H        2.8260443789   -0.9798428373   -0.6252270317
H        1.1705862564   -1.0175186441    1.7906107816
22   
torsion grid (-60,)
C        3.1647760846   -1.6299774393    1.8242584226
C        2.9326704977   -2.2180947473    3.2065828807
C        0.8162169222   -0.5647753513   -0.8236268986
C        3.6635441550    1.3047978584   -1.9738959509
C        2.5297214583    1.0739276853    0.1149524857
C        2.1391577073   -0.4046267893   -0.0770415529
N        2.0733228088   -1.0522120648    1.2321196725
O        4.2647384286   -1.6822692480    1.2738625117
O        2.6701652791    1.8130713991   -1.0911918857
H        3.2053427878   -3.2764982672    3.1861237701
H        3.6004499072   -1.7212845584    3.9156681741
H        1.9019593020   -2.1220595376    3.5604138418
H       -0.0143181474   -0.1316996759   -0.2516272211
H        0.5960524156   -1.6203855737   -1.0091904114
H        0.8579794616   -0.0390948640   -1.7809900905
H        3.8335291670    2.0740009035   -2.7309489697
H        3.3404298172    0.3828811374   -2.4762951470
H        4.6061352329    1.1041443461   -1.4448778085
H        1.7498013980    1.5895116284    0.6859866370
H        3.4649779864    1.1089776702    0.6929912718
H        2.9385231034   -0.9167719864   -0.6162138803
H        1.2089511717   -0.9892839554    1.7537154229
22   
torsion grid (-45,)
C        3.1746642990   -1.6231942702    1.8147513542
C        2.9251765734   -2.2297752765    3.1858683214
C        0.8670823893   -0.5550376405   -0.8572590765
C        3.6104899494    1.2539183796   -2.0022979704
C        2.5285517493    1.1079905154    0.1431617770
C        2.1729515166   -0.3743891685   -0.0831723268
N        2.0890286216   -1.0415944200    1.2148238962
O        4.2820986413   -1.6642675423    1.2790258743
O        2.7785835286    1.8752700121   -1.0308266642
H        3.2076746842   -3.2853791940    3.1576400634
H        3.5767274073   -1.7353625927    3.9115568121
H        1.8880154854   -2.1466800836    3.5237375540
H        0.0162521834   -0.1591239566   -0.2883691808
H        0.6792206697   -1.6117979281   -1.0699091124
H        0.9038733785   -0.0075388436   -1.8025983440
H        3.8595818275    2.0271113136   -2.7329502522
H        3.1033014597    0.4313734319   -2.5237500302
H        4.5401868883    0.8705112610   -1.5578100124
H        1.7048959724    1.6152437050    0.6571239788
H        3.4138974501    1.1364481838    0.7957682438
H        2.9950835011   -0.8631877058   -0.6081431191
H        1.2168671423   -0.9895431251    1.7244862027
22   
torsion grid (-30,)
C        2.8349211610   -1.7203833156    1.0367458877
C        2.7519514287   -2.5811975122    2.2864871555
C        0.6447257628    0.2340288908   -0.7556678363
C        4.5117399578    1.2556176591    1.1375270076
C        2.2491848782    1.8099215073    0.3787554595
C        2.0118303404    0.3589736694   -0.0664112832
N        2.1006430259   -0.5661376580    1.0628595518
O        3.5382959780   -2.0400116648    0.0779322904
O        3.5834331226    2.2208018303    0.6530006497
H        2.4130582421   -3.5808029251    2.0019035022
H        3.7561588703   -2.6832551604    2.7069878733
H        2.0832427732   -2.1823035115    3.0549091363
H       -0.1654301255    0.5644468201   -0.0938937567
H        0.4592093820   -0.8078961882   -1.0297501152
H        0.6083459061    0.8423037792   -1.6649314589
H        5.4652554888    1.7827168614    1.2202929934
H        4.6347760259    0.4074667611    0.4558878947
H        4.2304546887    0.8745567124    2.1296496498
H        1.8971802801    2.4820345033   -0.4096779953
H        1.6201835483    1.9973930501    1.2679729482
H        2.7876485904    0.0492130061   -0.7692196736
H        1.5173316384   -0.3807346536    1.8687388835
22   
torsion grid (-15,)
C        2.8283803519   -1.7225635915    1.0524165480
C        2.7483445285   -2.5811361149    2.3038116745
C        0.6636530223    0.2301832651   -0.7625790648
C        4.5272388578    1.2348633117    1.1182064540
C        2.2350809562    1.8094550601    0.4030024762
C        2.0183337512    0.3599269695   -0.0495557012
N        2.0975628379   -0.5659052702    1.0791478763
O        3.5249192090   -2.0466440036    0.0901950689
O        3.5375019939    2.2146358447    0.8193779768
H        2.3964275190   -3.5775462898    2.0237181472
H        3.7553678808   -2.6930587065    2.7148797850
H        2.0910223859   -2.1743826693    3.0778682993
H       -0.1599753026    0.5494101489   -0.1124177111
H        0.4922967584   -0.8115239302   -1.0462424380
H        0.6376510927    0.8433719540   -1.6689180688
H        5.4608884878    1.7906456490    1.2345179286
H        4.6553021972    0.4972080770    0.3192758636
H        4.3133519699    0.7032987408    2.0552112087
H        1.9615468054    2.4723404500   -0.4254594771
H        1.5280870127    2.0154727151    1.2248263868
H        2.8036459641    0.0529187068   -0.7422163405
H        1.5213909722   -0.3730336453    1.8884110927
22   
torsion grid (0,)
C        2.7088469967   -1.7958370979    1.0640046649
C        2.6432893298   -2.6373617417    2.3279790518
C        0.7554018154    0.1551165666   -0.7755450459
C        4.5605999346    1.3816670606    1.0109486777
C        2.1940447082    1.8114628598    0.4558915751
C        2.0667422292    0.3548571660   -0.0000559061
N        2.1411594473   -0.5532206053    1.1453652253
O        3.2563650862   -2.2056654051    0.0402627552
O        3.4528325973    2.2739686231    0.9501389729
H        2.1211641837   -3.5708956385    2.1014223452
H        3.6621027813   -2.8967232111    2.6281915377
H        2.1411929944   -2.1409436460    3.1635140213
H       -0.1113264736    0.4434794442   -0.1690900889
H        0.6492063648   -0.8967977764   -1.0519857307
H        0.7469256786    0.7542693483   -1.6917925149
H        5.4025639035    1.9869501497    1.3551607927
H        4.8168464628    0.9578712268    0.0318035258
H        4.3989213381    0.5602184219    1.7178901571
H        1.9299827119    2.4492987806   -0.3970618371
H        1.4439615109    2.0010256578    1.2393010174
H        2.8947729517    0.0816721546   -0.6558277519
H        1.6487405823   -0.2937842584    1.9904162845
22   
torsion grid (15,)
C        2.6210164232   -1.8601920285    1.0583897240
C        2.5855516553   -2.6879399672    2.3325996925
C        0.8362819108    0.1154947672   -0.8034992711
C        4.5802381301    1.4591808958    0.9376645548
C        2.1868207544    1.7878631315    0.5044241051
C        2.1115737650    0.3377329822    0.0228045588
N        2.1658397309   -0.5752287876    1.1676676670
O        3.0468514903   -2.3182559165   -0.0025358321
O        3.4029554462    2.2424163824    1.1015593131
H        1.9704055376   -3.5747516938    2.1578431604
H        3.5994757774   -3.0314309590    2.5548045397
H        2.1943475041   -2.1473744725    3.1993895206
H       -0.0581810243    0.3787566765   -0.2273937485
H        0.7674756785   -0.9354947888   -1.0930579935
H        0.8513030463    0.7227298784   -1.7145193730
H        5.3616741571    1.9851248252    1.4911808711
H        4.8899236036    1.3881942664   -0.1146978228
H        4.4728754702    0.4482688656    1.3448845759
H        1.9736265997    2.4270380019   -0.3640920578
H        1.3912249292    1.9712300534    1.2394604883
H        2.9705804831    0.0976566479   -0.6070324012
H        1.8009974522   -0.2545143372    2.0548649740
22   
torsion grid (30,)
C        2.5553897342   -1.8982898692    1.0739828282
C        2.5929144321   -2.6946505779    2.3681557203
C        0.8535286381    0.0894378641   -0.8124870996
C        4.5599863089    1.4790547920    0.9614520850
C        2.1809669812    1.7564406581    0.5249943916
C        2.1144783490    0.3098033986    0.0336569221
N        2.1511472657   -0.5970754365    1.1843100213
O        2.8701647306   -2.3979817028   -0.0070370586
O        3.3388575856    2.1448346760    1.2645171147
H        1.9239877464   -3.5539812504    2.2706203666
H        3.6050836728   -3.0822363493    2.5118267897
H        2.3025476787   -2.1165376210    3.2501921814
H       -0.0499169225    0.3274056077   -0.2401957126
H        0.8034621998   -0.9548234488   -1.1276135047
H        0.8731544435    0.7187323328   -1.7086721102
H        5.3172189368    1.9416402693    1.5986316455
H        4.8552155020    1.6181619758   -0.0888896966
H        4.5171437357    0.4061411444    1.1793458442
H        2.0872495203    2.4027085106   -0.3610605019
H        1.3257520666    1.9712546050    1.1767057045
H        2.9839963693    0.0781787425   -0.5871002223
H        1.9738804924   -0.2123034441    2.1026989119
22   
torsion grid (45,)
C        2.4793446476   -1.9277673552    1.0481503956
C        2.5825680966   -2.7070925530    2.3493944935
C        0.8719797136    0.1029643042   -0.8369923250
C        4.5739466927    1.5116021683    0.9846613709
C        2.2194720256    1.7385765173    0.5195373096
C        2.1324305356    0.2963769855    0.0141412318
N        2.1504215595   -0.6055148791    1.1687263713
O        2.6708629684   -2.4605273135   -0.0457417433
O        3.3107398779    2.0285742034    1.3904522678
H        1.8686786784   -3.5346154606    2.3196023785
H        3.5837385620   -3.1409269234    2.4202249627
H        2.3890565188   -2.1034044032    3.2407170534
H       -0.0290857132    0.3219571923   -0.2540158042
H        0.8207957095   -0.9289869916   -1.1889155559
H        0.8921202076    0.7648267468   -1.7098550607
H        5.3072956087    1.9120775102    1.6881453898
H        4.8394552787    1.8427368625   -0.0301626878
H        4.6056272881    0.4161348260    1.0202027060
H        2.2596668809    2.3990995765   -0.3605454224
H        1.3196817517    1.9944827608    1.0888573306
H        3.0014233554    0.0599485057   -0.6082961248
H        2.1666770067   -0.1830655331    2.0883808351
22   
torsion grid (60,)
C        2.4051691399   -1.9391394062    1.0794680455
C        2.5487467801   -2.6956254160    2.3906275146
C        0.8457966867    0.0969667021   -0.8187211429
C        4.5650208112    1.6428957633    1.0022747370
C        2.2247546654    1.7268738520    0.5154345588
C        2.1136836672    0.2789941275    0.0223501804
N        2.1283289567   -0.6033312283    1.1904834701
O        2.5168873199   -2.5019399706   -0.0103720292
O        3.2562623091    1.9508697186    1.4719353593
H        1.8099392575   -3.5012256017    2.4123546949
H        3.5388123245   -3.1587366607    2.4227560669
H        2.4159413041   -2.0685253880    3.2767965211
H       -0.0475460002    0.3186687524   -0.2250346664
H        0.7837126589   -0.9316785159   -1.1777264829
H        0.8629758005    0.7661603540   -1.6864206981
H        5.2604562294    1.9791070114    1.7743867510
H        4.7859144910    2.1738895078    0.0648091903
H        4.7031244234    0.5661800846    0.8412016305
H        2.3623891295    2.3841268227   -0.3564747363
H        1.2992344137    2.0214497696    1.0204982458
H        2.9761811068    0.0265332723   -0.6051175416
H        2.2649681297   -0.1579585091    2.0900193622
22   
torsion grid (75,)
C        2.3261977215   -2.0240058289    1.1180476796
C        2.4817696766   -2.7590972897    2.4403310172
C        0.8578949318    0.0263134745   -0.8119795615
C        4.6071010865    1.7830506855    0.9732148506
C        2.2725633340    1.6416697565    0.5013154319
C        2.1289462599    0.1880974058    0.0275751066
N        2.1223602805   -0.6732171385    1.2106259930
O        2.3659761835   -2.6165258556    0.0390335910
O        3.2810665792    1.8267212965    1.4898471119
H        1.7167064439   -3.5377417549    2.4996589688
H        3.4559588310   -3.2558848022    2.4539529252
H        2.3967249632   -2.1100057704    3.3164220189
H       -0.0290292858    0.2782550115   -0.2205605390
H        0.7689941053   -1.0041751198   -1.1589701194
H        0.8923562829    0.6856899340   -1.6868381827
H        5.2768246959    2.0251872976    1.8012460649
H        4.7418082676    2.5241440756    0.1724284418
H        4.8654997091    0.7888993541    0.5845124108
H        2.4538621112    2.2909439885   -0.3670064566
H        1.3407016684    1.9632419184    0.9784620552
H        2.9875525172   -0.0916879705   -0.5956971391
H        2.3486928528   -0.2183422616    2.0875166373
22   
torsion grid (90,)
C        2.2235228504   -2.1005273402    1.1667245769
C        2.3708086334   -2.8269332002    2.4950462917
C        0.8858398666   -0.0182157921   -0.7968231629
C        4.6566668741    1.9588427197    0.9276469410
C        2.3380441953    1.5608867851    0.5158081961
C        2.1529927846    0.1093936013    0.0540204403
N        2.1050213045   -0.7380017789    1.2472052957
O        2.1966937700   -2.7096145379    0.0967612226
O        3.3723931693    1.7072714473    1.4865661339
H        1.5735284129   -3.5702458005    2.5773289924
H        3.3224316931   -3.3661043477    2.4969980619
H        2.3310778813   -2.1647984126    3.3645314750
H        0.0024802026    0.2668438755   -0.2150754980
H        0.7654928161   -1.0471969585   -1.1376492156
H        0.9502466092    0.6346995908   -1.6748533355
H        5.3530100272    2.0586345166    1.7632006830
H        4.6563220288    2.8916361573    0.3464156492
H        4.9927148872    1.1361115054    0.2812294699
H        2.5182997189    2.2056243422   -0.3543009849
H        1.4192297686    1.9020967255    1.0062387920
H        3.0127853985   -0.1992401353   -0.5555784017
H        2.4115893911   -0.2941972554    2.1053928464
22   
torsion grid (105,)
C        2.1698630950   -2.1417300438    1.2110379330
C        2.3108154381   -2.8612401286    2.5439159540
C        0.9134761675   -0.0348968931   -0.7693041011
C        4.6965129967    2.1358511658    0.9308022829
C        2.4221802750    1.5065169497    0.5228861411
C        2.1857937223    0.0594440199    0.0779928906
N        2.1099194648   -0.7740451673    1.2807878812
O        2.0978476672   -2.7597577538    0.1485476879
O        3.4898886170    1.6072204369    1.4663240004
H        1.4954336701   -3.5828831505    2.6396095772
H        3.2483000108   -3.4248119565    2.5413363382
H        2.2970321584   -2.1912670900    3.4081503580
H        0.0414616750    0.2869299194   -0.1895861101
H        0.7569120656   -1.0628319887   -1.0978161384
H        0.9985365970    0.6054330296   -1.6548230654
H        5.4321275316    2.1310935216    1.7383460399
H        4.5562606978    3.1679830755    0.5802035673
H        5.0772688756    1.5248251958    0.0999971923
H        2.6073067629    2.1351288342   -0.3562370297
H        1.5220068681    1.8832809165    1.0242573410
H        3.0379933888   -0.2793899544   -0.5268160217
H        2.4665453177   -0.3427045828    2.1258396438
22   
torsion grid (120,)
C        2.1574864255   -2.1950447926    1.2307198202
C        2.3011407127   -2.9008039288    2.5706493869
C        0.9338095935   -0.0807648156   -0.7596769090
C        4.7135193890    2.2672423655    0.9372425929
C        2.5097904441    1.4328398549    0.4833616823
C        2.2210566241   -0.0109487694    0.0674734138
N        2.1360274367   -0.8252819557    1.2839601287
O        2.0522304219   -2.8242281287    0.1776543576
O        3.6119648610    1.4928258795    1.3914593141
H        1.4837862260   -3.6184652705    2.6773872522
H        3.2369642683   -3.4673628974    2.5704454456
H        2.2940628820   -2.2212334462    3.4274542817
H        0.0801531847    0.2759591137   -0.1731928763
H        0.7423974230   -1.1088483427   -1.0685507100
H        1.0245865311    0.5419604139   -1.6571114273
H        5.4889973020    2.1973609542    1.7035338949
H        4.4361789317    3.3227862481    0.8056755899
H        5.1145453514    1.8822667256   -0.0112514094
H        2.7029419014    2.0311476661   -0.4145213989
H        1.6320100570    1.8568298689    0.9894987458
H        3.0564237900   -0.3814722488   -0.5414718951
H        2.5189217604   -0.3964507222    2.1184788545
22   
torsion grid (135,)
C        2.1270347886   -2.2299084514    1.2369749945
C        2.2764823706   -2.9194880368    2.5845918174
C        0.9297498322   -0.1017509671   -0.7549830929
C        4.7068214041    2.3603418568    0.9549546761
C        2.5900975347    1.3711558571    0.4246526482
C        2.2377747757   -0.0651352520    0.0412615940
N        2.1506777174   -0.8594513916    1.2718767877
O        1.9794162947   -2.8702167281    0.1957802627
O        3.7299460513    1.3836642679    1.2852503554
H        1.4428419206   -3.6137889603    2.7165413543
H        3.1972716005   -3.5101221422    2.5762811077
H        2.3028200882   -2.2274786044    3.4310432342
H        0.1027072130    0.2931611657   -0.1551073936
H        0.6961536570   -1.1272070865   -1.0427214188
H        1.0210757465    0.5033796649   -1.6642885250
H        5.5320307841    2.2369507562    1.6600897859
H        4.3083360872    3.3811388759    1.0474175674
H        5.0851550646    2.2171411614   -0.0673065436
H        2.7864101468    1.9376608884   -0.4941326738
H        1.7454194113    1.8481170561    0.9424781328
H        3.0471645583   -0.4716212952   -0.5786955775
H        2.5639946040   -0.4333481357    2.0930353912
22   
torsion grid (150,)
C        2.0795174395   -2.2617153460    1.2606297419
C        2.2491631786   -2.9328289785    2.6152647308
C        0.9079582798   -0.1230785861   -0.7374958828
C        4.6836138047    2.3957270055    0.9975239753
C        2.6651927995    1.2987903946    0.3588179089
C        2.2411963723   -0.1269017531    0.0168314756
N        2.1594796731   -0.8930175576    1.2659297831
O        1.8718594996   -2.9144943723    0.2376457444
O        3.8402260328    1.2658777067    1.1661514819
H        1.4138555182   -3.6193712191    2.7731859471
H        3.1662350833   -3.5293976776    2.5988563663
H        2.2971329326   -2.2281537052    3.4502562688
H        0.1170300229    0.3168708655   -0.1205483785
H        0.6237448975   -1.1432961865   -0.9970051212
H        0.9953909093    0.4602042618   -1.6612648171
H        5.5501409266    2.2480066793    1.6459542145
H        4.1765360517    3.3287247406    1.2849676081
H        5.0242541858    2.4839275715   -0.0441150741
H        2.8554882484    1.8372257499   -0.5794195483
H        1.8609114538    1.8261061538    0.8951183479
H        3.0127030580   -0.5789314459   -0.6190877587
H        2.6102817316   -0.4664466605    2.0668174445
22   
torsion grid (165,)
C        2.0742006349   -2.2084437693    1.2801791327
C        2.2720969843   -2.8705977011    2.6354881995
C        0.9444272512   -0.0426956992   -0.7069128143
C        4.7192032445    2.4531567378    1.1043574280
C        2.8012046694    1.3077502437    0.3073821982
C        2.3029897452   -0.1003816926   -0.0016686983
N        2.2344282849   -0.8467821909    1.2601172888
O        1.7772432696   -2.8616803154    0.2798923326
O        4.0071571300    1.2254409736    1.0603043741
H        1.4058447526   -3.5023037141    2.8466527524
H        3.1490936811   -3.5226959216    2.5823416893
H        2.4058011475   -2.1592897873    3.4553905487
H        0.1962620403    0.4335231231   -0.0641072994
H        0.6073550811   -1.0507434465   -0.9496251713
H        1.0235744917    0.5325595100   -1.6363627630
H        5.6154908375    2.2841581387    1.7051632007
H        4.1204500603    3.2514633273    1.5679522437
H        5.0159713974    2.7749913566    0.0956492641
H        2.9751255067    1.8358566849   -0.6412388769
H        2.0426103078    1.8706588164    0.8751694805
H        3.0291953752   -0.5928762717   -0.6605702964
H        2.7513802440   -0.4375743068    2.0297064246
22   
torsion grid (180,)
C        2.0575091409   -2.1819724880    1.2918850760
C        2.2850985447   -2.8184115541    2.6548180358
C        0.9298204472   -0.0261179692   -0.7042856373
C        4.6800003839    2.4442332297    1.1868049663
C        2.8680174074    1.2815144525    0.2040050611
C        2.3123508969   -0.1160801595   -0.0504648187
N        2.2681563679   -0.8284816772    1.2311840449
O        1.6951762298   -2.8468440416    0.3212750655
O        4.0985590996    1.1781401346    0.9116831800
H        1.4020235301   -3.4052630569    2.9192231632
H        3.1295590443   -3.5102861145    2.5821478996
H        2.4849127517   -2.0936735774    3.4491382406
H        0.2246199195    0.4916903747   -0.0452176373
H        0.5483988341   -1.0268540484   -0.9085475635
H        0.9926222317    0.5236900517   -1.6501667215
H        5.6061344954    2.2614957690    1.7360144111
H        4.0121705234    3.0676793043    1.8000624630
H        4.9126655357    2.9857339261    0.2583010221
H        3.0188493868    1.7930905312   -0.7580452311
H        2.1464459412    1.8715588949    0.7929115771
H        2.9927639469   -0.6505227926   -0.7254902587
H        2.8349707528   -0.4205668505    1.9656627881
