24   
torsion grid (-45,)
C        0.1554254747    0.4078073377   -2.3776722297
C        0.0873941077   -0.8279476532   -1.6765913735
C       -1.0748511544    1.0040510623   -2.5266307968
C       -1.1525550305   -3.5854133573   -0.3559812720
C       -1.6556476488   -2.3051579071   -0.5712241323
C       -1.2074673631   -1.1584986568   -1.3067618008
C       -2.1605598055   -4.2145297310    0.5252520576
C        1.2842372148   -3.8149462511    0.1545777840
C       -2.0465721661   -5.5197507651    1.2435953805
C        0.1567987440   -4.1699343262   -0.7997177845
N       -2.9644736461   -3.2600977050    0.9493878153
O        2.1150056597   -2.9476117077   -0.0339790121
O       -2.9749676997   -2.3885906370   -0.2022743838
O        1.2571157120   -4.5656915177    1.2871330997
S       -2.3424165571    0.0765139644   -1.8056196917
H        1.0779978646    0.8429820384   -2.7469901157
H        0.9533147425   -1.4250761665   -1.4126602278
H       -1.3065009744    1.9415714349   -3.0165383707
H       -1.0471249099   -5.6627358203    1.6635891981
H       -2.7943617487   -5.5711124763    2.0378619644
H       -2.2364598970   -6.3423985335    0.5438917274
H        0.4386366669   -3.7954568338   -1.7868213911
H        0.0712520976   -5.2593145916   -0.8496084013
H        1.9787922376   -4.2354817348    1.8571108562
24   
torsion grid (-30,)
C        0.1497616788    0.3869243738   -2.3867374706
C        0.0784567141   -0.8302528940   -1.6513154650
C       -1.0788338029    0.9789902997   -2.5553308311
C       -1.1513984577   -3.5541278408   -0.2973078359
C       -1.6653940499   -2.2885233472   -0.5173473383
C       -1.2153613967   -1.1490953470   -1.2752029837
C       -2.1423967173   -4.1866361965    0.5496740662
C        1.2933298240   -3.8018134919    0.1605653350
C       -2.0527329204   -5.5222398402    1.2180267951
C        0.1455730046   -4.1408924952   -0.7747122974
N       -3.0464810690   -3.3029001376    0.9250946109
O        2.1335264124   -2.9461019596   -0.0379584125
O       -2.9551046056   -2.2934573561   -0.0738173795
O        1.2732761457   -4.5568819151    1.2897972673
S       -2.3487760390    0.0699013853   -1.8140590121
H        1.0739540103    0.8107630612   -2.7650277080
H        0.9446518561   -1.4190214661   -1.3702138041
H       -1.3094314961    1.9037470399   -3.0693277243
H       -1.0828514436   -5.6599595992    1.7037894325
H       -2.8509097958   -5.6225304574    1.9563264042
H       -2.1722638592   -6.3201311518    0.4758877616
H        0.4072206956   -3.7612231857   -1.7647538489
H        0.0526360698   -5.2292974663   -0.8298674792
H        2.0092033173   -4.2408173947    1.8494836519
24   
torsion grid (-15,)
C        0.1211657057    0.3819966943   -2.3637096903
C        0.0512319877   -0.8113317052   -1.5883868365
C       -1.1127238355    0.9419360558   -2.5896565887
C       -1.1736764105   -3.5313659722   -0.2368345681
C       -1.6964925493   -2.2779298623   -0.4678773737
C       -1.2455656669   -1.1436543426   -1.2401160280
C       -2.1550132515   -4.1649077106    0.5974871178
C        1.2694014289   -3.8005594033    0.2020086299
C       -2.0868201808   -5.5243818603    1.2208033759
C        0.1166163148   -4.1162032426   -0.7348385188
N       -3.1323780962   -3.3368698752    0.9052034977
O        2.1085678367   -2.9402338316    0.0200304636
O       -2.9465745737   -2.2198459829    0.0617554948
O        1.2542753614   -4.5834107628    1.3121245968
S       -2.3864149333    0.0287353385   -1.8592992720
H        1.0481498313    0.8125227269   -2.7273669920
H        0.9195426435   -1.3740227808   -1.2633013661
H       -1.3459183660    1.8455883558   -3.1387852550
H       -1.1659202910   -5.6434400000    1.7984282363
H       -2.9485542500   -5.6799427518    1.8727352873
H       -2.0963773666   -6.2992527914    0.4459499842
H        0.3723141723   -3.7129353806   -1.7166787686
H        0.0196006379   -5.2026748500   -0.8148175670
H        1.9940566984   -4.2826989550    1.8751867584
24   
torsion grid (0,)
C        0.1128244934    0.3804144070   -2.3668184951
C        0.0480558751   -0.8032531217   -1.5762391259
C       -1.1231584067    0.9345924280   -2.5960974299
C       -1.1696194979   -3.5133728680   -0.1983299433
C       -1.6987953276   -2.2674908489   -0.4455418300
C       -1.2464303601   -1.1338545890   -1.2193292911
C       -2.1497826657   -4.1470356634    0.6317826325
C        1.2742628268   -3.7902628112    0.2191952098
C       -2.1051858415   -5.5276264028    1.2088597087
C        0.1135191916   -4.1045656601   -0.7078742988
N       -3.1826109654   -3.3612717372    0.8534462208
O        2.1179247512   -2.9361517272    0.0288770610
O       -2.9034498162   -2.1633342543    0.1713628579
O        1.2599467778   -4.5678843838    1.3328309170
S       -2.3922496080    0.0261521569   -1.8528576006
H        1.0377281064    0.8089602342   -2.7380380024
H        0.9184259781   -1.3608247034   -1.2477569695
H       -1.3596126304    1.8326618491   -3.1529689203
H       -1.2228292369   -5.6501600667    1.8434676244
H       -3.0036361180   -5.7160145166    1.7995890523
H       -2.0483983002   -6.2784449591    0.4129156151
H        0.3600538841   -3.7009126613   -1.6916627378
H        0.0147177050   -5.1909774308   -0.7872257215
H        2.0049226122   -4.2698492115    1.8903864675
24   
torsion grid (15,)
C        0.1049713348    0.3640624837   -2.3905079048
C        0.0488904377   -0.8179480846   -1.5976859634
C       -1.1318928629    0.9290106572   -2.5899512764
C       -1.1580472148   -3.5127551468   -0.1741931306
C       -1.6906952851   -2.2714901333   -0.4379588800
C       -1.2397399074   -1.1367449574   -1.2091668449
C       -2.1446946712   -4.1418934572    0.6581537960
C        1.2869249702   -3.7970339147    0.2146817756
C       -2.1294252444   -5.5397768209    1.1932713677
C        0.1139287672   -4.1175369260   -0.6944033641
N       -3.2179916367   -3.3882015274    0.7836617286
O        2.1335575919   -2.9507524377    0.0039420793
O       -2.8438601748   -2.1291407393    0.2695438155
O        1.2787376897   -4.5594967893    1.3388756005
S       -2.3908282815    0.0321889910   -1.8177591377
H        1.0242643701    0.7852320014   -2.7834872792
H        0.9216894964   -1.3831810941   -1.2891810669
H       -1.3725082977    1.8305684822   -3.1394083076
H       -1.2848730243   -5.6730612397    1.8759601479
H       -3.0579563178   -5.7463919130    1.7287450660
H       -2.0196748521   -6.2709475986    0.3848012063
H        0.3482332502   -3.7236489859   -1.6851076753
H        0.0117266197   -5.2044656037   -0.7627351576
H        2.0309899118   -4.2590865691    1.8852242021
24   
torsion grid (30,)
C        0.0980740880    0.3357613030   -2.4123695796
C        0.0526794984   -0.8533323471   -1.6313766341
C       -1.1349754158    0.9292226266   -2.5480680117
C       -1.1404620499   -3.5263190240   -0.1361947084
C       -1.6740433512   -2.2853281009   -0.4224588449
C       -1.2241553042   -1.1493378269   -1.1862162637
C       -2.1508069683   -4.1560630884    0.6924582101
C        1.3065432320   -3.8118592241    0.2213898706
C       -2.1671892514   -5.5687953484    1.1840642322
C        0.1191299831   -4.1508099714   -0.6616800457
N       -3.2474957852   -3.4240528049    0.6976230878
O        2.1555808829   -2.9773576151   -0.0241869702
O       -2.7749613181   -2.1239131328    0.3703947288
O        1.3069714249   -4.5416879830    1.3670897532
S       -2.3765068650    0.0511622533   -1.7297145203
H        1.0072171068    0.7431782790   -2.8417851042
H        0.9262882368   -1.4390019358   -1.3665220644
H       -1.3792904527    1.8438924562   -3.0737816948
H       -1.3923984487   -5.7054138938    1.9451472911
H       -3.1394553154   -5.8011735463    1.6226637725
H       -1.9624227248   -6.2791323021    0.3756509710
H        0.3385877079   -3.7792987983   -1.6644976323
H        0.0153484198   -5.2390376957   -0.7052839183
H        2.0675441255   -4.2309589124    1.8957502250
24   
torsion grid (45,)
C        0.1077658546    0.3183244594   -2.4427208848
C        0.0727941866   -0.8791958096   -1.6767434628
C       -1.1132945972    0.9507764776   -2.4967477575
C       -1.1071617881   -3.5234394209   -0.0871818283
C       -1.6345193241   -2.2781170071   -0.4039463906
C       -1.1858964357   -1.1447609945   -1.1612776415
C       -2.1714955648   -4.1637916008    0.7216258029
C        1.3424962063   -3.8011081448    0.2401787647
C       -2.2288217824   -5.5900220515    1.1627942236
C        0.1398762917   -4.1751151658   -0.6075889522
N       -3.2623191100   -3.4397567975    0.5714687057
O        2.1868737985   -2.9769993260   -0.0529150255
O       -2.6921049062   -2.1211766981    0.4608792040
O        1.3615062522   -4.4841724491    1.4142381144
S       -2.3311185750    0.0991920199   -1.6187267822
H        1.0020659186    0.7063514668   -2.9187291605
H        0.9421363971   -1.4929591295   -1.4675883930
H       -1.3581883594    1.8816683409   -2.9929678688
H       -1.5568427203   -5.7358247220    2.0153003101
H       -3.2451434782   -5.8448061897    1.4696360843
H       -1.9072808682   -6.2772882753    0.3728178508
H        0.3423089643   -3.8424595661   -1.6279426196
H        0.0377587922   -5.2645684705   -0.6086476518
H        2.1296401986   -4.1518921471    1.9181504769
