
  -OEChem-05262117483D

 24 26  0     0  0  0  0  0  0999 V2000
   -0.0063   -2.3105    2.1000 C   0  0  0  0  0  0  0  0  0  0  0  0
    1.0533   -1.8729    2.8826 C   0  0  0  0  0  0  0  0  0  0  0  0
    5.3397   -1.6020    6.4961 C   0  0  0  0  0  0  0  0  0  0  0  0
   -0.6371   -1.3692    1.2766 C   0  0  0  0  0  0  0  0  0  0  0  0
    6.3571   -1.7039    7.4054 C   0  0  0  0  0  0  0  0  0  0  0  0
    6.1175    0.6044    6.5193 C   0  0  0  0  0  0  0  0  0  0  0  0
    1.4521   -0.5266    2.8252 C   0  0  0  0  0  0  0  0  0  0  0  0
    5.1972   -0.2694    5.9809 C   0  0  0  0  0  0  0  0  0  0  0  0
    0.7361    0.3389    1.9505 C   0  0  0  0  0  0  0  0  0  0  0  0
    4.1835    0.0987    4.9965 C   0  0  0  0  0  0  0  0  0  0  0  0
    2.5646   -0.0996    3.6582 C   0  0  0  0  0  0  0  0  0  0  0  0
   -0.2810   -0.0851    1.2010 N   0  0  0  0  0  0  0  0  0  0  0  0
    3.2786   -0.8152    4.4876 N   0  0  0  0  0  0  0  0  0  0  0  0
    4.0542    1.3225    4.5205 N   0  0  0  0  0  0  0  0  0  0  0  0
    2.9668    1.1965    3.6195 O   0  0  0  0  0  0  0  0  0  0  0  0
    1.0168    1.6506    1.8007 O   0  0  0  0  0  0  0  0  0  0  0  0
    7.1556   -0.1811    7.6476 S   0  0  0  0  0  0  0  0  0  0  0  0
   -0.3398   -3.3428    2.1197 H   0  0  0  0  0  0  0  0  0  0  0  0
    1.5898   -2.5449    3.5451 H   0  0  0  0  0  0  0  0  0  0  0  0
    4.7067   -2.4271    6.1918 H   0  0  0  0  0  0  0  0  0  0  0  0
   -1.4735   -1.6638    0.6444 H   0  0  0  0  0  0  0  0  0  0  0  0
    6.6863   -2.5809    7.9478 H   0  0  0  0  0  0  0  0  0  0  0  0
    6.2279    1.6593    6.3046 H   0  0  0  0  0  0  0  0  0  0  0  0
    1.7647    1.9123    2.3688 H   0  0  0  0  0  0  0  0  0  0  0  0
  1  2  1  0  0  0  0
  1  4  2  0  0  0  0
  1 18  1  0  0  0  0
  2  7  2  0  0  0  0
  2 19  1  0  0  0  0
  3  5  2  0  0  0  0
  3  8  1  0  0  0  0
  3 20  1  0  0  0  0
  4 12  1  0  0  0  0
  4 21  1  0  0  0  0
  5 17  1  0  0  0  0
  5 22  1  0  0  0  0
  6  8  2  0  0  0  0
  6 17  1  0  0  0  0
  6 23  1  0  0  0  0
  7  9  1  0  0  0  0
  7 11  1  0  0  0  0
  8 10  1  0  0  0  0
  9 12  2  0  0  0  0
  9 16  1  0  0  0  0
 10 13  1  0  0  0  0
 10 14  2  0  0  0  0
 11 13  2  0  0  0  0
 11 15  1  0  0  0  0
 14 15  1  0  0  0  0
 16 24  1  0  0  0  0
M  END
$$$$
