32
0 1 C16H11N3OS
C                     7.488817262645    -3.717316861616     4.596746418953
C                     1.804985618841    -0.765399340420    -0.090841057700
C                     0.472438618471    -0.868899624067     0.317229788975
C                     2.808877502667    -1.279962010058     0.725120567229
C                     0.166379622827    -1.480846664657     1.534431196636
C                     9.271102724346    -2.979874096113     0.179915637203
C                     9.141658300255    -2.658031093677    -1.138579522722
C                     6.975544986344    -2.534566049268     0.081141673354
C                     2.506156080608    -1.896856185513     1.953610023307
C                     8.023672978711    -2.915332362601     0.911461918633
C                     1.158369808466    -2.002433632590     2.377701995791
C                     3.640242222049    -2.408549661606     2.740328082592
C                     5.629302361168    -2.972864741783     3.196963125298
C                     8.011528351142    -3.246723536996     2.316662097763
C                     7.047672628632    -3.293580305713     3.292286716147
C                     0.746881582990    -2.645889381875     3.679209741737
N                     7.878829455455    -4.063075715874     5.638905932688
N                     4.918515320705    -2.496120933322     2.208605513663
N                     3.570754713657    -2.811998997322     3.996141302312
O                     4.885823689273    -3.187710953904     4.306415739492
S                     7.492576807430    -2.267803906750    -1.530993439221
H                     2.059451863194    -0.288206630931    -1.033178042944
H                    -0.325555450450    -0.475524801131    -0.307224561368
H                     3.847320684228    -1.199326087240     0.423910522910
H                    -0.872834559347    -1.558908621897     1.843951916131
H                    10.216182996000    -3.258110917268     0.635786595642
H                     9.907655224624    -2.625928277727    -1.902439047420
H                     5.942752919966    -2.406560108756     0.368799177093
H                     8.994548670846    -3.533908967037     2.683675217101
H                     1.145152300562    -3.660342346341     3.772305115522
H                     1.131316941222    -2.089701796890     4.538974602958
H                    -0.342804711896    -2.689806962778     3.751487680937
