29
0 1 BrC11H14NO2
C                     0.124818769674     1.944482129181     1.296919424981
C                    -2.550293254179     2.584359000073     1.716205097823
C                    -0.860136380665     1.022725591801     0.911534320659
C                    -0.203569720933     3.163066927781     1.895155219454
C                    -1.563099541360     3.487784542537     2.104107741558
C                    -2.194669081476     1.366983535444     1.132534794946
C                    -0.506403058680    -0.381419836605    -1.291403742121
C                     0.870468179404    -1.079166077310    -1.185245803519
C                    -0.454848397564    -0.276686501264     0.261951106740
C                     2.093038079283     3.775392811628     2.143814569436
C                    -1.704299055092     5.854329217849     1.989749709942
N                     1.008728261900    -0.544772602829     0.200863138254
O                     0.712827172072     4.088870517217     2.313803990481
O                    -1.943880899202     4.649680216424     2.733673128824
Br                   -3.612758816226     0.168028168591     0.608481141531
H                     1.152868355181     1.657223852605     1.110817060589
H                    -3.588542841549     2.847984058376     1.887486415068
H                    -0.452232796323     0.600060064114    -1.767066330414
H                    -1.334466564243    -0.951404235661    -1.713941023711
H                     0.785717099424    -2.173258788495    -1.233224327380
H                     1.660118446656    -0.751615364187    -1.869215492348
H                    -1.021594480805    -1.101349127772     0.714020159759
H                     2.642554512385     4.625748351699     2.549767024485
H                     2.346781160643     3.647322983551     1.084628091017
H                     2.365014892789     2.867662867648     2.695341108631
H                    -2.092259162180     6.669448588454     2.603778322008
H                    -2.243379769634     5.827091487838     1.034334406276
H                    -0.636004330897     6.003456737548     1.809679002650
H                     1.336932477127    -1.218891837801     0.889901312865
