
  -OEChem-05262117483D

 32 34  0     0  0  0  0  0  0999 V2000
    7.4888   -3.7173    4.5967 C   0  0  0  0  0  0  0  0  0  0  0  0
    1.8050   -0.7654   -0.0908 C   0  0  0  0  0  0  0  0  0  0  0  0
    0.4724   -0.8689    0.3172 C   0  0  0  0  0  0  0  0  0  0  0  0
    2.8089   -1.2800    0.7251 C   0  0  0  0  0  0  0  0  0  0  0  0
    0.1664   -1.4808    1.5344 C   0  0  0  0  0  0  0  0  0  0  0  0
    9.2711   -2.9799    0.1799 C   0  0  0  0  0  0  0  0  0  0  0  0
    9.1417   -2.6580   -1.1386 C   0  0  0  0  0  0  0  0  0  0  0  0
    6.9755   -2.5346    0.0811 C   0  0  0  0  0  0  0  0  0  0  0  0
    2.5062   -1.8969    1.9536 C   0  0  0  0  0  0  0  0  0  0  0  0
    8.0237   -2.9153    0.9115 C   0  0  0  0  0  0  0  0  0  0  0  0
    1.1584   -2.0024    2.3777 C   0  0  0  0  0  0  0  0  0  0  0  0
    3.6402   -2.4085    2.7403 C   0  0  0  0  0  0  0  0  0  0  0  0
    5.6293   -2.9729    3.1970 C   0  0  0  0  0  0  0  0  0  0  0  0
    8.0115   -3.2467    2.3167 C   0  0  0  0  0  0  0  0  0  0  0  0
    7.0477   -3.2936    3.2923 C   0  0  0  0  0  0  0  0  0  0  0  0
    0.7469   -2.6459    3.6792 C   0  0  0  0  0  0  0  0  0  0  0  0
    7.8788   -4.0631    5.6389 N   0  0  0  0  0  0  0  0  0  0  0  0
    4.9185   -2.4961    2.2086 N   0  0  0  0  0  0  0  0  0  0  0  0
    3.5708   -2.8120    3.9961 N   0  0  0  0  0  0  0  0  0  0  0  0
    4.8858   -3.1877    4.3064 O   0  0  0  0  0  0  0  0  0  0  0  0
    7.4926   -2.2678   -1.5310 S   0  0  0  0  0  0  0  0  0  0  0  0
    2.0595   -0.2882   -1.0332 H   0  0  0  0  0  0  0  0  0  0  0  0
   -0.3256   -0.4755   -0.3072 H   0  0  0  0  0  0  0  0  0  0  0  0
    3.8473   -1.1993    0.4239 H   0  0  0  0  0  0  0  0  0  0  0  0
   -0.8728   -1.5589    1.8440 H   0  0  0  0  0  0  0  0  0  0  0  0
   10.2162   -3.2581    0.6358 H   0  0  0  0  0  0  0  0  0  0  0  0
    9.9077   -2.6259   -1.9024 H   0  0  0  0  0  0  0  0  0  0  0  0
    5.9428   -2.4066    0.3688 H   0  0  0  0  0  0  0  0  0  0  0  0
    8.9945   -3.5339    2.6837 H   0  0  0  0  0  0  0  0  0  0  0  0
    1.1452   -3.6603    3.7723 H   0  0  0  0  0  0  0  0  0  0  0  0
    1.1313   -2.0897    4.5390 H   0  0  0  0  0  0  0  0  0  0  0  0
   -0.3428   -2.6898    3.7515 H   0  0  0  0  0  0  0  0  0  0  0  0
  1 15  1  0  0  0  0
  1 17  3  0  0  0  0
  2  3  1  0  0  0  0
  2  4  2  0  0  0  0
  2 22  1  0  0  0  0
  3  5  2  0  0  0  0
  3 23  1  0  0  0  0
  4  9  1  0  0  0  0
  4 24  1  0  0  0  0
  5 11  1  0  0  0  0
  5 25  1  0  0  0  0
  6  7  2  0  0  0  0
  6 10  1  0  0  0  0
  6 26  1  0  0  0  0
  7 21  1  0  0  0  0
  7 27  1  0  0  0  0
  8 10  2  0  0  0  0
  8 21  1  0  0  0  0
  8 28  1  0  0  0  0
  9 11  2  0  0  0  0
  9 12  1  0  0  0  0
 10 14  1  0  0  0  0
 11 16  1  0  0  0  0
 12 18  1  0  0  0  0
 12 19  2  0  0  0  0
 13 15  1  0  0  0  0
 13 18  2  0  0  0  0
 13 20  1  0  0  0  0
 14 15  2  0  0  0  0
 14 29  1  0  0  0  0
 16 30  1  0  0  0  0
 16 31  1  0  0  0  0
 16 32  1  0  0  0  0
 19 20  1  0  0  0  0
M  END
$$$$
