
  -OEChem-05262117483D

 28 29  0     1  0  0  0  0  0999 V2000
    2.9485    0.3451    0.8244 C   0  0  0  0  0  0  0  0  0  0  0  0
    3.9445   -0.6196    1.2324 C   0  0  0  0  0  0  0  0  0  0  0  0
    2.0849   -0.3010   -0.0073 C   0  0  0  0  0  0  0  0  0  0  0  0
    3.6126   -1.7918    0.6091 C   0  0  0  0  0  0  0  0  0  0  0  0
   -0.3938    1.2356    0.9935 C   0  0  0  0  0  0  0  0  0  0  0  0
   -1.4628    0.1519    0.8565 C   0  0  0  0  0  0  0  0  0  0  0  0
   -0.2278   -0.9301   -0.8316 C   0  0  0  0  0  0  0  0  0  0  0  0
    0.8784    0.1425   -0.7861 C   0  0  1  0  0  0  0  0  0  0  0  0
    5.0987   -0.3610    2.1570 C   0  0  0  0  0  0  0  0  0  0  0  0
    4.1964   -3.1625    0.5937 C   0  0  0  0  0  0  0  0  0  0  0  0
    0.3923    1.4234   -0.2382 N   0  0  0  0  0  0  0  0  0  0  0  0
    2.4756   -1.6091   -0.1537 O   0  0  0  0  0  0  0  0  0  0  0  0
   -0.8840   -1.0789    0.4233 O   0  0  0  0  0  0  0  0  0  0  0  0
    2.8847    1.3869    1.1086 H   0  0  0  0  0  0  0  0  0  0  0  0
   -0.8510    2.1942    1.2629 H   0  0  0  0  0  0  0  0  0  0  0  0
    0.2935    0.9567    1.7977 H   0  0  0  0  0  0  0  0  0  0  0  0
   -1.9460   -0.0566    1.8159 H   0  0  0  0  0  0  0  0  0  0  0  0
   -2.2386    0.4697    0.1377 H   0  0  0  0  0  0  0  0  0  0  0  0
   -0.9617   -0.6410   -1.6032 H   0  0  0  0  0  0  0  0  0  0  0  0
    0.1804   -1.9102   -1.0857 H   0  0  0  0  0  0  0  0  0  0  0  0
    1.1861    0.3332   -1.8241 H   0  0  0  0  0  0  0  0  0  0  0  0
    4.7513   -0.0211    3.1394 H   0  0  0  0  0  0  0  0  0  0  0  0
    5.7019   -1.2598    2.3121 H   0  0  0  0  0  0  0  0  0  0  0  0
    5.7593    0.4178    1.7589 H   0  0  0  0  0  0  0  0  0  0  0  0
    3.4840   -3.9043    0.9731 H   0  0  0  0  0  0  0  0  0  0  0  0
    4.4819   -3.4649   -0.4207 H   0  0  0  0  0  0  0  0  0  0  0  0
    5.0896   -3.1980    1.2214 H   0  0  0  0  0  0  0  0  0  0  0  0
   -0.1939    1.8687   -0.9422 H   0  0  0  0  0  0  0  0  0  0  0  0
  1  2  1  0  0  0  0
  1  3  2  0  0  0  0
  1 14  1  0  0  0  0
  2  4  2  0  0  0  0
  2  9  1  0  0  0  0
  3  8  1  0  0  0  0
  3 12  1  0  0  0  0
  4 10  1  0  0  0  0
  4 12  1  0  0  0  0
  5  6  1  0  0  0  0
  5 11  1  0  0  0  0
  5 15  1  0  0  0  0
  5 16  1  0  0  0  0
  6 13  1  0  0  0  0
  6 17  1  0  0  0  0
  6 18  1  0  0  0  0
  7  8  1  0  0  0  0
  7 13  1  0  0  0  0
  7 19  1  0  0  0  0
  7 20  1  0  0  0  0
  8 11  1  0  0  0  0
  8 21  1  0  0  0  0
  9 22  1  0  0  0  0
  9 23  1  0  0  0  0
  9 24  1  0  0  0  0
 10 25  1  0  0  0  0
 10 26  1  0  0  0  0
 10 27  1  0  0  0  0
 11 28  1  0  0  0  0
M  END
$$$$
