18
0 1 C6ClH6N3O2
C                     1.876456366999    -0.941139346089     0.074839564366
C                     0.748959386724    -0.467739138541     0.717179633462
C                     1.628686764996    -1.175379606641     2.849853556793
C                     2.939589427888    -1.556464590491     0.788431609178
C                     2.781490766937    -1.660952932658     2.202410129135
C                     0.623488628393    -0.584965781606     2.114131061734
N                     4.119903066966    -1.887725058114    -1.279085115794
N                     4.041282658433    -2.009100016586     0.119396666512
N                     3.785232872444    -2.267597728725     3.051215529236
O                     3.582175776059    -2.323311511046     4.269532849923
O                     4.828637524281    -2.717707063904     2.522202247082
Cl                   -0.816490886808     0.023119799960     2.910157755621
H                     1.978870779010    -0.853817941269    -0.999284036221
H                    -0.045565782703    -0.002281208870     0.141765315297
H                     1.558758774786    -1.279377861919     3.925150851266
H                     4.206980409965    -2.815101261677    -1.693035126572
H                     4.947138071521    -1.344320494794    -1.521922696234
H                     4.774639673151    -2.454601742290     0.661667785165
