
  -OEChem-05262117483D

 18 18  0     0  0  0  0  0  0999 V2000
    1.8765   -0.9411    0.0748 C   0  0  0  0  0  0  0  0  0  0  0  0
    0.7490   -0.4677    0.7172 C   0  0  0  0  0  0  0  0  0  0  0  0
    1.6287   -1.1754    2.8499 C   0  0  0  0  0  0  0  0  0  0  0  0
    2.9396   -1.5565    0.7884 C   0  0  0  0  0  0  0  0  0  0  0  0
    2.7815   -1.6610    2.2024 C   0  0  0  0  0  0  0  0  0  0  0  0
    0.6235   -0.5850    2.1141 C   0  0  0  0  0  0  0  0  0  0  0  0
    4.1199   -1.8877   -1.2791 N   0  0  0  0  0  0  0  0  0  0  0  0
    4.0413   -2.0091    0.1194 N   0  0  0  0  0  0  0  0  0  0  0  0
    3.7852   -2.2676    3.0512 N   0  3  0  0  0  0  0  0  0  0  0  0
    3.5822   -2.3233    4.2695 O   0  5  0  0  0  0  0  0  0  0  0  0
    4.8286   -2.7177    2.5222 O   0  0  0  0  0  0  0  0  0  0  0  0
   -0.8165    0.0231    2.9102 Cl  0  0  0  0  0  0  0  0  0  0  0  0
    1.9789   -0.8538   -0.9993 H   0  0  0  0  0  0  0  0  0  0  0  0
   -0.0456   -0.0023    0.1418 H   0  0  0  0  0  0  0  0  0  0  0  0
    1.5588   -1.2794    3.9252 H   0  0  0  0  0  0  0  0  0  0  0  0
    4.2070   -2.8151   -1.6930 H   0  0  0  0  0  0  0  0  0  0  0  0
    4.9471   -1.3443   -1.5219 H   0  0  0  0  0  0  0  0  0  0  0  0
    4.7746   -2.4546    0.6617 H   0  0  0  0  0  0  0  0  0  0  0  0
  1  2  1  0  0  0  0
  1  4  2  0  0  0  0
  1 13  1  0  0  0  0
  2  6  2  0  0  0  0
  2 14  1  0  0  0  0
  3  5  2  0  0  0  0
  3  6  1  0  0  0  0
  3 15  1  0  0  0  0
  4  5  1  0  0  0  0
  4  8  1  0  0  0  0
  5  9  1  0  0  0  0
  6 12  1  0  0  0  0
  7  8  1  0  0  0  0
  7 16  1  0  0  0  0
  7 17  1  0  0  0  0
  8 18  1  0  0  0  0
  9 10  1  0  0  0  0
  9 11  2  0  0  0  0
M  CHG  2   9   1  10  -1
M  END
$$$$
