16   
torsion grid (-165,)
C        1.5077339694   -1.4860456994   -0.4043405924
C       -0.9386649396   -1.3353960305   -0.0946440658
C        3.9167337265   -0.1423716209    2.0770501112
C        2.8643444278   -1.2068939982    0.2378727973
N        0.4322861034   -1.1375167296    0.3468972389
O        1.4551260298   -1.9801873573   -1.5312151957
O        2.7250621081   -0.7275474996    1.5692157401
H       -1.4773048786   -2.0013797638    0.5885956406
H       -0.9103644073   -1.7894924459   -1.0856843091
H       -1.4731649674   -0.3807035587   -0.1549072126
H        3.7007704983    0.1955584785    3.0927965965
H        4.2279664760    0.7174907038    1.4665800626
H        4.7382078273   -0.8721992522    2.1076363534
H        3.3751712563   -0.4667627028   -0.3945024254
H        3.4512490201   -2.1346211561    0.2084987641
H        0.6270244409   -0.7540875343    1.2639269934
16   
torsion grid (-150,)
C        2.0434781685   -1.3788519888   -0.7663031676
C       -0.4102338586   -1.2178275134   -0.5228714971
C        4.2290109492   -0.6853077482    2.1018316424
C        3.3704396610   -1.3802474491   -0.0084933879
N        0.9415544730   -1.2290692071    0.0117109277
O        2.0373340763   -1.4957942878   -1.9923651041
O        3.1775163719   -1.3387738680    1.4016957477
H       -0.9346239151   -0.3004239797   -0.2340884348
H       -0.9831026037   -2.0815481205   -0.1664734976
H       -0.3420572046   -1.2627745914   -1.6103349893
H        3.9656638093   -0.7022461169    3.1616769854
H        4.3382036745    0.3575802233    1.7716176445
H        5.1872769425   -1.2050940343    1.9631148672
H        3.9336088748   -0.5036682094   -0.3554916074
H        3.9308580825   -2.2764240907   -0.3032238112
H        1.1024973807   -1.1690433414    1.0100363144
16   
torsion grid (-135,)
C        2.0746621110   -1.3811354138   -0.7571743887
C       -0.3697832119   -1.1593530815   -0.4732460793
C        4.1571920522   -0.6335131486    2.0897816997
C        3.4095011573   -1.4827260629   -0.0169480256
N        0.9866365690   -1.2442873995    0.0424943389
O        2.0516081761   -1.4175793487   -1.9879905088
O        3.2476221547   -1.4835967911    1.4000398490
H       -0.8652456134   -0.2499567243   -0.1162969027
H       -0.9629689624   -2.0295378615   -0.1696244324
H       -0.3142168358   -1.1318197179   -1.5620659179
H        3.9106331907   -0.6998320972    3.1518698546
H        4.0571587014    0.4102975203    1.7600564041
H        5.1972105878   -0.9562365832    1.9444669488
H        4.0207320655   -0.6350310638   -0.3487834479
H        3.9082667249   -2.4023861679   -0.3448276722
H        1.1614805183   -1.2629543873    1.0402757325
16   
torsion grid (-120,)
C        2.1226428316   -1.3855188188   -0.7391581874
C       -0.3135595939   -1.1210734880   -0.4175326852
C        4.0715379178   -0.5839400481    2.0683423996
C        3.4581715841   -1.5848258534   -0.0172268493
N        1.0453660031   -1.2654363480    0.0784809358
O        2.0882966087   -1.3451449925   -1.9694473003
O        3.3308230019   -1.6031057324    1.4039622911
H       -0.7896441092   -0.2310609004    0.0077435528
H       -0.9202489725   -2.0002378393   -0.1715629332
H       -0.2658671483   -1.0174580697   -1.5021434266
H        3.8608854701   -0.6836667369    3.1355796741
H        3.7680640100    0.4179657296    1.7331835918
H        5.1509208897   -0.7045502882    1.9050098515
H        4.1323626692   -0.7905253803   -0.3553027235
H        3.8754619495   -2.5401698907   -0.3539380474
H        1.2261235671   -1.3699492223    1.0699683938
16   
torsion grid (-105,)
C        1.8329747988   -0.3369765356    0.3148511241
C        1.2583376196   -2.2855891972   -1.0927171396
C        4.9165114608   -0.6229421073    1.6842935487
C        2.9912527312    0.5128353998    0.8480502797
N        2.2107938094   -1.4048528931   -0.4356297217
O        0.6689648151   -0.0262789322    0.5683807577
O        4.2800563620   -0.0233705844    0.5584794003
H        1.5068334282   -3.3336384610   -0.8968444592
H        1.2426454384   -2.1201783420   -2.1765136398
H        0.2674832101   -2.0699640808   -0.6912382503
H        5.8710663053   -1.0219242362    1.3338463553
H        4.3137205768   -1.4424707475    2.1006806333
H        5.1054703155    0.1183044890    2.4722499641
H        2.8363880765    0.6542983857    1.9230036465
H        2.9178982000    1.4955411939    0.3705357544
H        3.2036378014   -1.4922229565   -0.6179046534
16   
torsion grid (-90,)
C        1.8497248833   -0.3554168994    0.3468048790
C        1.3049354574   -2.3292572679   -1.0400543056
C        4.7992198473   -0.7162547745    1.6415406892
C        2.9876428179    0.5694075856    0.7964949752
N        2.2420500692   -1.3911097779   -0.4425087859
O        0.6877728213   -0.1244991558    0.6807264365
O        4.2922982221    0.0549800139    0.5538147104
H        1.6309898221   -3.3601056714   -0.8680645126
H        1.2058517209   -2.1625213423   -2.1191487121
H        0.3319525330   -2.1768913205   -0.5715465085
H        5.7803061328   -1.0874917670    1.3372929600
H        4.1452200870   -1.5683494795    1.8739858264
H        4.9114337958   -0.0970365935    2.5417513080
H        2.8300705419    0.8077466935    1.8546603705
H        2.8965027510    1.4997544661    0.2271235618
H        3.2230410303   -1.4164648199   -0.6944468278
16   
torsion grid (-75,)
C        1.9330948458   -0.3041097565    0.4352207565
C        1.3403541048   -2.2740957327   -0.9438242064
C        4.7420728446   -0.7936240084    1.6389864820
C        3.0728888080    0.6624913399    0.7862296129
N        2.2854657346   -1.2961000317   -0.4280452140
O        0.8015278520   -0.1381909679    0.8889278417
O        4.3794685257    0.1295679856    0.6126812858
H        1.7154263337   -3.2917802928   -0.7930491463
H        1.1511408176   -2.1193877293   -2.0124273447
H        0.4026702486   -2.1528178196   -0.4003716432
H        5.7431831556   -1.1569066685    1.3973456007
H        4.0482951770   -1.6434259527    1.6873761816
H        4.7642699539   -0.2976960123    2.6191905171
H        2.9073228517    1.0049157379    1.8151500270
H        2.9978071856    1.5294024278    0.1227512955
H        3.2435178219   -1.2911819104   -0.7574137935
16   
torsion grid (-60,)
C        2.2293004589   -0.0031408872    0.6953260511
C        1.4018652371   -1.9486300684   -0.6017504912
C        4.9346613199   -0.7229111676    1.6915044302
C        3.4299875510    0.9374912713    0.8784666629
N        2.4168196470   -0.9674601606   -0.2500094224
O        1.1890336343    0.1556116195    1.3315343032
O        4.7060820266    0.3230701225    0.7476297571
H        1.7852990640   -2.9677166314   -0.4815978708
H        1.0643811958   -1.8155579540   -1.6358569903
H        0.5526242096   -1.8044524880    0.0669613201
H        5.9433986730   -1.0963685254    1.5034252092
H        4.2157844962   -1.5438856724    1.5801869575
H        4.8769486632   -0.3412976776    2.7206928953
H        3.3132306795    1.4043638799    1.8648075636
H        3.3870910264    1.7211656006    0.1162483923
H        3.3212161279   -0.9927840772   -0.7056033759
16   
torsion grid (-45,)
C        2.2992959665   -0.1699729510    0.7105330490
C        1.5043616223   -2.1138025890   -0.6050279696
C        4.9845203322   -0.7668031530    1.5097339212
C        3.4044047192    0.8943131848    0.7976597474
N        2.4040875222   -0.9926507311   -0.3747211224
O        1.3904146307   -0.2337319224    1.5353002758
O        4.7363081953    0.3916651778    0.7146682842
H        1.9202650998   -3.0561802351   -0.2269328337
H        1.3040785935   -2.2172164848   -1.6752056888
H        0.5690136876   -1.9129485330   -0.0817337562
H        6.0490162207   -0.9868387450    1.4058494104
H        4.4021706323   -1.6333304239    1.1742262505
H        4.7563837274   -0.5798137014    2.5684622199
H        3.2471241968    1.4141099641    1.7509072044
H        3.2994362653    1.6135450811   -0.0199691148
H        3.2385757129   -0.9050272763   -0.9418856512
16   
torsion grid (-30,)
C        2.2621019878   -0.2325260429    0.7681265619
C        1.3699524732   -2.1372019157   -0.5425049979
C        4.8462008954   -0.8733902076    1.6089790323
C        3.3519041412    0.8495812522    0.7939139118
N        2.2466097016   -0.9865986983   -0.3727637509
O        1.4726981789   -0.3884283810    1.6970408363
O        4.6894401371    0.3559460488    0.9032700830
H        1.8754666383   -3.0767851632   -0.2865539734
H        1.0198152362   -2.1906700928   -1.5772083832
H        0.5141705995   -2.0118284556    0.1213410453
H        5.9219526119   -1.0536539509    1.6625471854
H        4.3686394782   -1.7131111923    1.0886911649
H        4.4387466950   -0.8130860681    2.6269240849
H        3.1173303827    1.4885683405    1.6532346713
H        3.3219545184    1.4539443105   -0.1182871292
H        2.9984701244   -0.8462580781   -1.0358501942
16   
torsion grid (-15,)
C        2.4164622650   -0.2068816476    0.7192862901
C        1.4153160834   -2.0637903405   -0.5794245682
C        4.9647083842   -0.7169744431    1.6446189946
C        3.4452217885    0.9304128057    0.6761721470
N        2.2731085995   -0.8931151870   -0.4549436793
O        1.7821205083   -0.4730431464    1.7385060696
O        4.7841368014    0.5463448987    1.0075607295
H        1.9804968414   -2.9961368346   -0.4587162343
H        0.9262565522   -2.0661492603   -1.5575661515
H        0.6579961239   -2.0138508334    0.2034500724
H        6.0377535728   -0.8026090313    1.8294220337
H        4.6480411507   -1.5503588355    1.0031391283
H        4.4244093174   -0.7792199175    2.5966277181
H        3.0967922364    1.6797091961    1.3956851677
H        3.4860835358    1.3889349609   -0.3184454390
H        2.8917158155   -0.6608105447   -1.2205161968
16   
torsion grid (0,)
C        3.2929600440   -0.9162379864   -0.0923958928
C        0.9856839185   -1.7757518723   -0.3829394294
C        4.4453943835   -0.5973699819    2.4019752202
C        4.1331261440    0.3407907417    0.1621888129
N        1.9438829129   -0.7015832811   -0.1608726424
O        3.8076508079   -2.0247691639   -0.2314430068
O        4.7021766244    0.4497540726    1.4678746172
H        0.2863963148   -1.5062257701   -1.1806221488
H        0.4198625984   -2.0009079065    0.5286123324
H        1.5441853796   -2.6644598037   -0.6778619714
H        4.9162161654   -0.2780192276    3.3344380865
H        4.8754507344   -1.5509175395    2.0787116593
H        3.3692253719   -0.7347280258    2.5794581426
H        3.5400357675    1.2477457705   -0.0157160383
H        4.9498122450    0.3162711044   -0.5678170638
H        1.5957561000    0.2302214634    0.0182051452
16   
torsion grid (15,)
C        3.3023180134   -0.9185341966   -0.1773040943
C        0.9671890906   -1.7525641375   -0.2766919996
C        4.3137432587   -0.6261530510    2.3737275586
C        4.1708085379    0.3099471473    0.1233795837
N        1.9548026721   -0.6970369288   -0.0999947883
O        3.7951328655   -2.0107834416   -0.4532080638
O        4.5139002702    0.4850983264    1.5021254695
H        0.1972897171   -1.4424102264   -0.9902368621
H        0.4884839089   -2.0155854409    0.6739684911
H        1.4842360066   -2.6303615137   -0.6649228271
H        4.6531545695   -0.2934027007    3.3570935491
H        4.8956779002   -1.5022903636    2.0640761292
H        3.2551433300   -0.9104189268    2.4413675901
H        3.6746833328    1.2331447074   -0.1974750467
H        5.0877580665    0.1811809884   -0.4624707795
H        1.6390268498    0.2209565481    0.1832239915
16   
torsion grid (30,)
C        3.3231952024   -0.9111067813   -0.2704814470
C        0.9827873999   -1.7341158643   -0.2091680724
C        4.2128842550   -0.5754173265    2.3570085313
C        4.2227002734    0.2802692055    0.0909084889
N        1.9926447214   -0.6998200584   -0.0341592320
O        3.7761860909   -1.9537486422   -0.7374418756
O        4.3350725898    0.5510514574    1.4906403462
H        0.1246611861   -1.3405752001   -0.7628456597
H        0.6362955544   -2.1266328122    0.7545594493
H        1.4336453503   -2.5476357507   -0.7779048477
H        4.4063046247   -0.2013191463    3.3646217582
H        4.9460843318   -1.3561992388    2.1147718776
H        3.2080337885   -1.0145135055    2.3251342192
H        3.8520882158    1.2012642457   -0.3703331404
H        5.2093874660    0.0451497364   -0.3248226440
H        1.7306497190    0.1636509658    0.4245188272
16   
torsion grid (45,)
C        3.2899004516   -0.9501830014   -0.3080476410
C        0.9357433655   -1.7244138534   -0.1802798480
C        4.1802530962   -0.5705761763    2.3918304904
C        4.2400521625    0.1817992744    0.1131135187
N        1.9917867255   -0.7545236364    0.0696010809
O        3.6802614768   -1.9179044136   -0.9573598307
O        4.1898134611    0.5371361350    1.4926721741
H        0.0620443321   -1.2342557185   -0.6214729787
H        0.6303895141   -2.2343091965    0.7414266524
H        1.3215288574   -2.4653782798   -0.8809144604
H        4.2208697246   -0.1479285753    3.3978514713
H        5.0554489469   -1.2171841796    2.2368502050
H        3.2734944115   -1.1788346557    2.2914656820
H        4.0062425462    1.0936342597   -0.4445917343
H        5.2475675043   -0.1536206628   -0.1626907938
H        1.7963101472    0.0495851402    0.6535081455
16   
torsion grid (60,)
C        3.2620270986   -0.9766319314   -0.3939552374
C        0.9048926980   -1.7326398395   -0.2324520955
C        4.2179752519   -0.5624560949    2.3864409663
C        4.2504436655    0.0930509411    0.0950172636
N        2.0006060964   -0.8368074983    0.1043321581
O        3.6005140388   -1.8406680069   -1.2007306197
O        4.0766538625    0.5023560959    1.4464777798
H        0.0537814633   -1.1714705014   -0.6325553437
H        0.5740686409   -2.3039035092    0.6427153981
H        1.2630314833   -2.4264831618   -0.9935990783
H        4.0839587424   -0.1227318412    3.3769277430
H        5.2194207909   -1.0109361378    2.3227141180
H        3.4699412517   -1.3501798707    2.2337440553
H        4.1331698901    0.9931036206   -0.5156494329
H        5.2567310438   -0.3123667460   -0.0702827068
H        1.8535961180   -0.0922841754    0.7753588451
16   
torsion grid (75,)
C        1.6878645864   -1.3075576078   -0.3898782801
C       -0.6778104890   -1.4689154978    0.3264979716
C        3.3879083281   -0.5997640831    2.0976250627
C        2.9729157494   -0.4818894957   -0.2366460992
N        0.6464950266   -0.8689751190    0.3694072120
O        1.6351474932   -2.2550204197   -1.1730568757
O        3.0748771810    0.2380616078    0.9854574999
H       -1.0076637127   -1.7549474800    1.3309160252
H       -0.6213242421   -2.3600370962   -0.2996013895
H       -1.4118675398   -0.7792579021   -0.1058222761
H        3.4298556537    0.0460678594    2.9772414942
H        4.3640642633   -1.0844400551    1.9581643523
H        2.6261254830   -1.3756353467    2.2514863294
H        2.9966057995    0.2607990947   -1.0398315596
H        3.8199839577   -1.1645105724   -0.3770661771
H        0.8174844912   -0.0531045545    0.9451524751
16   
torsion grid (90,)
C        1.6178507659   -1.3116592166   -0.4265721872
C       -0.7461679859   -1.4693586380    0.2848266016
C        3.4678426929   -0.5290415777    2.1170907289
C        2.9340892762   -0.5579622818   -0.1986837003
N        0.6010593282   -0.9323107907    0.3930292288
O        1.5314426016   -2.1654088931   -1.3089765856
O        2.9715849135    0.2073909829    1.0007230921
H       -1.0921054275   -1.8456323250    1.2533132572
H       -0.7227880005   -2.2913127823   -0.4315755707
H       -1.4494646605   -0.7085056138   -0.0729909283
H        3.4204646215    0.1358513254    2.9822964824
H        4.5103335948   -0.8335407902    1.9531285015
H        2.8616460644   -1.4243243448    2.3142157904
H        3.0584477679    0.1411401533   -1.0316498332
H        3.7520655165   -1.2858531394   -0.2474449282
H        0.7994869586   -0.1707651849    1.0310853387
16   
torsion grid (105,)
C        1.6009329725   -1.2972965443   -0.4640832429
C       -0.7751091170   -1.4551875148    0.2007036543
C        3.5910394673   -0.4376483307    2.1372258987
C        2.9353975194   -0.6121192231   -0.1509276743
N        0.5843380202   -0.9696709314    0.3759402630
O        1.5099405159   -2.0677072202   -1.4200909524
O        2.9152930519    0.1714922189    1.0399434775
H       -1.1440621513   -1.9152593332    1.1235044896
H       -0.7648186639   -2.2031067113   -0.5929932033
H       -1.4525599017   -0.6428753426   -0.0870308657
H        3.4809383365    0.2352434562    2.9906185705
H        4.6594926571   -0.5686564704    1.9196983836
H        3.1546173428   -1.4146065887    2.3892498207
H        3.1627825322    0.0530932921   -0.9903571003
H        3.7102133266   -1.3856874151   -0.1211933481
H        0.7942973964   -0.2679081017    1.0760046500
16   
torsion grid (120,)
C        1.5518446957   -1.2980579258   -0.4713111873
C       -0.8368820240   -1.4384467431    0.1456376846
C        3.6978682573   -0.3811911490    2.1510559101
C        2.9029640903   -0.6900012774   -0.0849797628
N        0.5297514020   -0.9962875252    0.3699288257
O        1.4584447906   -1.9996542956   -1.4790243727
O        2.8473975072    0.0886392131    1.1095643328
H       -1.2237647383   -1.9647266451    1.0248200443
H       -0.8341722185   -2.1193975850   -0.7062804078
H       -1.4950742563   -0.5913689369   -0.0795463341
H        3.5375607455    0.2735314680    3.0106782249
H        4.7546842438   -0.3306012104    1.8563466355
H        3.4539760601   -1.4147811925    2.4347301208
H        3.2274154352   -0.0532458694   -0.9152946583
H        3.6184705123   -1.5150249954   -0.0001757380
H        0.7517875426   -0.3659626172    1.1315245188
16   
torsion grid (135,)
C        1.4838951361   -1.3187039603   -0.5092092589
C       -0.9173208195   -1.4468646167    0.0590519333
C        3.7636594718   -0.3304439599    2.1045018027
C        2.8436168052   -0.7838710444   -0.0559110541
N        0.4544083475   -1.0519391440    0.3341632781
O        1.3931062141   -1.9482269803   -1.5637874310
O        2.7566250401   -0.0226029347    1.1469328665
H       -1.3252421159   -2.0365804173    0.8870838158
H       -0.9168797398   -2.0549752652   -0.8462490879
H       -1.5561776060   -0.5708726852   -0.1017220312
H        3.5677923472    0.2898913642    2.9820412798
H        4.7666353946   -0.0986953366    1.7208086741
H        3.7279789305   -1.3898022562    2.3955924686
H        3.2524241362   -0.1695050950   -0.8664730861
H        3.5001584682   -1.6535783037    0.0673348442
H        0.6776513381   -0.4858124911    1.1442135481
16   
torsion grid (150,)
C        1.4725786493   -1.3206036112   -0.4848449749
C       -0.9449937318   -1.4174451185    0.0135709824
C        3.8471492002   -0.2706124563    2.1111302730
C        2.8325727557   -0.8612262765    0.0388176827
N        0.4271095842   -1.0680613698    0.3428834774
O        1.3943717909   -1.8843227254   -1.5771003445
O        2.7150552686   -0.1390507784    1.2603249843
H       -1.3835563197   -2.0470480725    0.7953601329
H       -0.9348162261   -1.9703110754   -0.9263745834
H       -1.5629064314   -0.5204567859   -0.1083636208
H        3.6379769013    0.3091753200    3.0127928596
H        4.7553087858    0.1243054323    1.6347061141
H        4.0172438068   -1.3212555124    2.3864654681
H        3.3080676218   -0.2487758033   -0.7376231917
H        3.4417110825   -1.7651856772    0.1725620863
H        0.6428548638   -0.5732597889    1.2000903213
16   
torsion grid (165,)
C        1.4579063792   -1.3375313719   -0.4640687929
C       -0.9748652102   -1.3830975007   -0.0445186334
C        3.9041321407   -0.2191600727    2.0916735873
C        2.8163108239   -0.9505213736    0.1154014923
N        0.3957647768   -1.0955989714    0.3457565971
O        1.3935767712   -1.8442614700   -1.5847083475
O        2.6828374966   -0.2909823368    1.3680083990
H       -1.4577738682   -2.0387855531    0.6881089107
H       -0.9508222260   -1.8856618911   -1.0120060418
H       -1.5607478131   -0.4614081690   -0.1370183924
H        3.6902315330    0.2934845811    3.0318844463
H        4.6642506099    0.3489982755    1.5368677611
H        4.2976448180   -1.2230785576    2.3067023763
H        3.3289547754   -0.3125674979   -0.6167878368
H        3.3988337563   -1.8771340876    0.2190087784
H        0.5958140848   -0.6507437344    1.2334588539
16   
torsion grid (180,)
C        1.5102132431   -1.4091405198   -0.4132384227
C       -0.9367066547   -1.3687159968   -0.0761434583
C        3.9528535554   -0.1697187852    2.1084334667
C        2.8607699772   -1.0716174465    0.2121684450
N        0.4288553840   -1.1108011965    0.3510638387
O        1.4666459990   -1.9158273937   -1.5349575620
O        2.7094520949   -0.4943918204    1.5018514294
H       -1.4411392015   -2.0507379116    0.6173221462
H       -0.8984444070   -1.8295051689   -1.0637320798
H       -1.5107620277   -0.4374612760   -0.1390205954
H        3.7307133777    0.2630306534    3.0860782449
H        4.5094880308    0.5627369737    1.5063224767
H        4.5758117649   -1.0657826217    2.2422030172
H        3.3813683967   -0.3845257065   -0.4696086313
H        3.4452781886   -2.0013905635    0.2612063059
H        0.6137684166   -0.6984090153    1.2573974461
