29   
torsion grid (-165,)
C       -1.9535627328    0.1912628156    1.5705257169
C       -2.7306709800   -0.5844891700    2.4014682217
C       -0.6775436059   -0.2879976168    1.2010898209
C       -2.1747206641   -1.8109140376    2.8195926998
C       -0.2333762774    1.5002420272   -0.6665589429
C        0.2728319551    0.1674251577   -1.1723669359
C        0.2789863022    0.4652647329    0.3156345651
C       -0.0438626109   -2.2369218347   -1.8988787499
C       -2.3484948821   -3.8385033836    4.0511823535
C       -0.6717528611   -0.8410360652   -1.7950393338
N       -0.2163703191   -1.4580616803    1.6518658324
N       -0.9617012178   -2.2215148303    2.4616725921
N        1.5933592751    0.7333952177    0.8736759328
O       -2.9273573198   -2.5895674492    3.6288460894
H       -2.3054816148    1.1534833938    1.2122058363
H       -3.7205627645   -0.2907273665    2.7369958831
H        0.3900496050    2.3768992030   -0.8085442287
H       -1.3030674810    1.6806086129   -0.7308479714
H        1.2682188292    0.1919985350   -1.6107781821
H        0.8630848377   -2.2112532581   -2.5136502493
H       -0.7374147895   -2.9515725952   -2.3553183454
H        0.2321147871   -2.6110542439   -0.9077252972
H       -3.1079070351   -4.3026530806    4.6811423047
H       -1.4290868113   -3.6676034593    4.6169910258
H       -2.1218669119   -4.4714964820    3.1894761817
H       -1.6019058932   -0.8938041825   -1.2169412744
H       -0.9545366996   -0.4879148367   -2.7955194063
H        1.9944469099   -0.1535249678    1.1800606805
H        1.4953388759    1.3097970353    1.7100236777
29   
torsion grid (-150,)
C       -1.9941985005   -0.0455695893    1.2360995305
C       -2.7805834400   -0.8493842761    2.0286972649
C       -0.6103525618   -0.3265986406    1.1500881137
C       -2.1308592402   -1.9048816080    2.7012744128
C       -0.0993053337    1.5821645612   -0.5856874977
C        0.3126974499    0.2734096061   -1.2166536013
C        0.3646327796    0.4461587670    0.3019334231
C       -0.2933283470   -2.1206546421   -1.7996816478
C       -2.2163566701   -3.7794264485    4.1624134408
C       -0.6917644420   -0.6411049459   -1.8892037218
N       -0.0702460759   -1.3397348756    1.8332312320
N       -0.8252685119   -2.1300773901    2.6086818120
N        1.7060581568    0.6022761321    0.8332354931
O       -2.8923122590   -2.7085992346    3.4775416225
H       -2.4281675276    0.7927393737    0.7020992826
H       -3.8482043802   -0.6968938072    2.1534420995
H        0.5789662634    2.4257485188   -0.6621926614
H       -1.1528062033    1.8441337029   -0.6120632600
H        1.3066469153    0.2644913655   -1.6581261867
H        0.6826649722   -2.2920235281   -2.2677996165
H       -1.0244056324   -2.7590895870   -2.3075155944
H       -0.2201845589   -2.4453639374   -0.7574634426
H       -2.9981452604   -4.2955118267    4.7205372924
H       -1.4540360462   -3.3858194902    4.8396450954
H       -1.7405746807   -4.4566501703    3.4484778620
H       -1.6850619549   -0.5048147657   -1.4461003189
H       -0.7890499703   -0.3424369934   -2.9407430261
H        2.0408664747   -0.3190643862    1.1159811388
H        1.6594730288    1.1533673739    1.6911734698
29   
torsion grid (-135,)
C       -2.0058399907   -0.1590746450    1.0610795792
C       -2.7996922448   -0.9705509722    1.8358366997
C       -0.6017122843   -0.3413379610    1.1066130796
C       -2.1398997569   -1.9328557651    2.6292825942
C       -0.0755946298    1.6269388921   -0.5387233757
C        0.3243800757    0.3581684492   -1.2541742338
C        0.3812034243    0.4428272318    0.2802497751
C       -0.5092881272   -2.0224749920   -1.7078139650
C       -2.2247234284   -3.7193698237    4.1960817678
C       -0.6753941753   -0.5215336621   -1.9875464732
N       -0.0551138816   -1.2634850097    1.9032531199
N       -0.8197239904   -2.0609090309    2.6642913120
N        1.7279955892    0.5615141917    0.8057351697
O       -2.9103093761   -2.7450311130    3.3879081667
H       -2.4528568996    0.6075821676    0.4384536904
H       -3.8821513245   -0.8913545699    1.8604688393
H        0.6065585077    2.4706228393   -0.5693056971
H       -1.1269631279    1.8981061572   -0.5410838597
H        1.3247224119    0.3663172679   -1.6796871496
H        0.5071972667   -2.3562108652   -1.9454941740
H       -1.2044450676   -2.6111109301   -2.3164380642
H       -0.6940423212   -2.2600249017   -0.6580654222
H       -3.0150272229   -4.2607464740    4.7170245434
H       -1.5567305240   -3.2298985408    4.9094542872
H       -1.6391652093   -4.3982626557    3.5707729937
H       -1.6993257833   -0.2240622900   -1.7318047075
H       -0.5754278933   -0.3307907884   -3.0629016041
H        2.0519218324   -0.3730958123    1.0552624950
H        1.6907337008    1.0743947525    1.6877507503
29   
torsion grid (-120,)
C       -1.9862309896   -0.1814011204    1.0750731581
C       -2.7713896890   -0.9937617492    1.8569793124
C       -0.5811239772   -0.3615118665    1.1075254916
C       -2.1018806232   -1.9572924933    2.6416490032
C       -0.0886988051    1.6167107449   -0.5191944103
C        0.3581378216    0.3756685514   -1.2578555189
C        0.3919194006    0.4368053211    0.2835468983
C       -0.6798879923   -1.9865675728   -1.5914090638
C       -2.1687816954   -3.7491237113    4.2029407189
C       -0.5884247214   -0.5221725994   -2.0519732587
N       -0.0250229800   -1.2828374388    1.8972954584
N       -0.7815628849   -2.0845953505    2.6624297569
N        1.7317472781    0.5812177781    0.8222465108
O       -2.8637041311   -2.7723829996    3.4056334286
H       -2.4407592020    0.5770683781    0.4477409569
H       -3.8538519406   -0.9179160852    1.8905244826
H        0.5645896430    2.4837342970   -0.5316512619
H       -1.1479825553    1.8539123816   -0.5324934300
H        1.3695746880    0.4281212670   -1.6512843707
H        0.3160191092   -2.4279863586   -1.4748184279
H       -1.2246767291   -2.5825142855   -2.3320812760
H       -1.1978461587   -2.0912161979   -0.6381837411
H       -2.9530457587   -4.2930680603    4.7302893978
H       -1.4936435492   -3.2615884671    4.9108960872
H       -1.5893116480   -4.4251657220    3.5689420932
H       -1.5988303283   -0.0932095854   -2.0494145409
H       -0.2660377905   -0.4930548414   -3.0988841484
H        2.0740078615   -0.3483298252    1.0663030228
H        1.6743365748    1.0842925224    1.7089631795
29   
torsion grid (-105,)
C       -1.9616896663    0.2504609382    0.9718533049
C       -2.9867529391   -0.3325867712    1.6809716222
C       -0.6489235526   -0.2391106865    1.1586013269
C       -2.6338418416   -1.3856877621    2.5499537263
C        0.4155235561    1.2520206164   -0.7117982567
C        0.9122363210   -0.1530348725   -0.9831367517
C        0.5616883139    0.2951316772    0.4423479381
C       -0.6137490800   -2.2932717007   -1.1276094361
C       -3.2579376032   -3.0527806030    4.1272544085
C        0.1307452610   -1.1535235629   -1.8430713411
N       -0.3929803441   -1.2176062380    2.0307478716
N       -1.3816771929   -1.7956895384    2.7244427087
N        1.7358883625    0.5195870372    1.2711041646
O       -3.6318080710   -1.9831997656    3.2389828390
H       -2.1576355899    1.0704105701    0.2893425565
H       -4.0216642975   -0.0147642834    1.5994856169
H        1.1235425166    2.0737390682   -0.7572244483
H       -0.5806870300    1.4900818548   -1.0735338384
H        1.9910445243   -0.2211074558   -1.0893853425
H        0.0239915491   -2.7900699232   -0.3902620405
H       -0.9340855593   -3.0422659168   -1.8604117497
H       -1.5079440385   -1.9442500387   -0.6076547984
H       -4.1944843148   -3.3907490586    4.5718752265
H       -2.5715521949   -2.6938924112    4.8984175289
H       -2.7776098464   -3.8646601671    3.5751135274
H       -0.5851235011   -0.6112911449   -2.4735709462
H        0.8497479654   -1.5979646585   -2.5397099915
H        1.9277690277   -0.3432431700    1.7811133718
H        1.5104427208    1.2181936431    1.9806158679
29   
torsion grid (-90,)
C       -1.9656417594    0.2898655275    1.0724212296
C       -2.9806867738   -0.2904055488    1.7988184307
C       -0.6679420268   -0.2591012021    1.1714349337
C       -2.6299838668   -1.3995214203    2.5957144801
C        0.3608295279    1.1886844321   -0.7553398249
C        0.9387822133   -0.1993139565   -0.9450309876
C        0.5301834874    0.2895874039    0.4449661732
C       -0.7686581961   -2.2000449468   -1.1914274023
C       -3.2471829063   -3.1250782467    4.1117837626
C        0.2602658165   -1.2541581021   -1.8278551889
N       -0.4097536269   -1.2900279219    1.9797584276
N       -1.3879787800   -1.8647037297    2.6906250381
N        1.6724208449    0.6093644584    1.2898104222
O       -3.6182812685   -1.9956371592    3.2996813681
H       -2.1539967710    1.1522273352    0.4412467354
H       -4.0051326273    0.0686930928    1.7821443725
H        1.0215928840    2.0469243802   -0.8276946582
H       -0.6420392168    1.3474566094   -1.1433392858
H        2.0220244063   -0.1982112535   -1.0258400248
H       -0.3527121911   -2.7204838634   -0.3248434492
H       -1.0774528071   -2.9514125413   -1.9266735136
H       -1.6710951758   -1.6768880990   -0.8634593810
H       -4.1754314326   -3.4521709752    4.5812514714
H       -2.5133952313   -2.8344021634    4.8678515393
H       -2.8243149802   -3.9227467234    3.4956272712
H       -0.2027185379   -0.7510507368   -2.6859628309
H        1.0600675379   -1.8733530402   -2.2491122151
H        1.9095802386   -0.2265040478    1.8253813409
H        1.3927945716    1.3136330989    1.9738993984
29   
torsion grid (-75,)
C       -1.9803278410    0.2661207388    1.1123434414
C       -2.9856819995   -0.3193777219    1.8478229022
C       -0.6846931941   -0.2912163105    1.1808287526
C       -2.6263486096   -1.4414602177    2.6224890416
C        0.3205767596    1.1319264091   -0.7812953191
C        0.9508004050   -0.2402779300   -0.9112542076
C        0.5038761729    0.2739374328    0.4512919419
C       -0.9140859969   -2.0651954749   -1.3040321674
C       -3.2253217550   -3.1831504709    4.1274787676
C        0.3425982522   -1.3328762099   -1.7926439555
N       -0.4173491561   -1.3375967233    1.9657043728
N       -1.3862529752   -1.9172124528    2.6860538291
N        1.6193052542    0.6620135559    1.3044208645
O       -3.6046854401   -2.0407294455    3.3376832341
H       -2.1725815649    1.1382719845    0.4955313934
H       -4.0087360402    0.0440319971    1.8537235702
H        0.9514911005    2.0104197760   -0.8723025895
H       -0.6839443575    1.2416300614   -1.1823542825
H        2.0342360254   -0.1957334923   -0.9846039474
H       -0.7332744533   -2.5853118721   -0.3607553194
H       -1.2169563496   -2.8087726846   -2.0493583637
H       -1.7625526223   -1.3889877680   -1.1576907665
H       -4.1463855187   -3.5104970091    4.6107286493
H       -2.4750440267   -2.9071694259    4.8728094470
H       -2.8197602531   -3.9752887832    3.4928522016
H        0.1464878789   -0.8974490566   -2.7805704536
H        1.1202418031   -2.0894184198   -1.9507285693
H        1.8843331030   -0.1499642950    1.8632870459
H        1.3015873526    1.3715673914    1.9659572121
29   
torsion grid (-60,)
C       -1.9888456218    0.2401249592    1.1328003473
C       -2.9858303430   -0.3578274505    1.8693766048
C       -0.6898409849   -0.3102886894    1.1883747408
C       -2.6142943501   -1.4840820890    2.6324845082
C        0.2946621458    1.0826212036   -0.8080086941
C        0.9573294280   -0.2778412894   -0.8827383426
C        0.4887963069    0.2688191160    0.4553108975
C       -1.0257201222   -1.9298663707   -1.4043113856
C       -3.1922858104   -3.2399020726    4.1293270172
C        0.3858172398   -1.4182247330   -1.7193137872
N       -0.4102207991   -1.3628066607    1.9605901095
N       -1.3713720398   -1.9540768327    2.6826714906
N        1.5844002836    0.7130387921    1.3070323715
O       -3.5841941939   -2.0947328709    3.3497093311
H       -2.1888133552    1.1154174815    0.5226803532
H       -4.0113656183   -0.0017406159    1.8844637105
H        0.9081552519    1.9705081672   -0.9228525995
H       -0.7098671569    1.1606283628   -1.2158841101
H        2.0403156475   -0.2146904489   -0.9571465785
H       -1.0733846264   -2.4066516479   -0.4233947960
H       -1.3218630638   -2.6733216999   -2.1522491380
H       -1.7746974158   -1.1308038576   -1.4290645565
H       -4.1077866834   -3.5757436529    4.6173000553
H       -2.4381111160   -2.9641838145    4.8708300044
H       -2.7867098786   -4.0256210550    3.4867892416
H        0.4288013868   -1.1007671483   -2.7691334668
H        1.0740749462   -2.2681964654   -1.6343061079
H        1.8721937710   -0.0763992444    1.8865900199
H        1.2402477413    1.4284081622    1.9487076833
29   
torsion grid (-45,)
C       -1.9771703061    0.2568661775    1.1571004118
C       -2.9703608092   -0.3487528807    1.8923886172
C       -0.6811461244   -0.3025631705    1.1898661262
C       -2.5976499019   -1.4915656733    2.6303806416
C        0.2830043324    1.0527864960   -0.8365495783
C        0.9670107950   -0.2992963282   -0.8617420486
C        0.4906414151    0.2850719518    0.4538707671
C       -1.0816808259   -1.8228763675   -1.4949407262
C       -3.1718960105   -3.2726331159    4.0985864754
C        0.4140291501   -1.5020157742   -1.6148891825
N       -0.3995305328   -1.3725697928    1.9369160065
N       -1.3577535833   -1.9712328985    2.6577009862
N        1.5704242219    0.7752441056    1.2996607328
O       -3.5641413283   -2.1096138391    3.3459888366
H       -2.1772448980    1.1429397673    0.5625764873
H       -3.9938819778    0.0120525168    1.9238690526
H        0.8886561833    1.9414892338   -0.9823720895
H       -0.7235078068    1.1109436796   -1.2411160566
H        2.0491206135   -0.2261014349   -0.9438258433
H       -1.3452007685   -2.1866169235   -0.5001861716
H       -1.3480621533   -2.6060536302   -2.2127105694
H       -1.7114359592   -0.9541878179   -1.7166601515
H       -4.0842605419   -3.6113383851    4.5904410964
H       -2.4072425844   -3.0169950107    4.8365258970
H       -2.7795320725   -4.0485131472    3.4361866432
H        0.6583545232   -1.3486654733   -2.6741229636
H        0.9809081322   -2.3864904785   -1.2985272715
H        1.8790515743    0.0061085766    1.8955057690
H        1.2080118201    1.4959591022    1.9249657030
29   
torsion grid (-30,)
C       -1.9883661432    0.2733596595    1.2368281312
C       -2.9617919773   -0.3430940429    1.9890300031
C       -0.7027487807   -0.3102258609    1.1934617820
C       -2.5806328581   -1.5219588023    2.6643000370
C        0.2068786839    1.0195917681   -0.8701552678
C        0.9252054018   -0.3160233867   -0.8587943476
C        0.4467356150    0.2963833230    0.4398763700
C       -1.1316844524   -1.7598448048   -1.6195972042
C       -3.1291727296   -3.3495461136    4.0845118339
C        0.3884207454   -1.5781017216   -1.5210882215
N       -0.4123286108   -1.4187253256    1.8781487049
N       -1.3524393886   -2.0284903309    2.6148027662
N        1.5152508946    0.8402719364    1.2671928947
O       -3.5279035045   -2.1483995869    3.3980321153
H       -2.1943079276    1.1842789000    0.6827551622
H       -3.9762969567    0.0334018818    2.0775698164
H        0.7902561225    1.9172555592   -1.0484319316
H       -0.8060757749    1.0434415823   -1.2607830010
H        2.0047139936   -0.2246365522   -0.9552756684
H       -1.6003083510   -1.8919353039   -0.6425068040
H       -1.3580782735   -2.6524140209   -2.2123679825
H       -1.6134424388   -0.9104509279   -2.1160838700
H       -4.0262793825   -3.6890669804    4.6031401401
H       -2.3269153530   -3.1405960125    4.7967831949
H       -2.7843178352   -4.1052958531    3.3741878679
H        0.8052763535   -1.6048726864   -2.5359965560
H        0.8122853883   -2.4417108972   -0.9935175277
H        1.8607684747    0.0944074878    1.8722934320
H        1.1354088745    1.5600650691    1.8831001512
29   
torsion grid (-15,)
C       -1.9980513469    0.2858187192    1.2840117673
C       -2.9579551095   -0.3371381994    2.0478966043
C       -0.7192492928   -0.3085767676    1.1931293740
C       -2.5708213367   -1.5359989773    2.6840923476
C        0.1558214250    0.9927962991   -0.8967864507
C        0.8982285797   -0.3303590146   -0.8528408347
C        0.4160110436    0.3124969060    0.4297555208
C       -1.1437389397   -1.6913575193   -1.7507695749
C       -3.1005639082   -3.3898996272    4.0770181935
C        0.3528710070   -1.6356392005   -1.4208608310
N       -0.4243472753   -1.4390568550    1.8384990539
N       -1.3518087981   -2.0564976240    2.5858283595
N        1.4727401417    0.8976124723    1.2427122009
O       -3.5041099740   -2.1683501444    3.4304277038
H       -2.2081166456    1.2112287415    0.7556551551
H       -3.9656114626    0.0474166778    2.1728029114
H        0.7232938881    1.8941555749   -1.1056123726
H       -0.8594225046    0.9875554024   -1.2818272689
H        1.9754927640   -0.2309434941   -0.9605504600
H       -1.7728714535   -1.5434081124   -0.8690687081
H       -1.3964785664   -2.6712470448   -2.1692715554
H       -1.4192210940   -0.9354322638   -2.4940646762
H       -3.9863292794   -3.7308108263    4.6138980496
H       -2.2753398216   -3.2070294842    4.7699786383
H       -2.7859639819   -4.1327869554    3.3396414492
H        0.9118059789   -1.8493528349   -2.3402138121
H        0.5964037351   -2.4412297618   -0.7175415696
H        1.8446245341    0.1719151900    1.8564747735
H        1.0796840446    1.6183732275    1.8490091640
29   
torsion grid (0,)
C       -2.0244368986    0.2247316119    1.2499827150
C       -2.9763353262   -0.4083014255    2.0160766242
C       -0.7221511056   -0.3218511701    1.2067924814
C       -2.5593831723   -1.5687468660    2.7018690947
C        0.1357772999    0.9893537403   -0.8765543069
C        0.8669642891   -0.3414448027   -0.8501856202
C        0.4088214727    0.3081874065    0.4425478645
C       -1.1523732263   -1.5801350049   -1.9303671385
C       -3.0488070413   -3.3917771032    4.1492625866
C        0.2703820594   -1.6507599352   -1.3626962676
N       -0.4012058492   -1.4191980653    1.8963235541
N       -1.3198440347   -2.0454217896    2.6464311478
N        1.4769806345    0.8819893932    1.2463841140
O       -3.4840741134   -2.2100252025    3.4512462634
H       -2.2581684452    1.1252620633    0.6897864196
H       -3.9995756288   -0.0571045891    2.1079451985
H        0.7120037320    1.8832353430   -1.0932306538
H       -0.8823292503    0.9975069413   -1.2532151126
H        1.9426316019   -0.2577294867   -0.9792627301
H       -1.8835476230   -1.2649322720   -1.1788136423
H       -1.4644742899   -2.5658664388   -2.2914343923
H       -1.2109204394   -0.8813247517   -2.7716185876
H       -3.9321157026   -3.7466736357    4.6810907688
H       -2.2452672033   -3.1534375887    4.8507758081
H       -2.6918985962   -4.1479658820    3.4454271712
H        0.9305789277   -2.0260357263   -2.1534138792
H        0.3082367474   -2.3921579264   -0.5560423810
H        1.8476075266    0.1518904230    1.8555350380
H        1.0960546462    1.6053540513    1.8572170471
29   
torsion grid (15,)
C       -2.0756315300    0.0679383311    1.1624229218
C       -3.0242036869   -0.5774544997    1.9232523058
C       -0.7312493688   -0.3540572524    1.2623416509
C       -2.5635991988   -1.6227024399    2.7501158834
C        0.1371112179    0.9980254240   -0.7930847075
C        0.8100267434   -0.3622073295   -0.8228987681
C        0.4049507244    0.2736150087    0.5013985364
C       -1.1418312349   -1.4187622030   -2.1752413991
C       -3.0017340722   -3.3354177903    4.3417510671
C        0.1317988030   -1.6298351311   -1.3466840367
N       -0.3728966527   -1.3472096653    2.0808591894
N       -1.2861346586   -1.9826344840    2.8275270690
N        1.5104627559    0.7812798070    1.2956258708
O       -3.4834966676   -2.2735866510    3.4971098009
H       -2.3481607245    0.8908480857    0.5092711883
H       -4.0772394832   -0.3134187898    1.9118171626
H        0.7516815423    1.8694780060   -0.9946259079
H       -0.8819647567    1.0657975823   -1.1593948817
H        1.8847851153   -0.3199580428   -0.9743933065
H       -1.9528030980   -0.9876473550   -1.5781131271
H       -1.5043145607   -2.3740482014   -2.5699023967
H       -0.9565785139   -0.7501366521   -3.0225922849
H       -3.8890640414   -3.7192598232    4.8460836515
H       -2.2788938802   -2.9550443828    5.0680180313
H       -2.5267310428   -4.1191142328    3.7461069979
H        0.8601587091   -2.1564401714   -1.9732004001
H       -0.0807128785   -2.3033446802   -0.5086127297
H        1.8461440299    0.0245382994    1.8923106518
H        1.1711499365    1.5125616485    1.9213859097
29   
torsion grid (30,)
C       -2.0820796877   -0.5812844800    0.8893650696
C       -3.0211295154   -1.2283055927    1.6559557336
C       -0.7410335426   -0.5443009717    1.3459334360
C       -2.5642636997   -1.8154199185    2.8550992015
C        0.1112195076    1.0219378734   -0.5809848556
C        0.6816261361   -0.3538738108   -0.8390649918
C        0.3870334839    0.1050404643    0.5936898345
C       -1.0766229441   -0.9727683393   -2.6401019565
C       -2.9993193014   -3.0520075959    4.8386660164
C       -0.0771687960   -1.4561432941   -1.5805903508
N       -0.3925386409   -1.1238441325    2.4972589759
N       -1.3005877616   -1.7596470014    3.2540965870
N        1.5737073472    0.4468619080    1.3536100524
O       -3.4778647296   -2.4574815858    3.6180336072
H       -2.3717383298   -0.1041188356   -0.0396698396
H       -4.0683744652   -1.2957218978    1.3779288470
H        0.7752083073    1.8747746886   -0.6772836640
H       -0.9181941609    1.2184657445   -0.8619454248
H        1.7513805306   -0.3427895200   -1.0262702473
H       -1.9045453268   -0.4073988205   -2.2005695057
H       -1.5122784160   -1.8235566700   -3.1751397626
H       -0.5912486995   -0.3220602861   -3.3752910849
H       -3.8783397961   -3.5096506808    5.2935830786
H       -2.5741627368   -2.2917829254    5.4989929786
H       -2.2362083234   -3.8059925616    4.6290838272
H        0.6655400246   -2.0969937581   -2.0666792631
H       -0.6002315754   -2.1053967102   -0.8683276949
H        1.8411327391   -0.3674922249    1.9068540006
H        1.3256626387    1.1610138484    2.0397184076
29   
torsion grid (45,)
C       -2.1116912583   -0.5934857178    0.9464411072
C       -3.0393733205   -1.2358093749    1.7307879495
C       -0.7616656005   -0.5630066364    1.3789392838
C       -2.5633323745   -1.8256536609    2.9211977154
C        0.0411399094    1.0219242800   -0.5432398805
C        0.6120478046   -0.3455395164   -0.8387818686
C        0.3539210312    0.0883493251    0.6090973098
C       -0.9060772540   -0.9289626407   -2.8253940251
C       -2.9680838719   -3.0610515092    4.9120419233
C       -0.1655766871   -1.4299876777   -1.5778734131
N       -0.3949797654   -1.1450657636    2.5229108791
N       -1.2920218069   -1.7771147737    3.2960905756
N        1.5555054920    0.4236673262    1.3470998669
O       -3.4660760639   -2.4629208530    3.7009604486
H       -2.4164274220   -0.1160677933    0.0215266636
H       -4.0918890556   -1.2983538309    1.4722766146
H        0.6989760642    1.8787823825   -0.6459767034
H       -0.9971286456    1.2190406561   -0.7897589926
H        1.6748102421   -0.3229440216   -1.0634368030
H       -1.6839419993   -0.2028610632   -2.5655360423
H       -1.3889694595   -1.7580791743   -3.3540677624
H       -0.2200601878   -0.4362653502   -3.5229515325
H       -3.8410064076   -3.5140262966    5.3830905266
H       -2.5262741581   -2.3037460148    5.5647382976
H       -2.2133493844   -3.8192039940    4.6876933537
H        0.5413630038   -2.2154355551   -1.8660618736
H       -0.8848413488   -1.9164907022   -0.9102855969
H        1.8376626760   -0.3968471344    1.8836196029
H        1.3205215600    1.1280423671    2.0477094259
29   
torsion grid (60,)
C       -2.1909645109   -0.4428756358    1.0541487198
C       -3.0909725041   -1.0972364089    1.8621898149
C       -0.8119705620   -0.5331112737    1.3636162298
C       -2.5567761085   -1.8195132011    2.9497043897
C       -0.0433394631    1.0108214877   -0.6198859442
C        0.5346093290   -0.3620737615   -0.8728932679
C        0.2833156500    0.1139147252    0.5584609380
C       -0.6833736575   -1.0457438037   -3.0003636879
C       -2.8716760843   -3.2062938000    4.8556930046
C       -0.2609369551   -1.4462056300   -1.5800412229
N       -0.3897206138   -1.2320351368    2.4202681455
N       -1.2573690673   -1.8765746932    3.2141308316
N        1.4905457035    0.4778382214    1.2758150935
O       -3.4297535081   -2.4728625125    3.7496320205
H       -2.5380469228    0.1376226399    0.2063184206
H       -4.1636046130   -1.0714579246    1.6967807384
H        0.6036176103    1.8718641254   -0.7517105565
H       -1.0835607633    1.1836662947   -0.8783239658
H        1.5948760786   -0.3516205280   -1.1133888975
H       -1.3345377835   -0.1653397721   -2.9832221637
H       -1.2268561788   -1.8583852651   -3.4947314852
H        0.1865704897   -0.7980353306   -3.6188661600
H       -3.7294940715   -3.6504611878    5.3615747441
H       -2.3293463554   -2.5379970054    5.5294410192
H       -2.1885155285   -3.9821978262    4.5007248073
H        0.3427820952   -2.3604638220   -1.6126641965
H       -1.1574556223   -1.7029874285   -1.0051267706
H        1.7885511120   -0.3311914747    1.8212882029
H        1.2585583426    1.1960164011    1.9631885363
29   
torsion grid (75,)
C       -2.2607331240   -0.0415191741    1.3074692662
C       -3.1491111089   -0.7068115922    2.1225495587
C       -0.9019735788   -0.4258146782    1.3374212599
C       -2.6162476746   -1.7317331321    2.9306940734
C       -0.1689852228    1.0282452188   -0.7231768413
C        0.4702430320   -0.3365185186   -0.8707910216
C        0.1778007259    0.2210872144    0.5109647403
C       -0.4368230299   -1.3576412006   -3.0033656357
C       -2.9194010074   -3.4432893003    4.5545880348
C       -0.3067680324   -1.4862125739   -1.4800862897
N       -0.4730064815   -1.4004777740    2.1440542244
N       -1.3266155900   -2.0551243076    2.9417565588
N        1.3541996096    0.6718446610    1.2349489516
O       -3.4757803109   -2.4013895738    3.7312164515
H       -2.5925351364    0.7670370413    0.6641927537
H       -4.2081965538   -0.4717713490    2.1654546470
H        0.4384055965    1.9080593183   -0.9081568468
H       -1.2110527647    1.1209797761   -1.0167554273
H        1.5301550421   -0.3179635769   -1.1144995249
H       -0.9605355891   -0.4341821330   -3.2737110225
H       -0.9936893777   -2.2005309574   -3.4269980753
H        0.5475134764   -1.3311452283   -3.4844464495
H       -3.7669169545   -3.8477040302    5.1088542212
H       -2.1689975538   -3.0378533245    5.2380871395
H       -2.4557813909   -4.2180372914    3.9385893963
H        0.1846839125   -2.4315613217   -1.2200554098
H       -1.3088738865   -1.5356441491   -1.0380285472
H        1.7084591585   -0.1147754046    1.7801468179
H        1.0796895041    1.3862214881    1.9101241329
29   
torsion grid (90,)
C       -2.2591590468    0.0346053444    1.3763242119
C       -3.1268125706   -0.6437642649    2.2025665537
C       -0.9103363785   -0.3820436606    1.3289104066
C       -2.5826143424   -1.7139448766    2.9419937143
C       -0.2401422337    1.1025140552   -0.7290266767
C        0.3834118840   -0.2651064529   -0.9186566825
C        0.1442433844    0.2760379220    0.4795273497
C       -0.3389778462   -1.4909200282   -3.0100682580
C       -2.8565522958   -3.4880548024    4.5023691197
C       -0.4267464981   -1.4156303574   -1.4805360651
N       -0.4687869460   -1.3985663332    2.0745333423
N       -1.3022294206   -2.0667719689    2.8828778211
N        1.3467658278    0.7089370728    1.1705335048
O       -3.4226476220   -2.3984326012    3.7506935364
H       -2.5981015721    0.8769913204    0.7818506751
H       -4.1769509820   -0.3872044197    2.3035547794
H        0.3685383924    1.9799214738   -0.9215427898
H       -1.2904649168    1.2070546150   -0.9871696483
H        1.4341532737   -0.2599387488   -1.1998474262
H       -0.7071595152   -0.5671013487   -3.4703441371
H       -0.9317278903   -2.3246561546   -3.4017237574
H        0.6967240371   -1.6340421508   -3.3380966869
H       -3.6887102374   -3.8974774875    5.0759129258
H       -2.0672617841   -3.1304689489    5.1685498073
H       -2.4395128484   -4.2449722360    3.8331699598
H       -0.0695258309   -2.3552575105   -1.0404319870
H       -1.4760310636   -1.3186706218   -1.1779078644
H        1.7218464643   -0.0913588646    1.6807391394
H        1.0991707155    1.4059200121    1.8736831837
29   
torsion grid (105,)
C       -2.2598529916    0.0681553100    1.4102304124
C       -3.1188113094   -0.6230347348    2.2347594506
C       -0.9160528636   -0.3594166074    1.3275398552
C       -2.5731935510   -1.7172777936    2.9371381975
C       -0.2637619475    1.1754742851   -0.6963363278
C        0.3203812357   -0.2001792780   -0.9465676581
C        0.1306425657    0.3061321684    0.4749464376
C       -0.2411521644   -1.6166008873   -2.9695934281
C       -2.8365316819   -3.5252261331    4.4602313470
C       -0.5322690670   -1.3318790805   -1.4907481024
N       -0.4729798932   -1.4010778488    2.0367353082
N       -1.2983535200   -2.0817389740    2.8433289225
N        1.3605999563    0.6894104089    1.1466963104
O       -3.4051017488   -2.4123664180    3.7454007751
H       -2.6015074630    0.9289308252    0.8444364152
H       -4.1641330011   -0.3585546273    2.3617671835
H        0.3611092692    2.0437880889   -0.8784697488
H       -1.3168426602    1.3132472384   -0.9258107346
H        1.3642626360   -0.2176009940   -1.2511477071
H       -0.4331878948   -0.7330178449   -3.5889111199
H       -0.8639872673   -2.4351254303   -3.3462024530
H        0.8071293295   -1.9010912867   -3.1131896226
H       -3.6619188579   -3.9394609168    5.0400669860
H       -2.0308578282   -3.1915958255    5.1192177814
H       -2.4404511311   -4.2703886653    3.7656077577
H       -0.3407334880   -2.2390080344   -0.9033617777
H       -1.5959644989   -1.1016564269   -1.3579987151
H        1.7280489920   -0.1337985864    1.6249292586
H        1.1484067197    1.3722213557    1.8749423371
29   
torsion grid (120,)
C       -2.1522220639   -0.1980439440    1.1978201315
C       -3.0129402363   -0.8864736040    2.0195482736
C       -0.7607900652   -0.4160409858    1.3410235901
C       -2.4285430331   -1.7712207129    2.9503355757
C       -0.0730241396    1.2527293333   -0.5710286531
C        0.3701557634   -0.1322651783   -0.9856878195
C        0.2934759138    0.2468292671    0.4958034163
C       -0.1466148092   -1.5622882580   -3.0110753636
C       -2.6564346454   -3.3586710351    4.7061135808
C       -0.5926847625   -1.1356989603   -1.6063537657
N       -0.2881349020   -1.2670467717    2.2549764924
N       -1.1178521884   -1.9465893790    3.0608972148
N        1.5854821097    0.4703479649    1.1167294318
O       -3.2644800015   -2.4587756316    3.7612375708
H       -2.5362800864    0.5043226469    0.4661754779
H       -4.0915757892   -0.7699848792    1.9792532954
H        0.6225019652    2.0761786435   -0.6971811554
H       -1.1157846676    1.5136509624   -0.7263257978
H        1.3984651536   -0.2063858070   -1.3305538270
H       -0.0766623343   -0.7005386743   -3.6844848651
H       -0.8509523545   -2.2769929632   -3.4500130860
H        0.8386656619   -2.0399283636   -2.9782413691
H       -3.4906155102   -3.8037986506    5.2493396618
H       -1.9966360496   -2.8164041336    5.3882508346
H       -2.0770220393   -4.1286488747    4.1901616038
H       -0.6547930228   -2.0280721123   -0.9706514616
H       -1.6064685906   -0.7221462320   -1.6525212488
H        1.8747722060   -0.4005824498    1.5625485100
H        1.4726798712    1.1410063449    1.8781049878
29   
torsion grid (135,)
C       -2.1409085845   -0.3811169210    1.0862994850
C       -2.9980738414   -1.0622581513    1.9157189261
C       -0.7468246128   -0.4718449314    1.3291055584
C       -2.4106351538   -1.8138417320    2.9564032709
C       -0.0839264064    1.3191640646   -0.4660831289
C        0.3053717046   -0.0282266587   -1.0266521084
C        0.2984705950    0.2096956492    0.4899816468
C       -0.1012071160   -1.5290930796   -3.0261501192
C       -2.6338390172   -3.2569089975    4.8327366767
C       -0.6908395425   -0.9410978894   -1.7372187740
N       -0.2727460779   -1.2052424141    2.3384208993
N       -1.1013166755   -1.8782332865    3.1537093098
N        1.6203790674    0.3500669103    1.0670442414
O       -3.2447893994   -2.4906610330    3.7783234677
H       -2.5305791883    0.2145365590    0.2682937716
H       -4.0772545667   -1.0395435018    1.7998608950
H        0.6266575586    2.1355690438   -0.5460490465
H       -1.1265643308    1.6152945092   -0.5379176695
H        1.3217784494   -0.0790652995   -1.4079683707
H        0.1850558276   -0.7379167211   -3.7280962485
H       -0.8232664566   -2.1808906807   -3.5293492612
H        0.7935574522   -2.1229799744   -2.8099743410
H       -3.4661094031   -3.7160537060    5.3671697248
H       -2.0575710612   -2.6091903687    5.4984043903
H       -1.9702602338   -4.0218226767    4.4211680607
H       -0.9890086728   -1.7664688010   -1.0799152473
H       -1.6097760224   -0.3939590959   -1.9790317534
H        1.9060968153   -0.5591363767    1.4308380228
H        1.5541208287    0.9511072222    1.8896380793
29   
torsion grid (150,)
C       -2.1371087096   -0.3095260138    1.0837868744
C       -2.9733579872   -1.0000837582    1.9270765181
C       -0.7366433962   -0.4159037827    1.2796819758
C       -2.3591091797   -1.7766355411    2.9331862869
C       -0.1239316751    1.4030229584   -0.5031863997
C        0.2503695835    0.0676550663   -1.0991606687
C        0.2863679732    0.2752165647    0.4214962568
C       -0.0903382177   -1.6710009401   -2.9115740574
C       -2.5340368987   -3.2542768833    4.7878338690
C       -0.7579647892   -0.8232193681   -1.8207219976
N       -0.2367737917   -1.1727167742    2.2587872703
N       -1.0444519291   -1.8550420836    3.0867961984
N        1.6238454268    0.4054281574    0.9641638372
O       -3.1718958316   -2.4632225755    3.7681967804
H       -2.5475787085    0.3059533905    0.2907762575
H       -4.0554575780   -0.9663706519    1.8466269870
H        0.5837860378    2.2211726803   -0.5902386671
H       -1.1684022306    1.6992996694   -0.5373871492
H        1.2566994973    0.0353181472   -1.5083627088
H        0.3901995828   -1.0376163627   -3.6654249913
H       -0.8224901667   -2.3054802598   -3.4222272985
H        0.6792353831   -2.3229388335   -2.4837444944
H       -3.3526885066   -3.7172114306    5.3397405510
H       -1.9315998064   -2.6238983562    5.4469337334
H       -1.8902553622   -4.0162084465    4.3408406045
H       -1.2612800884   -1.4923640389   -1.1143342390
H       -1.5456357153   -0.2095071510   -2.2755434785
H        1.9168177216   -0.5088246163    1.3089807807
H        1.5814453424    0.9971860666    1.7949924534
29   
torsion grid (165,)
C       -1.9872800089   -0.1981789362    1.3103805681
C       -2.8194963287   -0.9352004584    2.1191986040
C       -0.5887569965   -0.3998321569    1.4125895516
C       -2.2014437459   -1.8507403683    2.9968339598
C        0.0300979898    1.4597211946   -0.3398466843
C        0.4170056103    0.1320236286   -0.9436390640
C        0.4336094277    0.3207784703    0.5767308993
C        0.1090489857   -1.8280624928   -2.5212496148
C       -2.3665116165   -3.5168814256    4.6856096324
C       -0.5831591026   -0.7328249238   -1.6996243769
N       -0.0842374676   -1.2842936323    2.2764334670
N       -0.8862113397   -2.0114683427    3.0688800282
N        1.7657063736    0.4462307743    1.1363773638
O       -3.0085928227   -2.5859930037    3.7948076462
H       -2.3993065734    0.5271868121    0.6173164477
H       -3.9003628062   -0.8345511217    2.1059465544
H        0.7363717563    2.2807479117   -0.4079476957
H       -1.0144601605    1.7530844323   -0.3900144040
H        1.4261328136    0.1095381643   -1.3477348305
H        0.7860621713   -1.3918575196   -3.2639426446
H       -0.6220560261   -2.4451979377   -3.0542284843
H        0.7008490651   -2.4879608145   -1.8771577061
H       -3.1817065399   -3.9967602223    5.2280622238
H       -1.6981050320   -2.9950226712    5.3752178623
H       -1.7892957227   -4.2556153090    4.1235891999
H       -1.3017886890   -1.1935744265   -1.0136244430
H       -1.1709225636   -0.0994788391   -2.3766144202
H        2.0592978822   -0.4750085771    1.4617949502
H        1.7136585772    1.0227588219    1.9772557653
29   
torsion grid (180,)
C       -1.9656415320    0.2379042522    1.6086984386
C       -2.7555963694   -0.5128391337    2.4506357206
C       -0.7024170958   -0.2728324260    1.2386663791
C       -2.2239288789   -1.7468385322    2.8779518714
C       -0.2304724240    1.4615967080   -0.6724897551
C        0.2834654231    0.1143222316   -1.1311735760
C        0.2669894798    0.4543247270    0.3462420686
C        0.0770863128   -2.1938142035   -2.1549320811
C       -2.4350359995   -3.7578759010    4.1307811030
C       -0.6502248487   -0.9009116511   -1.7660143616
N       -0.2646271100   -1.4492448434    1.6960374198
N       -1.0224703169   -2.1882003274    2.5169206705
N        1.5735172322    0.7365405470    0.9162719160
O       -2.9888905490   -2.5008589292    3.6989301080
H       -2.2976924057    1.2037481192    1.2409534726
H       -3.7376205766   -0.1950442038    2.7873980819
H        0.3933864123    2.3349086360   -0.8320460658
H       -1.3000193089    1.6362224794   -0.7563359707
H        1.2856353432    0.1360913831   -1.5538450785
H        0.8834828804   -1.9880263906   -2.8677336680
H       -0.6080185199   -2.9102412935   -2.6209110484
H        0.5193524285   -2.6707665657   -1.2736736390
H       -3.2001150818   -4.1980934133    4.7709835675
H       -1.5079832240   -3.6016133065    4.6882561347
H       -2.2288100562   -4.4049860014    3.2744460230
H       -1.4835352351   -1.1289801881   -1.0920134881
H       -1.0967635000   -0.4559261156   -2.6651215797
H        1.9725873176   -0.1432008140    1.2453027420
H        1.4639838283    1.3300955029    1.7390411170
