
  -OEChem-05262117483D

 25 26  0     0  0  0  0  0  0999 V2000
   -3.9434    0.1203   -5.4522 C   0  0  0  0  0  0  0  0  0  0  0  0
   -2.7938    0.5369   -4.7704 C   0  0  0  0  0  0  0  0  0  0  0  0
   -4.2146   -1.2326   -5.6541 C   0  0  0  0  0  0  0  0  0  0  0  0
   -1.8881   -0.4119   -4.2756 C   0  0  0  0  0  0  0  0  0  0  0  0
   -3.3089   -2.1677   -5.1574 C   0  0  0  0  0  0  0  0  0  0  0  0
   -2.1622   -1.7756   -4.4779 C   0  0  0  0  0  0  0  0  0  0  0  0
    3.0951    1.6734   -2.9131 C   0  0  0  0  0  0  0  0  0  0  0  0
    2.4625    2.9703   -2.3945 C   0  0  0  0  0  0  0  0  0  0  0  0
    0.9004    1.2741   -2.6250 C   0  0  0  0  0  0  0  0  0  0  0  0
   -0.4177    1.2340   -3.3750 C   0  0  0  0  0  0  0  0  0  0  0  0
    1.9788    0.9925   -3.4914 O   0  0  0  0  0  0  0  0  0  0  0  0
    1.0998    2.5987   -2.1242 O   0  0  0  0  0  0  0  0  0  0  0  0
   -0.7410   -0.1365   -3.5993 O   0  0  0  0  0  0  0  0  0  0  0  0
   -3.5351   -3.4881   -5.3309 F   0  0  0  0  0  0  0  0  0  0  0  0
   -1.3093   -2.7056   -4.0089 F   0  0  0  0  0  0  0  0  0  0  0  0
   -4.6353    0.8670   -5.8300 H   0  0  0  0  0  0  0  0  0  0  0  0
   -2.6096    1.5951   -4.6290 H   0  0  0  0  0  0  0  0  0  0  0  0
   -5.0997   -1.5749   -6.1801 H   0  0  0  0  0  0  0  0  0  0  0  0
    3.8452    1.8224   -3.6914 H   0  0  0  0  0  0  0  0  0  0  0  0
    3.5258    1.0786   -2.0956 H   0  0  0  0  0  0  0  0  0  0  0  0
    2.9271    3.3366   -1.4742 H   0  0  0  0  0  0  0  0  0  0  0  0
    2.4742    3.7632   -3.1506 H   0  0  0  0  0  0  0  0  0  0  0  0
    0.8897    0.5627   -1.7842 H   0  0  0  0  0  0  0  0  0  0  0  0
   -0.3078    1.7748   -4.3218 H   0  0  0  0  0  0  0  0  0  0  0  0
   -1.1863    1.7176   -2.7608 H   0  0  0  0  0  0  0  0  0  0  0  0
  1  2  1  0  0  0  0
  1  3  2  0  0  0  0
  1 16  1  0  0  0  0
  2  4  2  0  0  0  0
  2 17  1  0  0  0  0
  3  5  1  0  0  0  0
  3 18  1  0  0  0  0
  4  6  1  0  0  0  0
  4 13  1  0  0  0  0
  5  6  2  0  0  0  0
  5 14  1  0  0  0  0
  6 15  1  0  0  0  0
  7  8  1  0  0  0  0
  7 11  1  0  0  0  0
  7 19  1  0  0  0  0
  7 20  1  0  0  0  0
  8 12  1  0  0  0  0
  8 21  1  0  0  0  0
  8 22  1  0  0  0  0
  9 10  1  0  0  0  0
  9 11  1  0  0  0  0
  9 12  1  0  0  0  0
  9 23  1  0  0  0  0
 10 13  1  0  0  0  0
 10 24  1  0  0  0  0
 10 25  1  0  0  0  0
M  END
$$$$
