25
0 1 C10F2H10O3
C                    -0.794176965531    -6.372000692472    -4.257185732695
C                    -1.502708753266    -5.728157712471    -3.239942792513
C                     0.603528741353    -6.415979657932    -4.235519788912
C                    -0.817478394985    -5.108627694747    -2.189348776134
C                     1.274452296317    -5.802996207899    -3.183008912756
C                     0.579886791656    -5.151570224305    -2.165971340957
C                    -0.876504424470    -1.296756597153    -3.651699316126
C                    -1.477466942107    -0.189413129859    -2.791411897701
C                    -1.169432162803    -2.099579127657    -1.526942333668
C                    -2.146982885690    -3.271952378021    -1.447771538501
O                    -0.320585698551    -2.172745412516    -2.665548648633
O                    -1.939659462088    -0.902392556798    -1.635472637206
O                    -1.474316115159    -4.501967287952    -1.144701785544
F                     2.624804104245    -5.820711002413    -3.136655042309
F                     1.258507647199    -4.548233378484    -1.174891662919
H                    -1.332463819004    -6.855963054890    -5.066602700262
H                    -2.588653712355    -5.710253107384    -3.241595714573
H                     1.176744301750    -6.915677967268    -5.009941055721
H                    -1.643854063375    -1.811109918995    -4.246101602716
H                    -0.066909753904    -0.967906081923    -4.305987391707
H                    -0.719871409763     0.549992692591    -2.502746824678
H                    -2.332068637159     0.315294751961    -3.248100916482
H                    -0.522725333948    -2.078763180060    -0.642329231547
H                    -2.710833665783    -3.349176647736    -2.384608615658
H                    -2.845365885333    -3.100581000107    -0.625782638060
