42
0 1 C19ClH18NO3
C                     1.111264860929    -1.640982970084    -2.391465492866
C                     0.484991580342    -1.407135226728    -1.162630812159
C                     1.016501001982    -2.902973005504    -2.997264806628
C                    -0.249841722374    -2.408350537514    -0.511838348938
C                    -2.874191549151    -6.283020825107     3.155896481325
C                    -4.752742224921    -6.334909873302     1.652080953923
C                     0.290546806018    -3.904299686926    -2.363550405442
C                    -3.369643745840    -6.315594402394     1.850307244471
C                    -0.341101152869    -3.656448115372    -1.135027209025
C                    -3.733084416289    -6.277927510329     4.254158034701
C                    -5.133735671697    -6.334888939052     4.065702683842
C                    -5.614827242455    -6.349500521983     2.748422763506
C                    -1.720049596717    -4.952458837247     0.475404201644
C                     0.079928629850    -5.345710901654    -2.768039272745
C                    -4.873722083812    -6.261086630812     7.240879435206
C                    -1.019954412459    -5.827604911443    -1.796081127458
C                    -3.815056479813    -5.446615089531     6.496553386553
C                    -5.681269378333    -7.108572458745     6.258086418282
C                    -2.433979732849    -6.300006360507     0.667690313957
N                    -1.030108539950    -4.821321226002    -0.707679828301
O                    -1.742904596401    -4.069791868987     1.328871658263
O                    -3.145366892020    -6.242799615813     5.500341800843
O                    -6.045577147975    -6.349634557279     5.089284558454
Cl                   -7.345381281977    -6.411832512007     2.475816689504
H                     1.671986436254    -0.846499251108    -2.876258007325
H                     0.563819516303    -0.428086657163    -0.697074519029
H                     1.505858357814    -3.095983026949    -3.949268171435
H                    -0.733797840501    -2.231137768167     0.438534261042
H                    -1.807944492048    -6.218902570949     3.348705595350
H                    -5.172339567265    -6.345368388816     0.650730200231
H                    -0.225905507814    -5.460272825249    -3.811374893415
H                     1.003310942500    -5.920463515468    -2.630168294253
H                    -4.406100777160    -6.926664797434     7.975405947435
H                    -5.528338376265    -5.571823159004     7.786135340874
H                    -1.998748950505    -5.844724175216    -2.290457242290
H                    -0.818079466211    -6.824727100005    -1.401877740013
H                    -4.262292552075    -4.570618209508     6.016629429434
H                    -3.029929756944    -5.102722648587     7.174093334141
H                    -5.117046941211    -7.994637543755     5.950952520845
H                    -6.626014193970    -7.437040839235     6.697438157571
H                    -1.660678760654    -7.070097428411     0.786412290109
H                    -2.982485596231    -6.559906074748    -0.242537319999
