
  -OEChem-05262117483D

 18 18  0     0  0  0  0  0  0999 V2000
   -1.0492    0.4581    0.4555 C   0  0  0  0  0  0  0  0  0  0  0  0
    0.3855    0.7504    2.3450 C   0  0  0  0  0  0  0  0  0  0  0  0
    0.2058    0.8026    0.9583 C   0  0  0  0  0  0  0  0  0  0  0  0
   -1.7735    0.0594    2.5881 C   0  0  0  0  0  0  0  0  0  0  0  0
   -2.9014   -0.3865    3.5141 C   0  0  0  0  0  0  0  0  0  0  0  0
   -4.9236    0.8819    2.6968 C   0  0  0  0  0  0  0  0  0  0  0  0
   -4.2888   -0.5055    2.9160 C   0  0  0  0  0  0  0  0  0  0  0  0
   -2.0407    0.0907    1.2728 N   0  0  0  0  0  0  0  0  0  0  0  0
   -0.6019    0.3765    3.1582 N   0  0  0  0  0  0  0  0  0  0  0  0
   -2.6682   -0.6088    4.6888 O   0  0  0  0  0  0  0  0  0  0  0  0
    1.6205    1.3304   -0.2002 Br  0  0  0  0  0  0  0  0  0  0  0  0
   -1.2583    0.4803   -0.6120 H   0  0  0  0  0  0  0  0  0  0  0  0
    1.3386    1.0143    2.7999 H   0  0  0  0  0  0  0  0  0  0  0  0
   -4.9775    1.4406    3.6364 H   0  0  0  0  0  0  0  0  0  0  0  0
   -4.3508    1.4697    1.9742 H   0  0  0  0  0  0  0  0  0  0  0  0
   -5.9411    0.7707    2.3098 H   0  0  0  0  0  0  0  0  0  0  0  0
   -4.2359   -1.0338    1.9603 H   0  0  0  0  0  0  0  0  0  0  0  0
   -4.8876   -1.0907    3.6180 H   0  0  0  0  0  0  0  0  0  0  0  0
  1  3  1  0  0  0  0
  1  8  2  0  0  0  0
  1 12  1  0  0  0  0
  2  3  2  0  0  0  0
  2  9  1  0  0  0  0
  2 13  1  0  0  0  0
  3 11  1  0  0  0  0
  4  5  1  0  0  0  0
  4  8  1  0  0  0  0
  4  9  2  0  0  0  0
  5  7  1  0  0  0  0
  5 10  2  0  0  0  0
  6  7  1  0  0  0  0
  6 14  1  0  0  0  0
  6 15  1  0  0  0  0
  6 16  1  0  0  0  0
  7 17  1  0  0  0  0
  7 18  1  0  0  0  0
M  END
$$$$
