21
0 1 BrC10FH8O
C                     1.925192577373    -0.371971970187    -0.151095995421
C                     0.701805029911    -0.221068669355     0.500508066888
C                     1.629492839474    -1.352999466725     2.445817691640
C                     3.027485132860    -0.986684533214     0.465740002291
C                     2.841794246084    -1.465758271892     1.770976161527
C                     0.568746695895    -0.720101543641     1.798244642025
C                     4.357570549015    -1.062424280933    -0.225581619610
C                     5.607975381847    -1.833877794943    -2.337413580992
C                     5.315551166213    -0.380873508761    -2.521158069319
C                     4.350002780434    -1.249419727119    -1.706674727386
O                     5.404484508318    -0.948072059683     0.401557728275
F                     3.843517201859    -2.098524705023     2.408241357672
Br                   -1.102208395143    -0.540021623373     2.710098104168
H                     2.035543536272     0.024887537599    -1.155744052314
H                    -0.130338172649     0.273260496875     0.011376812603
H                     1.534734409886    -1.755171479781     3.448440963063
H                     5.460333061491    -2.507095819958    -3.175951831933
H                     6.396063375094    -2.100742402044    -1.641041989219
H                     5.907675408412     0.325462553390    -1.948111353495
H                     4.962917416262    -0.030098546680    -3.486263734859
H                     3.404001708682    -1.503305554032    -2.171766778641
