34
0 1 BrC15H13N4O
C                     5.075833238891    -0.399452364991    10.803827335061
C                     4.296951002904     0.223122739491     4.611078643943
C                     5.513082906379    -1.381318903747     5.959110798276
C                     5.493910927164     0.826190472242     4.222206436431
C                     6.706309252580    -0.823242563587     5.538468045185
C                     5.226123445590    -0.961220139537    12.069151589082
C                     3.965125622733    -2.977853919777    11.424922987065
C                     4.367649041207    -1.122458890431     9.831055325808
C                     4.284222052568    -0.846968197369     5.515422314159
C                     3.820827374258    -2.394798372650    10.161499410581
C                     6.708505528508     0.301086211560     4.687199520964
C                     4.674171569629    -2.227287448323    12.359466176265
C                     3.398708846471    -1.841195082783     8.056877880286
C                     2.439082424647    -4.064083819627     8.853123224905
C                     8.004240988273     1.922109643862     3.496742591945
N                     4.089464201130    -0.809929094688     8.516156745254
N                     3.012051843555    -1.412375668645     5.770737591596
N                     2.681568493833    -1.964037301490     6.857511469743
N                     3.185854457371    -2.827238824729     9.015660931222
O                     7.938350980021     0.785869872884     4.356930636182
Br                    4.912705314772    -2.943500862408    14.125165536108
H                     5.497149041893     0.573408350238    10.569042212485
H                     3.347489276240     0.590122253684     4.232100785537
H                     5.531840365210    -2.247001410837     6.612017552000
H                     5.467555430815     1.674925766946     3.548777253834
H                     7.660537923977    -1.233532530771     5.855144669347
H                     5.770517363916    -0.429480070718    12.842148644222
H                     3.552072355656    -3.949512074503    11.673840231560
H                     1.735447521109    -4.181298831377     9.682469826450
H                     1.886047021304    -4.010425938396     7.915627607877
H                     3.112760479286    -4.927109835953     8.829632286508
H                     9.065341945172     2.144242186956     3.379280650233
H                     7.497319769852     2.786476118980     3.941783330214
H                     7.566760689481     1.703390949956     2.515387783427
