22
0 1 C10ClH8NO2
C                    -0.775746511757    -2.660035389404     2.061579425461
C                    -0.706844172817    -1.347248998520     1.618808772757
C                     0.470251566102    -2.062217877766    -0.384387996871
C                     0.270381645846    -6.054222374276     0.942938284016
C                    -0.223260733032    -3.705505578648     1.291853696211
C                     0.401881044967    -3.391795548388     0.061347021898
C                    -0.278084973754    -5.086993729142     1.724920328976
C                    -0.081516304360    -1.056881112609     0.393523336520
C                     0.998271942472    -4.444260904720    -0.787501426769
C                    -0.974950224363    -6.643021309217     3.389769037801
N                     0.879128778302    -5.720504323017    -0.262864260227
O                     1.558804654450    -4.247621092742    -1.868754727167
O                    -0.900516237287    -5.299988122656     2.926685716778
Cl                   -0.004496445218     0.610134243511    -0.149508103949
H                    -1.256137970482    -2.893093404567     3.005294885588
H                    -1.131597225223    -0.542017346430     2.210188071030
H                     0.955999197800    -1.854193722993    -1.331792536546
H                     0.272482982091    -7.106911519650     1.191314360145
H                    -1.496444956708    -6.604823842913     4.346682399816
H                     0.026864480157    -7.067252873357     3.536774683887
H                    -1.541047298213    -7.272162317527     2.690526019355
H                     1.284483871657    -6.452969271960    -0.834568453467
