
  -OEChem-05262117483D

 21 22  0     0  0  0  0  0  0999 V2000
    1.9252   -0.3720   -0.1511 C   0  0  0  0  0  0  0  0  0  0  0  0
    0.7018   -0.2211    0.5005 C   0  0  0  0  0  0  0  0  0  0  0  0
    1.6295   -1.3530    2.4458 C   0  0  0  0  0  0  0  0  0  0  0  0
    3.0275   -0.9867    0.4657 C   0  0  0  0  0  0  0  0  0  0  0  0
    2.8418   -1.4658    1.7710 C   0  0  0  0  0  0  0  0  0  0  0  0
    0.5687   -0.7201    1.7982 C   0  0  0  0  0  0  0  0  0  0  0  0
    4.3576   -1.0624   -0.2256 C   0  0  0  0  0  0  0  0  0  0  0  0
    5.6080   -1.8339   -2.3374 C   0  0  0  0  0  0  0  0  0  0  0  0
    5.3156   -0.3809   -2.5212 C   0  0  0  0  0  0  0  0  0  0  0  0
    4.3500   -1.2494   -1.7067 C   0  0  0  0  0  0  0  0  0  0  0  0
    5.4045   -0.9481    0.4016 O   0  0  0  0  0  0  0  0  0  0  0  0
    3.8435   -2.0985    2.4082 F   0  0  0  0  0  0  0  0  0  0  0  0
   -1.1022   -0.5400    2.7101 Br  0  0  0  0  0  0  0  0  0  0  0  0
    2.0355    0.0249   -1.1557 H   0  0  0  0  0  0  0  0  0  0  0  0
   -0.1303    0.2733    0.0114 H   0  0  0  0  0  0  0  0  0  0  0  0
    1.5347   -1.7552    3.4484 H   0  0  0  0  0  0  0  0  0  0  0  0
    5.4603   -2.5071   -3.1760 H   0  0  0  0  0  0  0  0  0  0  0  0
    6.3961   -2.1007   -1.6410 H   0  0  0  0  0  0  0  0  0  0  0  0
    5.9077    0.3255   -1.9481 H   0  0  0  0  0  0  0  0  0  0  0  0
    4.9629   -0.0301   -3.4863 H   0  0  0  0  0  0  0  0  0  0  0  0
    3.4040   -1.5033   -2.1718 H   0  0  0  0  0  0  0  0  0  0  0  0
  1  2  1  0  0  0  0
  1  4  2  0  0  0  0
  1 14  1  0  0  0  0
  2  6  2  0  0  0  0
  2 15  1  0  0  0  0
  3  5  2  0  0  0  0
  3  6  1  0  0  0  0
  3 16  1  0  0  0  0
  4  5  1  0  0  0  0
  4  7  1  0  0  0  0
  5 12  1  0  0  0  0
  6 13  1  0  0  0  0
  7 10  1  0  0  0  0
  7 11  2  0  0  0  0
  8  9  1  0  0  0  0
  8 10  1  0  0  0  0
  8 17  1  0  0  0  0
  8 18  1  0  0  0  0
  9 10  1  0  0  0  0
  9 19  1  0  0  0  0
  9 20  1  0  0  0  0
 10 21  1  0  0  0  0
M  END
$$$$
