42
0 1 C19ClH18NO3
C                     2.155939707408    -1.459363943191     1.722352475395
C                     0.837821353407    -1.319932754486     1.274915321085
C                     2.637036088387    -2.720705085640     2.104804652069
C                    -0.031376753066    -2.417639126883     1.202614442053
C                    -0.986867496235    -8.797344396121     0.642242181896
C                    -1.363923134298    -7.110864939090    -1.037069823822
C                     1.786065681440    -3.817367677156     2.038935324063
C                    -1.438493236337    -7.521361803979     0.300142736219
C                     0.462705329741    -3.664384323587     1.597319134945
C                    -0.475464940605    -9.670034955765    -0.322870230654
C                    -0.431604166875    -9.280740099707    -1.678881112591
C                    -0.870067661049    -7.984814612405    -2.002147802811
C                    -1.480297077082    -5.156983955884     1.202596010811
C                     2.064793441460    -5.274217054911     2.331963553148
C                     0.704133414929   -12.255975804107    -1.780105357428
C                     0.658473899068    -5.912963836118     2.320355304892
C                     1.095770118275   -11.467753902566    -0.530853702283
C                    -0.319369575236   -11.475349527036    -2.605135132377
C                    -1.997550808631    -6.585853040998     1.358394565973
N                    -0.202608576366    -4.916289897696     1.639281506599
O                    -2.180283346086    -4.289605515210     0.676809386699
O                    -0.057567384255   -10.904005597641     0.124214899100
O                     0.033749033334   -10.080905943651    -2.689823557775
Cl                   -0.810713838032    -7.469158757902    -3.674276529525
H                     2.808190958737    -0.591676293690     1.771332371874
H                     0.472388971065    -0.340775079163     0.976247915053
H                     3.663117362217    -2.839499156895     2.445510800609
H                    -1.049478902409    -2.314426033000     0.853733389334
H                    -1.005920336493    -9.143634962349     1.672190915620
H                    -1.697177393482    -6.120351057325    -1.330072319020
H                     2.696173615510    -5.707193558213     1.547298262224
H                     2.571927786003    -5.431807843326     3.287646985615
H                     1.608641691009   -12.449756598618    -2.367610147167
H                     0.271234113290   -13.224875691415    -1.507078889175
H                     0.638260446184    -6.864176938263     1.789072958485
H                     0.292545788806    -6.073237722328     3.341673629278
H                     1.566668846938   -12.114181447565     0.213502594140
H                     1.795536090807   -10.664196085619    -0.781632063028
H                    -0.354808530700   -11.830586601317    -3.637426560071
H                    -1.321256269024   -11.566750946360    -2.174346750381
H                    -3.083893481437    -6.514297412816     1.260446690085
H                    -1.779317830612    -6.981929800438     2.354602166979
