18   
torsion grid (-165,)
C        1.4926437413    0.9425997045    1.6237784857
C       -0.7243562927    0.3957890612    0.4869414555
C        0.6803009122   -0.9070480210   -0.9658769014
C        0.6810332009    1.0571116238    0.3247351362
C       -0.7852272277   -0.6426193169   -0.6314091839
N        1.3513245339    0.3988049009   -0.8211237500
N        2.7239095579    0.3698413224    1.4842836678
O        1.0349265450    1.3394511993    2.6928738476
F       -1.3964048718   -0.0631968937   -1.7730571995
H       -0.8234025503   -0.0732278848    1.4686493420
H       -1.5392004209    1.1138099741    0.3816413786
H        1.0995910390   -1.6131562054   -0.2390582391
H        0.8176140099   -1.3165323209   -1.9689542959
H        0.5913220995    2.1290680067    0.1303854007
H       -1.3659962218   -1.5356839660   -0.3874077218
H        1.1663403329    0.9427495898   -1.6609665427
H        3.3550728466    0.4269256403    2.2739172634
H        3.0969961606    0.2928294315    0.5437141910
18   
torsion grid (-150,)
C        1.5317717259    0.9946794652    1.6106794589
C       -0.6707882777    0.3637591086    0.5117891205
C        0.6896226215   -0.8491578510   -1.0464451360
C        0.7076819947    1.0784584949    0.3224993317
C       -0.7670162079   -0.5860556323   -0.6777314975
N        1.3811437732    0.4363845725   -0.8319427518
N        2.6463588615    0.1931650414    1.5353286784
O        1.1835814738    1.5908056270    2.6252775383
F       -1.3819254738    0.0881989444   -1.7625934837
H       -0.6976023383   -0.1973755038    1.4497207506
H       -1.5071555671    1.0640203827    0.5212893870
H        1.1048840480   -1.6064599607   -0.3709648172
H        0.8085726371   -1.1969068868   -2.0749588871
H        0.5680359475    2.1437464528    0.1262580383
H       -1.3606728914   -1.4845069022   -0.4904917863
H        1.2343992951    1.0165665168   -1.6540497916
H        3.2703769304    0.2715256132    2.3315936391
H        3.0856251672    0.1514509717    0.6199035210
18   
torsion grid (-135,)
C        1.5014941028    1.0774206740    1.5605663496
C       -0.6690916099    0.3191951757    0.4970307104
C        0.6781196472   -0.8289805770   -1.1114975727
C        0.6700378112    1.0974006040    0.2791921024
C       -0.7765290746   -0.5826714446   -0.7266212390
N        1.3687011616    0.4508942074   -0.8599761951
N        2.4937271305    0.1076344519    1.5877931383
O        1.2793929874    1.8512088618    2.4842647289
F       -1.4009846542    0.1331117903   -1.7778655992
H       -0.6246718298   -0.2941528218    1.4018241889
H       -1.5300976726    0.9832941289    0.5833378881
H        1.0967243874   -1.6084889249   -0.4642486604
H        0.7915257543   -1.1420560375   -2.1518207447
H        0.4743418758    2.1476145830    0.0551133115
H       -1.3676672026   -1.4884365294   -0.5682069310
H        1.2562925246    1.0410428206   -1.6797349750
H        3.0794032061    0.2068197542    2.4133896966
H        3.0338736880    0.0704999729    0.7263195242
18   
torsion grid (-120,)
C        1.6529797964    1.1080719730    1.5867335153
C       -0.5636945927    0.3312833943    0.6379492990
C        0.7037569392   -0.7710427911   -1.0650738460
C        0.7480917851    1.1342595773    0.3595671173
C       -0.7294447774   -0.5470265065   -0.5966975424
N        1.4007920038    0.5055208736   -0.8172001087
N        2.5382639184    0.0221343505    1.6222349810
O        1.6023612788    1.9693375963    2.4539671830
F       -1.4196202183    0.1835268608   -1.5950250496
H       -0.4580996355   -0.3022961851    1.5236255534
H       -1.4274750130    0.9809594761    0.7864122224
H        1.1601977164   -1.5649850586   -0.4629138229
H        0.7613812545   -1.0553472978   -2.1182725568
H        0.5264224789    2.1831100439    0.1552612589
H       -1.3016348002   -1.4623221628   -0.4240395704
H        1.2596708513    1.1117699794   -1.6203076323
H        3.0996547863    0.0892671522    2.4706151185
H        3.1555540338    0.0224833674    0.8121268172
18   
torsion grid (-105,)
C        1.6732696213    1.0739207265    1.5900308643
C       -0.5386302170    0.2383764582    0.6744209553
C        0.7263665006   -0.8075355529   -1.0630510210
C        0.7424658846    1.0836304549    0.3850720228
C       -0.7053385468   -0.6166230325   -0.5761134529
N        1.4045019407    0.4758119646   -0.7981887803
N        2.4835289606   -0.0856517107    1.6749531134
O        1.7303108032    1.9974348586    2.3867788544
F       -1.4184365111    0.1241376798   -1.5505696215
H       -0.3899022709   -0.4158137736    1.5387552413
H       -1.4171249701    0.8583185178    0.8599528500
H        1.2022316870   -1.6044348438   -0.4808312538
H        0.7767603719   -1.0697600606   -2.1224183951
H        0.4879021469    2.1259156466    0.1858133251
H       -1.2615181983   -1.5440108420   -0.4160662423
H        1.2568258673    1.0910766494   -1.5930599490
H        2.9557082022   -0.0514973124    2.5801750867
H        3.2181694454   -0.0498260692    0.9688874278
18   
torsion grid (-90,)
C        1.6914579537    1.1056501757    1.5468571884
C       -0.5385925511    0.2440985514    0.6800055425
C        0.7297781510   -0.7718315764   -1.0745995117
C        0.7205474886    1.1154404862    0.3764240799
C       -0.6991149001   -0.6180737195   -0.5673033215
N        1.3763704268    0.5299673282   -0.8221169342
N        2.4221343333   -0.1226018954    1.6698724684
O        1.8656286217    2.0673591153    2.2747553044
F       -1.4463117823    0.1026835647   -1.5320302144
H       -0.3684087402   -0.4044063959    1.5444920693
H       -1.4292185297    0.8457915576    0.8687537795
H        1.2355616950   -1.5519149889   -0.4958919466
H        0.7724408488   -1.0346495260   -2.1342073423
H        0.4486168612    2.1560085532    0.1918652897
H       -1.2286604257   -1.5593200270   -0.3985098578
H        1.1916868671    1.1430709114   -1.6110812689
H        2.7912525632   -0.1238087488    2.6244661348
H        3.2580050804   -0.0549379719    1.0868900347
18   
torsion grid (-75,)
C        1.5889541614    0.8210526604    1.7787292823
C       -0.6749881111    0.5389705084    0.5858843368
C        0.6602664964   -0.8707008564   -0.8355366729
C        0.7865156379    1.0622239746    0.4773709853
C       -0.7889809046   -0.5038793841   -0.5258449710
N        1.4153490232    0.3880007260   -0.6820346395
N        2.9321063934    0.4417446739    1.6087899302
O        1.0261791008    0.8243412141    2.8621153893
F       -1.3394202143    0.1060920343   -1.6831132014
H       -0.8492697786    0.1002005412    1.5705922307
H       -1.4162259195    1.3260403583    0.4359685085
H        1.0207498974   -1.6001293199   -0.0999951491
H        0.7870306799   -1.2919196905   -1.8348790061
H        0.8161064898    2.1460837614    0.3219410447
H       -1.4335592966   -1.3530856353   -0.2865275065
H        1.2587209599    0.9525376254   -1.5142904824
H        3.0924252446    0.3296353151    0.6031369837
H        3.5917197044    1.1480881558    1.9300031522
18   
torsion grid (-60,)
C        1.5579082571    0.9140392643    1.7471099898
C       -0.6921048871    0.5188446919    0.5746768803
C        0.6660627448   -0.8754696333   -0.8388867172
C        0.7525767317    1.0867232077    0.4404574922
C       -0.7890964914   -0.5354180669   -0.5269819092
N        1.3952828063    0.4004397347   -0.7040415538
N        2.8547540943    0.4288674374    1.5941290220
O        1.0149705026    1.0700542337    2.8327281099
F       -1.3566043111    0.0526019331   -1.6872074288
H       -0.8398592660    0.0805483125    1.5639821767
H       -1.4594408358    1.2817812173    0.4326373012
H        1.0446832965   -1.5890884897   -0.0970995192
H        0.7964710326   -1.3051324531   -1.8342295242
H        0.7412921079    2.1653415994    0.2540051742
H       -1.4153063863   -1.3952526064   -0.2767067338
H        1.2330651828    0.9468095532   -1.5470992050
H        3.0664050923    0.3461926284    0.5970242389
H        3.5645313465    1.0003968170    2.0449918805
18   
torsion grid (-45,)
C        1.5695450094    0.9517662729    1.7196524216
C       -0.6794303604    0.4909423919    0.5838833702
C        0.6867955338   -0.8774920637   -0.8478441477
C        0.7500111458    1.0937790099    0.4222430212
C       -0.7701759365   -0.5686637371   -0.5132531343
N        1.3915590327    0.4131617392   -0.7256405742
N        2.8271314256    0.3975032022    1.5666704092
O        1.0666127251    1.2151124242    2.8057701597
F       -1.3703002955    0.0027617665   -1.6651301020
H       -0.8026880766    0.0519901497    1.5763322610
H       -1.4660881600    1.2357388805    0.4521716789
H        1.0915870804   -1.5820990886   -0.1113856575
H        0.8101500247   -1.3058239416   -1.8447092730
H        0.7065110345    2.1698230396    0.2291350679
H       -1.3724181885   -1.4416902127   -0.2499769647
H        1.2108815999    0.9529943008   -1.5690734585
H        3.0907637665    0.3359115022    0.5830174682
H        3.5491303076    0.8182440963    2.1431788821
18   
torsion grid (-30,)
C        1.5747305039    0.9659644335    1.7101521466
C       -0.6741077362    0.4785042475    0.5955197496
C        0.7012628136   -0.8732413674   -0.8440244417
C        0.7459270829    1.1013650498    0.4209063546
C       -0.7574258176   -0.5868833095   -0.4968738642
N        1.3869239825    0.4286387853   -0.7323206790
N        2.8176568638    0.4062313964    1.5460623091
O        1.1013567292    1.2774813994    2.7987404948
F       -1.3776105570   -0.0296493067   -1.6451507003
H       -0.7859041445    0.0420473515    1.5904920661
H       -1.4716118100    1.2119232622    0.4652908039
H        1.1236306514   -1.5684394318   -0.1086129683
H        0.8221084270   -1.3033493257   -1.8404787280
H        0.6861533957    2.1765249984    0.2294007115
H       -1.3430708387   -1.4684939426   -0.2248812667
H        1.1852485401    0.9636956817   -1.5742162787
H        3.1286448383    0.3495036589    0.5791328460
H        3.5153579898    0.6662956280    2.2340328840
18   
torsion grid (-15,)
C        1.5628392496    0.9809568987    1.6962736459
C       -0.6812778908    0.4730527196    0.5856838564
C        0.6954831675   -0.8733778563   -0.8563111913
C        0.7341717781    1.1046342984    0.4066914562
C       -0.7634887894   -0.5901986678   -0.5084213254
N        1.3802002635    0.4284580539   -0.7427012628
N        2.8160619391    0.4715997499    1.5239828064
O        1.0933625452    1.3045379171    2.7849785223
F       -1.3857286364   -0.0325343182   -1.6552039408
H       -0.7870896125    0.0339716466    1.5801898291
H       -1.4831509241    1.2025898792    0.4605311931
H        1.1178633665   -1.5697784320   -0.1217575499
H        0.8172673361   -1.3023773175   -1.8531763193
H        0.6655999449    2.1776875401    0.2078850720
H       -1.3468446556   -1.4736925842   -0.2374050759
H        1.1844690003    0.9625471699   -1.5865312591
H        3.1467299469    0.3612672735    0.5707974879
H        3.4761428818    0.5636160275    2.2856054186
18   
torsion grid (0,)
C        1.5911756192    0.9486844876    1.7224572877
C       -0.6606879483    0.4603732463    0.6145555587
C        0.7121780432   -0.8986566718   -0.8190679755
C        0.7571614417    1.0823713427    0.4358242628
C       -0.7465405480   -0.6088449444   -0.4736526658
N        1.4005916702    0.4018733736   -0.7137476088
N        2.8861044655    0.5890544968    1.5178335336
O        1.1056882617    1.1833548688    2.8277136583
F       -1.3658202429   -0.0568313537   -1.6241329776
H       -0.7690699375    0.0283280410    1.6118161124
H       -1.4588830065    1.1929631601    0.4835140783
H        1.1313228103   -1.5914832521   -0.0789470161
H        0.8340073191   -1.3351806672   -1.8126737272
H        0.6979588216    2.1560134893    0.2362246827
H       -1.3324331489   -1.4890433008   -0.1974019185
H        1.2009104027    0.9325310213   -1.5589592904
H        3.1911497339    0.3829028259    0.5732446262
H        3.5069671528    0.5031704843    2.3112825800
18   
torsion grid (15,)
C        1.5650902433    0.9510205667    1.7394190922
C       -0.6905285424    0.5163409932    0.6098050287
C        0.6794746437   -0.8637912075   -0.8057664471
C        0.7382880403    1.1135395021    0.4492486903
C       -0.7790209962   -0.5549967842   -0.4761749604
N        1.3825481290    0.4285511636   -0.6981135955
N        2.8965762680    0.7412872984    1.5258258748
O        1.0585176023    1.0829796139    2.8510858728
F       -1.3780915638    0.0023893123   -1.6355171328
H       -0.8180944315    0.0910041652    1.6076353222
H       -1.4750261244    1.2610226052    0.4645357641
H        1.0824222329   -1.5589172008   -0.0584442191
H        0.8065990562   -1.3064219895   -1.7959612863
H        0.7042888856    2.1894670762    0.2554068193
H       -1.3798974038   -1.4266456626   -0.2053286157
H        1.1907554641    0.9611732758   -1.5440832031
H        3.1703989866    0.4596133724    0.5895925384
H        3.4607994618    0.4621396824    2.3184584975
18   
torsion grid (30,)
C        1.5753623983    0.9657226416    1.7293527911
C       -0.6804166508    0.5067360927    0.6074340338
C        0.6850426622   -0.8787084814   -0.8069585106
C        0.7460352309    1.1070342351    0.4374474616
C       -0.7724964088   -0.5665907915   -0.4760053390
N        1.3908318250    0.4119453610   -0.7027942654
N        2.9246414560    0.8153188744    1.5188218883
O        1.0662872215    1.1125764020    2.8362474820
F       -1.3727058165   -0.0111985328   -1.6351696905
H       -0.8016695738    0.0820271835    1.6063227879
H       -1.4673882111    1.2494740997    0.4661678253
H        1.0870712677   -1.5744579022   -0.0594565549
H        0.8098222676   -1.3233781978   -1.7965186815
H        0.7067467307    2.1804050699    0.2303243221
H       -1.3737848356   -1.4368860784   -0.2015785539
H        1.2088741206    0.9405715623   -1.5531993319
H        3.1593366924    0.5029173277    0.5787775658
H        3.4373919919    0.3697803748    2.2716370391
18   
torsion grid (45,)
C        1.5546773459    1.0431820358    1.7209924431
C       -0.6934205571    0.5639758690    0.5914099641
C        0.6807272078   -0.8314627357   -0.8051707264
C        0.7333475196    1.1657725033    0.4204697908
C       -0.7788367431   -0.5197469274   -0.4823695438
N        1.3820861434    0.4621623502   -0.7107770046
N        2.9147410174    0.8776627396    1.5287689233
O        1.0390919546    1.2634011944    2.8104872031
F       -1.3757671080    0.0233353036   -1.6486874085
H       -0.8196625991    0.1479110533    1.5933219497
H       -1.4812276825    1.3037430622    0.4400498400
H        1.0819347143   -1.5189285409   -0.0494611509
H        0.8104090023   -1.2855652928   -1.7897613331
H        0.6913343427    2.2370564775    0.2033714945
H       -1.3792250144   -1.3887313050   -0.2018128195
H        1.2019316383    0.9824041299   -1.5667408153
H        3.1166062255    0.5886415089    0.5708458771
H        3.3666056047    0.2738246370    2.2086447408
18   
torsion grid (60,)
C        1.5039829729    1.0734729687    1.6436002186
C       -0.7244853113    0.5778976795    0.4834139396
C        0.6619953019   -0.8173877280   -0.8998169581
C        0.7049938253    1.1812006907    0.3267433399
C       -0.8005445522   -0.4991962163   -0.5973712961
N        1.3670686169    0.4728081252   -0.7921137381
N        2.8717788019    0.8476832374    1.4918049728
O        0.9793760200    1.3862767682    2.7035229459
F       -1.3765598831    0.0537006797   -1.7690488850
H       -0.8601422933    0.1530813206    1.4805169101
H       -1.5111408239    1.3187819032    0.3324252623
H        1.0487500830   -1.5090984058   -0.1402910415
H        0.8038520554   -1.2698458420   -1.8834483671
H        0.6611415186    2.2508309273    0.1021745319
H       -1.4101780824   -1.3659638383   -0.3299820384
H        1.2070375359    0.9940225931   -1.6513451345
H        3.0598210643    0.6107584777    0.5144614858
H        3.2293071324    0.0948641328    2.0748156352
18   
torsion grid (75,)
C        1.4403683100    1.0702511438    1.6217607694
C       -0.7530911982    0.5281677122    0.4188158447
C        0.6763412437   -0.8330322690   -0.9530076708
C        0.6686933420    1.1598448352    0.2866668509
C       -0.7957182661   -0.5361909773   -0.6759604019
N        1.3615888957    0.4652387657   -0.8207083145
N        2.8125717305    0.7715847471    1.5256845817
O        0.9079340964    1.4636412037    2.6475599553
F       -1.3551322936    0.0241657185   -1.8514808867
H       -0.8942736295    0.0847505208    1.4072290204
H       -1.5510469951    1.2571515115    0.2700902789
H        1.0572333428   -1.5273509526   -0.1927544147
H        0.8427962708   -1.2748084434   -1.9376104359
H        0.6048365582    2.2280417749    0.0607441887
H       -1.4001794166   -1.4129965924   -0.4301984876
H        1.2148473941    0.9899978036   -1.6800645951
H        3.0168447368    0.6254419375    0.5320093250
H        3.0547831228   -0.1109775083    1.9741286116
18   
torsion grid (90,)
C        1.5167039269    0.8839241976    1.3329271068
C       -0.7808938532    0.5812095640    0.2030786278
C        0.4658499510   -1.0806861695   -0.9910032645
C        0.6959088021    1.0227011905    0.0468631184
C       -0.9528813984   -0.5505230188   -0.8069750153
N        1.3388866793    0.1061551030   -0.9396667915
N        2.8564522313    1.3588125257    1.1831555238
O        1.1112591200    0.3222734967    2.3371537583
F       -1.3866941202   -0.0097819624   -2.0449685426
H       -0.9579551337    0.2153447135    1.2176071723
H       -1.4857117792    1.3890114774   -0.0030746024
H        0.7108927608   -1.7555090561   -0.1621364893
H        0.5967438394   -1.6232790687   -1.9299289700
H        0.7979513283    2.0527114566   -0.3010098344
H       -1.6899938713   -1.3051769372   -0.5216416265
H        1.3267629861    0.5551390309   -1.8519724219
H        3.2222944434    1.4474032424    2.1349374314
H        3.4161119268    0.6075964721    0.7764609628
18   
torsion grid (105,)
C        1.4740790243    0.9070048029    1.3666242532
C       -0.7982478641    0.5776026644    0.1981841838
C        0.4908982508   -1.0627420909   -0.9850643534
C        0.6756343932    1.0366124856    0.0615316075
C       -0.9404251304   -0.5654432828   -0.8043118555
N        1.3348378041    0.1458710174   -0.9369553553
N        2.8286003838    1.2774823098    1.2140050594
O        1.0154391184    0.4442472299    2.4005960835
F       -1.3854081549   -0.0449296926   -2.0473182845
H       -0.9878662896    0.2245247184    1.2148409514
H       -1.5094696372    1.3739088743   -0.0294193179
H        0.7521707743   -1.7276292695   -0.1530250211
H        0.6353787005   -1.6059258132   -1.9215839267
H        0.7660090064    2.0733687037   -0.2711961066
H       -1.6591699683   -1.3360035179   -0.5148774536
H        1.2920521951    0.5983266059   -1.8470848788
H        3.2528550949    1.2363683649    2.1423481592
H        3.3121098970    0.5800159313    0.6485036903
18   
torsion grid (120,)
C        1.4711691543    0.9389205865    1.3631842243
C       -0.7873794436    0.5701886280    0.1865783069
C        0.5291470174   -1.0486962855   -0.9975045309
C        0.6808749988    1.0489313850    0.0479646510
C       -0.9114638808   -0.5814782221   -0.8085305815
N        1.3446629812    0.1802265823   -0.9646649843
N        2.8369760892    1.1814255999    1.1959643203
O        0.9680538294    0.6176079160    2.4316253667
F       -1.3747872659   -0.0778655180   -2.0520849877
H       -0.9738806540    0.2272101893    1.2071780164
H       -1.5098958267    1.3540534389   -0.0483234957
H        0.8126719665   -1.6988769671   -0.1608255960
H        0.6791365227   -1.5976478813   -1.9296840326
H        0.7520378125    2.0908471889   -0.2755183781
H       -1.6119314416   -1.3656143257   -0.5110302407
H        1.2670650255    0.6315501620   -1.8734034064
H        3.3087051482    1.0647993437    2.0916522238
H        3.2470418079    0.5497236625    0.5106258589
18   
torsion grid (135,)
C        1.4175949773    0.9657657266    1.4214180571
C       -0.8102217560    0.5613643752    0.2053579510
C        0.5522311882   -1.0260800158   -0.9754748529
C        0.6538213987    1.0626629050    0.0868815020
C       -0.9005708336   -0.5971363095   -0.7863082667
N        1.3357734592    0.2230750350   -0.9345264166
N        2.7903365409    1.0544408669    1.2694387228
O        0.8623730097    0.8174835229    2.5041470762
F       -1.3781492564   -0.1117122932   -2.0315785283
H       -1.0119107624    0.2286332333    1.2261974574
H       -1.5400371981    1.3319178145   -0.0498423582
H        0.8517965158   -1.6723489165   -0.1410186231
H        0.7170780921   -1.5673592753   -1.9095844104
H        0.7071635093    2.1112611810   -0.2198715185
H       -1.5781506650   -1.4001356415   -0.4861376940
H        1.2446276489    0.6792406986   -1.8397152140
H        3.2766044460    0.8809001542    2.1451973988
H        3.1447734282    0.4914301074    0.4998212461
18   
torsion grid (150,)
C        1.4128525229    1.0110715563    1.4354973858
C       -0.8029992382    0.5648166110    0.2217602010
C        0.5848888608   -0.9999348773   -0.9648236926
C        0.6541491234    1.0889194219    0.0956508640
C       -0.8755224865   -0.6045581353   -0.7590408506
N        1.3391476477    0.2674162243   -0.9353302719
N        2.7767007716    0.9490526986    1.2907021979
O        0.8416491474    1.0379096642    2.5215901843
F       -1.3811848609   -0.1432511644   -2.0021085502
H       -1.0017219905    0.2432773921    1.2465547726
H       -1.5452034234    1.3203966890   -0.0420257243
H        0.9105612051   -1.6369491292   -0.1328922463
H        0.7499018834   -1.5393106216   -1.8999565223
H        0.6848752881    2.1402938911   -0.2051680211
H       -1.5284306283   -1.4216867648   -0.4426637552
H        1.2259013732    0.7207258959   -1.8395426616
H        3.2832399730    0.7528851700    2.1471400196
H        3.0960263931    0.4722512693    0.4517895873
18   
torsion grid (165,)
C        1.4069015650    1.0434914328    1.4346650851
C       -0.7999398202    0.5602495201    0.2285068246
C        0.6102634961   -0.9811969077   -0.9656080249
C        0.6508064465    1.1067850293    0.0931333171
C       -0.8560576599   -0.6170006451   -0.7446689689
N        1.3359908973    0.3028762311   -0.9484567458
N        2.7445047704    0.8110504528    1.3064460799
O        0.8424128011    1.2409925153    2.5082896571
F       -1.3861375494   -0.1743794951   -1.9844577643
H       -0.9957749554    0.2465015094    1.2560740242
H       -1.5534565915    1.3021109471   -0.0418568775
H        0.9597058830   -1.6055604576   -0.1336946517
H        0.7770017065   -1.5220493108   -1.8995465567
H        0.6586148741    2.1604934643   -0.2005548785
H       -1.4868322638   -1.4468576831   -0.4166712233
H        1.1980569246    0.7536724925   -1.8506185330
H        3.2799085513    0.6585016168    2.1515884578
H        3.0683310271    0.4338753111    0.4217457005
18   
torsion grid (180,)
C        1.3773123725    1.1462559977    1.3868958362
C       -0.8262642207    0.5937592821    0.2163087846
C        0.5721740699   -0.9270109514   -1.0135912179
C        0.6146021513    1.1647866223    0.0505865070
C       -0.8918870683   -0.5650134413   -0.7766341447
N        1.2965098187    0.3581325265   -0.9904504538
N        2.6605901968    0.7068293107    1.2970479780
O        0.8482475825    1.5264369742    2.4298888018
F       -1.4296518142   -0.0998544643   -2.0044284023
H       -0.9889156227    0.2507992773    1.2405959515
H       -1.5991869100    1.3298436968   -0.0108283599
H        0.9299236111   -1.5609046580   -0.1929444795
H        0.7298108445   -1.4557310387   -1.9560880504
H        0.5936511664    2.2134607613   -0.2588908844
H       -1.5223899159   -1.3985848524   -0.4572869765
H        1.1604598847    0.8103929906   -1.8919851374
H        3.2428563069    0.7085769488    2.1236972115
H        3.0129624977    0.4122451480    0.3932610215
