15   
torsion grid (-90,)
C        2.3735527833   -0.8682191034   -1.0115466245
C        1.3057971251   -1.3292235538   -0.2891818702
C        3.4829507895   -1.6362986047   -1.7090717604
C       -0.9154462457   -0.4212606978   -0.9811365707
C       -0.0969922422   -1.7006092546   -0.7412466544
H        2.8738376908   -0.0563952765   -0.4664618667
H        1.1595702060   -0.6936438187    0.5966128053
H        4.0329999590   -1.0162256699   -2.4267715214
H        3.1422198575   -2.5387240977   -2.2298160057
H        4.1882101717   -1.9413048224   -0.9295814174
H       -0.4670720724    0.1780652865   -1.7790623393
H       -0.9574677379    0.1976705656   -0.0781348310
H       -1.9427032739   -0.6766322215   -1.2661158225
H       -0.5987035719   -2.3072421468    0.0240723206
H       -0.0871510876   -2.3022152559   -1.6593180748
15   
torsion grid (-75,)
C        2.4056416969   -0.8120115180   -0.9165612123
C        1.3162233198   -1.2303412637   -0.2171539418
C        3.3824534235   -1.6530259565   -1.7135345331
C       -0.9144856414   -0.4511509456   -1.0251643266
C       -0.0284022148   -1.6789084364   -0.7560497288
H        2.9642639306   -0.0306454457   -0.3880622709
H        1.1385125812   -0.6119366224    0.6722550923
H        3.9096325601   -1.0782838918   -2.4847230788
H        2.9156936092   -2.5198896481   -2.1944792346
H        4.1354128877   -2.0225089100   -1.0095363266
H       -0.4569391086    0.1959310164   -1.7795892486
H       -1.0558255598    0.1420164727   -0.1149083309
H       -1.9023665966   -0.7641427006   -1.3822464949
H       -0.5389999188   -2.3361038982   -0.0394192576
H        0.0856086047   -2.2558476451   -1.6824290685
15   
torsion grid (-60,)
C        2.4586576375   -0.7799998936   -0.8202289874
C        1.3375758839   -1.1406332266   -0.1543899151
C        3.3012216101   -1.6572515848   -1.7196582483
C       -0.8980806473   -0.4812741599   -1.0577888461
C        0.0474580548   -1.6562213396   -0.7552467282
H        3.0788445902   -0.0404918427   -0.3041887785
H        1.1297724839   -0.5409386130    0.7387975060
H        3.8013404950   -1.0955462851   -2.5183060876
H        2.7281324090   -2.4678938539   -2.1818589805
H        4.0850306586   -2.1090101052   -1.1016822840
H       -0.4464397998    0.1995528180   -1.7858832394
H       -1.1162157821    0.0942771929   -0.1513084244
H       -1.8486876818   -0.8466640229   -1.4626468910
H       -0.4571744620   -2.3504995390   -0.0696746263
H        0.2412699916   -2.2155250297   -1.6784587663
15   
torsion grid (-45,)
C        2.5138222968   -0.7852844190   -0.7248324585
C        1.3526289166   -1.0710973603   -0.1035017501
C        3.2401540540   -1.6516481699   -1.7252627759
C       -0.8795996729   -0.5074908745   -1.0868416072
C        0.1027506171   -1.6384098475   -0.7347264827
H        3.1794852057   -0.0940218548   -0.2019490022
H        1.1358121425   -0.4824114967    0.7927040660
H        3.7172188248   -1.0673452949   -2.5220724598
H        2.5884698887   -2.3949656219   -2.1942059988
H        4.0388123148   -2.1882271351   -1.1999070592
H       -0.4325153257    0.1810299148   -1.8108221147
H       -1.1500807009    0.0723963578   -0.1973668700
H       -1.8016248494   -0.9145394497   -1.5170795364
H       -0.3948303081   -2.3398034096   -0.0510857121
H        0.3448922443   -2.2062135724   -1.6400590105
15   
torsion grid (-30,)
C        2.5561638744   -0.8140515266   -0.6487537213
C        1.3571195713   -1.0128246799   -0.0739639421
C        3.1924981813   -1.6343948577   -1.7421568352
C       -0.8699508267   -0.5353076434   -1.1291874620
C        0.1331566034   -1.6246629809   -0.7090661614
H        3.2555848394   -0.1654239486   -0.1182060769
H        1.1413402348   -0.4359167101    0.8284437813
H        3.6752158176   -1.0048972699   -2.5001040007
H        2.4805329686   -2.2888532801   -2.2517958296
H        3.9769989872   -2.2656848726   -1.3074436571
H       -0.4256194966    0.1327141684   -1.8739714629
H       -1.1716580116    0.0758200976   -0.2711518687
H       -1.7736951687   -0.9816268763   -1.5589737530
H       -0.3597107504   -2.3056979781   -0.0019652313
H        0.4028851489   -2.2278130235   -1.5819238832
15   
torsion grid (-15,)
C        2.5950519719   -0.8605974475   -0.5973058802
C        1.3552626663   -0.9499449740   -0.0894228833
C        3.1754773313   -1.6369927370   -1.7499765645
C       -0.8953720946   -0.5551155821   -1.1489838602
C        0.1460720245   -1.6006638343   -0.7101712280
H        3.3129645064   -0.2510723689   -0.0466210777
H        1.1454238154   -0.3640661505    0.8077925731
H        3.6390375778   -0.9695060293   -2.4872464000
H        2.4324983642   -2.2464312141   -2.2696440882
H        3.9665343470   -2.3064462826   -1.3897914558
H       -0.4774430028    0.1132878438   -1.9087927417
H       -1.2153420508    0.0625499953   -0.3022640468
H       -1.7852422112   -1.0385895917   -1.5671937814
H       -0.3196725189   -2.2799005943    0.0169035611
H        0.4290948302   -2.2161952239   -1.5691896293
15   
torsion grid (0,)
C        2.6215799670   -0.9209640730   -0.5384795642
C        1.3553196784   -0.8997942070   -0.0946608343
C        3.1620895250   -1.6334941344   -1.7499142492
C       -0.9120110199   -0.5742087456   -1.1647923535
C        0.1518583296   -1.5814073205   -0.6922837332
H        3.3598879425   -0.3547641193    0.0307441407
H        1.1496525683   -0.3116843218    0.8016995779
H        3.6447350346   -0.9219101094   -2.4314949755
H        2.3903177380   -2.1642495312   -2.3118128251
H        3.9298255283   -2.3626427703   -1.4616667532
H       -0.5142113836    0.0688846736   -1.9567656491
H       -1.2345757954    0.0735987710   -0.3418109010
H       -1.7977345696   -1.0889273598   -1.5532654129
H       -0.2952421437   -2.2384115894    0.0662027086
H        0.4404301623   -2.2272489798   -1.5265644482
15   
torsion grid (15,)
C        2.6382286119   -0.9874293205   -0.4970523125
C        1.3537419568   -0.8493669554   -0.1314756289
C        3.1723867185   -1.6360534443   -1.7471633205
C       -0.9457314515   -0.5903570514   -1.1756963749
C        0.1500260802   -1.5587293372   -0.6965004022
H        3.3824127986   -0.4569644810    0.0988175215
H        1.1529090377   -0.2495423459    0.7585542795
H        3.6712815433   -0.8841542281   -2.3709979342
H        2.3907905246   -2.1053072231   -2.3492733409
H        3.9237519136   -2.4013840154   -1.5147005175
H       -0.5809237801    0.0363147215   -1.9963360300
H       -1.2640034904    0.0761187549   -0.3659277860
H       -1.8290139825   -1.1343865519   -1.5279440572
H       -0.2649604510   -2.2022735460    0.0910990175
H        0.4372654037   -2.2235484654   -1.5165698578
15   
torsion grid (30,)
C        2.6493214169   -1.0582486666   -0.4696823959
C        1.3591326022   -0.8036375477   -0.1897052945
C        3.2062800322   -1.6417890884   -1.7433238399
C       -0.9839090636   -0.6019882249   -1.1727818551
C        0.1462693153   -1.5359312280   -0.7078345283
H        3.3904364538   -0.5583203268    0.1569316230
H        1.1641861008   -0.1869102088    0.6910309047
H        3.7238664851   -0.8523752339   -2.3015587253
H        2.4308581974   -2.0580129375   -2.3917743016
H        3.9447763424   -2.4304467763   -1.5510815730
H       -0.6619364012    0.0092526995   -2.0225406433
H       -1.2860150388    0.0801389116   -0.3697243699
H       -1.8690138976   -1.1705664486   -1.4784493053
H       -0.2261353127   -2.1659050917    0.1110566031
H        0.4201434833   -2.2172907080   -1.5198600841
15   
torsion grid (45,)
C        2.6547197456   -1.1314105066   -0.4575392617
C        1.3706832311   -0.7701343789   -0.2670734497
C        3.2662235353   -1.6460298350   -1.7389926185
C       -1.0184573547   -0.6083261523   -1.1651906262
C        0.1383666334   -1.5181188896   -0.7216338261
H        3.3883955930   -0.6555129587    0.1979781810
H        1.1744095426   -0.1351798895    0.6020102162
H        3.7920101772   -0.8165951382   -2.2260546965
H        2.5182529779   -2.0283313236   -2.4400203790
H        4.0062249455   -2.4380573602   -1.5682484126
H       -0.7413293553   -0.0232291778   -2.0485094622
H       -1.2893472454    0.0979685092   -0.3717502628
H       -1.9123141791   -1.1918834495   -1.4111973241
H       -0.1887143716   -2.1232417354    0.1338831733
H        0.3839591113   -2.2242832470   -1.5229441656
15   
torsion grid (60,)
C        2.6322774074   -1.2128157601   -0.4682339974
C        1.3606490827   -0.7654944469   -0.3585021675
C        3.3354927224   -1.6467018753   -1.7357283273
C       -1.0754401338   -0.6002779077   -1.1386685286
C        0.0932923979   -1.5084049156   -0.7276902055
H        3.3387559423   -0.7532307805    0.2301908555
H        1.1809334293   -0.1083086733    0.4998872465
H        3.8558546935   -0.7719690853   -2.1412123289
H        2.6435390825   -2.0126414508   -2.5015517062
H        4.0918292767   -2.4223547039   -1.5628074958
H       -0.8454147406   -0.0557001946   -2.0605282447
H       -1.2887554603    0.1415326865   -0.3600424742
H       -1.9900947101   -1.1793342281   -1.3062029319
H       -0.1875893452   -2.0760324815    0.1681572291
H        0.2862180044   -2.2479549857   -1.5146855450
15   
torsion grid (75,)
C        2.6108306858   -1.2923023210   -0.5147434235
C        1.3471525998   -0.7909626351   -0.4775922349
C        3.4428658575   -1.6432355920   -1.7320466687
C       -1.1325114266   -0.5805830580   -1.0966809262
C        0.0363365211   -1.5098991853   -0.7402650794
H        3.2638750081   -0.8248241909    0.2317991866
H        1.1974701885   -0.1109459996    0.3714572685
H        3.9400911398   -0.7229892447   -2.0561186865
H        2.8461024356   -2.0187039848   -2.5707970197
H        4.2264735124   -2.3795773550   -1.5157201388
H       -0.9586037292   -0.0776600226   -2.0537325925
H       -1.2637704231    0.1952591979   -0.3331048436
H       -2.0735000288   -1.1361996742   -1.1719080737
H       -0.1902846610   -2.0374029169    0.1938756542
H        0.1494831995   -2.2815097488   -1.5128436454
15   
torsion grid (90,)
C        2.5863766935   -1.3695266871   -0.5843767350
C        1.3240334535   -0.8417414405   -0.6107321900
C        3.5568778410   -1.6376184658   -1.7219321954
C       -1.1848051770   -0.5524328128   -1.0434079887
C       -0.0303147298   -1.5212729885   -0.7560027785
H        3.1805549486   -0.8797603555    0.1992021684
H        1.1977119482   -0.1411224207    0.2283636987
H        4.0070138666   -0.6742203255   -1.9813562583
H        3.0860353446   -2.0459892677   -2.6236878602
H        4.3696290669   -2.3121705470   -1.4276141838
H       -1.0728154299   -0.0858349263   -2.0276037467
H       -1.2191233768    0.2499784639   -0.2968821512
H       -2.1501183331   -1.0694427302   -1.0213870827
H       -0.1968629582   -2.0119900038    0.2096566627
H       -0.0157354998   -2.3179106695   -1.5117610884
