46
0 1 C17H25NO3
C                     0.226583616658    -3.427225804179    -4.570876754909
C                    -0.871041008443    -2.564721715336    -4.645372020707
C                     1.301211697756    -3.104517591711    -3.734051641102
C                    -0.890075973095    -1.390618674631    -3.885097052474
C                     1.280933018489    -1.929476198101    -2.978936182425
C                     0.182284557196    -1.057430223925    -3.045216241907
C                    -0.204545555461     1.324643908066     0.001117743980
C                    -1.099271641544    -1.020815706579    -0.281205727561
C                    -0.553998527033    -1.533816753101     1.046427333231
C                    -0.004128778184    -0.039466385629    -0.696322335958
C                     2.147362612673     4.098515237558     0.237566721416
C                     1.405961580468    -2.468855633178     3.015490675200
C                     3.225210446050    -1.713538796113     1.461512497919
C                     1.717093845657    -0.005222084760     2.525779966578
C                     0.142134913828     0.204449620924    -2.215983603966
C                     0.824103085109     3.405304341888     0.502217436281
C                     1.794141841151    -1.432349965180     1.947822248109
N                     0.891124929329    -1.665590789902     0.790004038092
O                    -1.200498262387     1.657977310993     0.617877746553
O                     1.211326752148    -0.629503425906    -0.220826226816
O                     0.873445626731     2.114208337482    -0.159155316714
H                     0.245547491644    -4.341050901232    -5.159431098852
H                    -1.710785275415    -2.804068414261    -5.293157757226
H                     2.157608663537    -3.771242681144    -3.668893834190
H                    -1.749662718559    -0.725795125295    -3.944963955131
H                     2.106495653721    -1.690581395347    -2.316564633904
H                    -1.158086026603    -1.828996357429    -1.011835145972
H                    -2.071902561569    -0.539956449908    -0.177997592068
H                    -0.795410758073    -0.826665403497     1.850290189089
H                    -0.952874586292    -2.516239404188     1.309122436671
H                     2.980562661500     3.511495089476     0.634811528422
H                     2.306065683959     4.242912606216    -0.835166217336
H                     2.153111519805     5.079978823743     0.722639927344
H                     0.425525211917    -2.259448611351     3.454039059982
H                     1.387621176780    -3.475461635166     2.586113926332
H                     2.141655314745    -2.453975111804     3.825283808387
H                     3.510107301074    -1.009585237934     0.675927909760
H                     3.294445309366    -2.727772839967     1.056789998877
H                     3.935735602003    -1.615524090434     2.289183348699
H                     2.023277478409     0.726594108798     1.775015873894
H                     0.710813959708     0.250195884806     2.871904508747
H                     2.389948717519     0.082539188033     3.385144759244
H                     1.054886627827     0.789950501234    -2.358814444035
H                    -0.694840084132     0.833913443208    -2.538121051186
H                    -0.025710233534     3.969111655364     0.106715167496
H                     0.651240316478     3.240735568767     1.569481169808
