
  -OEChem-05262117483D

 27 28  0     0  0  0  0  0  0999 V2000
    2.5072   -0.6718    0.4158 C   0  0  0  0  0  0  0  0  0  0  0  0
   -0.2298    3.5023    5.2644 C   0  0  0  0  0  0  0  0  0  0  0  0
    1.2645   -1.0589    0.9427 C   0  0  0  0  0  0  0  0  0  0  0  0
    1.1706    3.3996    5.2535 C   0  0  0  0  0  0  0  0  0  0  0  0
    3.5541   -0.3005    1.2517 C   0  0  0  0  0  0  0  0  0  0  0  0
   -1.0307    2.3668    5.2201 C   0  0  0  0  0  0  0  0  0  0  0  0
    1.0816   -1.0536    2.3197 C   0  0  0  0  0  0  0  0  0  0  0  0
    1.7566    2.1422    5.1819 C   0  0  0  0  0  0  0  0  0  0  0  0
    3.3909   -0.2955    2.6479 C   0  0  0  0  0  0  0  0  0  0  0  0
   -0.4567    1.0854    5.1548 C   0  0  0  0  0  0  0  0  0  0  0  0
    2.1307   -0.6669    3.1681 C   0  0  0  0  0  0  0  0  0  0  0  0
    0.9530    0.9931    5.1234 C   0  0  0  0  0  0  0  0  0  0  0  0
    0.8004   -1.6285    5.2614 O   0  0  0  0  0  0  0  0  0  0  0  0
    3.0814   -0.5239    5.6160 O   0  0  0  0  0  0  0  0  0  0  0  0
    4.4604    0.0757    3.3916 O   0  0  0  0  0  0  0  0  0  0  0  0
   -1.3059    0.0307    5.1183 O   0  0  0  0  0  0  0  0  0  0  0  0
    1.7791   -0.5737    4.9142 S   0  0  0  0  0  0  0  0  0  0  0  0
    2.6616   -0.6702   -0.6599 H   0  0  0  0  0  0  0  0  0  0  0  0
   -0.6998    4.4806    5.3183 H   0  0  0  0  0  0  0  0  0  0  0  0
    0.4546   -1.3609    0.2862 H   0  0  0  0  0  0  0  0  0  0  0  0
    1.7914    4.2887    5.3021 H   0  0  0  0  0  0  0  0  0  0  0  0
    4.5244   -0.0168    0.8554 H   0  0  0  0  0  0  0  0  0  0  0  0
   -2.1141    2.4344    5.2462 H   0  0  0  0  0  0  0  0  0  0  0  0
    0.1314   -1.3527    2.7513 H   0  0  0  0  0  0  0  0  0  0  0  0
    2.8370    2.0362    5.1764 H   0  0  0  0  0  0  0  0  0  0  0  0
    4.2799   -0.1197    4.3387 H   0  0  0  0  0  0  0  0  0  0  0  0
   -0.7957   -0.8007    5.2453 H   0  0  0  0  0  0  0  0  0  0  0  0
  1  3  1  0  0  0  0
  1  5  2  0  0  0  0
  1 18  1  0  0  0  0
  2  4  1  0  0  0  0
  2  6  2  0  0  0  0
  2 19  1  0  0  0  0
  3  7  2  0  0  0  0
  3 20  1  0  0  0  0
  4  8  2  0  0  0  0
  4 21  1  0  0  0  0
  5  9  1  0  0  0  0
  5 22  1  0  0  0  0
  6 10  1  0  0  0  0
  6 23  1  0  0  0  0
  7 11  1  0  0  0  0
  7 24  1  0  0  0  0
  8 12  1  0  0  0  0
  8 25  1  0  0  0  0
  9 11  2  0  0  0  0
  9 15  1  0  0  0  0
 10 12  2  0  0  0  0
 10 16  1  0  0  0  0
 11 17  1  0  0  0  0
 12 17  1  0  0  0  0
 13 17  2  0  0  0  0
 14 17  2  0  0  0  0
 15 26  1  0  0  0  0
 16 27  1  0  0  0  0
M  END
$$$$
