
  -OEChem-05262117483D

 31 32  0     1  0  0  0  0  0999 V2000
   -0.0787   -3.3397    0.4005 C   0  0  0  0  0  0  0  0  0  0  0  0
    3.4833   -2.8308   -0.6327 C   0  0  0  0  0  0  0  0  0  0  0  0
   -0.5571   -2.0488    0.3693 C   0  0  0  0  0  0  0  0  0  0  0  0
    3.9640   -4.1166   -0.6008 C   0  0  0  0  0  0  0  0  0  0  0  0
    1.6039   -1.2253   -0.3248 C   0  0  0  0  0  0  0  0  0  0  0  0
    1.7878   -4.9565    0.0978 C   0  0  0  0  0  0  0  0  0  0  0  0
    2.1287   -2.5448   -0.3002 C   0  0  0  0  0  0  0  0  0  0  0  0
    1.2749   -3.6296    0.0705 C   0  0  0  0  0  0  0  0  0  0  0  0
    0.2869   -0.9605    0.0042 C   0  0  0  0  0  0  0  0  0  0  0  0
    3.1097   -5.1953   -0.2321 C   0  0  0  0  0  0  0  0  0  0  0  0
   -1.3861    0.6223   -1.0618 C   0  0  0  0  0  0  0  0  0  0  0  0
   -0.7232    0.9446    1.3603 C   0  0  0  0  0  0  0  0  0  0  0  0
    2.9144   -7.5502    0.1187 C   0  0  0  0  0  0  0  0  0  0  0  0
   -0.2651    0.4534   -0.0197 C   0  0  1  0  0  0  0  0  0  0  0  0
   -2.3496    1.3384   -0.9135 O   0  0  0  0  0  0  0  0  0  0  0  0
   -1.2093   -0.0580   -2.2278 O   0  0  0  0  0  0  0  0  0  0  0  0
    3.7088   -6.4226   -0.2404 O   0  0  0  0  0  0  0  0  0  0  0  0
   -0.7407   -4.1572    0.6769 H   0  0  0  0  0  0  0  0  0  0  0  0
    4.1431   -2.0138   -0.9151 H   0  0  0  0  0  0  0  0  0  0  0  0
   -1.5981   -1.8550    0.6170 H   0  0  0  0  0  0  0  0  0  0  0  0
    4.9954   -4.3453   -0.8523 H   0  0  0  0  0  0  0  0  0  0  0  0
    2.2661   -0.4077   -0.6059 H   0  0  0  0  0  0  0  0  0  0  0  0
    1.1201   -5.7629    0.3811 H   0  0  0  0  0  0  0  0  0  0  0  0
   -1.5364    0.3256    1.7487 H   0  0  0  0  0  0  0  0  0  0  0  0
    0.1111    0.8996    2.0659 H   0  0  0  0  0  0  0  0  0  0  0  0
   -1.0886    1.9716    1.2976 H   0  0  0  0  0  0  0  0  0  0  0  0
    3.5745   -8.4155    0.0487 H   0  0  0  0  0  0  0  0  0  0  0  0
    2.0711   -7.6773   -0.5711 H   0  0  0  0  0  0  0  0  0  0  0  0
    2.5381   -7.4599    1.1450 H   0  0  0  0  0  0  0  0  0  0  0  0
    0.5369    1.1168   -0.3710 H   0  0  0  0  0  0  0  0  0  0  0  0
   -0.4374   -0.6482   -2.1387 H   0  0  0  0  0  0  0  0  0  0  0  0
  1  3  1  0  0  0  0
  1  8  2  0  0  0  0
  1 18  1  0  0  0  0
  2  4  2  0  0  0  0
  2  7  1  0  0  0  0
  2 19  1  0  0  0  0
  3  9  2  0  0  0  0
  3 20  1  0  0  0  0
  4 10  1  0  0  0  0
  4 21  1  0  0  0  0
  5  7  2  0  0  0  0
  5  9  1  0  0  0  0
  5 22  1  0  0  0  0
  6  8  1  0  0  0  0
  6 10  2  0  0  0  0
  6 23  1  0  0  0  0
  7  8  1  0  0  0  0
  9 14  1  0  0  0  0
 10 17  1  0  0  0  0
 11 14  1  0  0  0  0
 11 15  2  0  0  0  0
 11 16  1  0  0  0  0
 12 14  1  0  0  0  0
 12 24  1  0  0  0  0
 12 25  1  0  0  0  0
 12 26  1  0  0  0  0
 13 17  1  0  0  0  0
 13 27  1  0  0  0  0
 13 28  1  0  0  0  0
 13 29  1  0  0  0  0
 14 30  1  0  0  0  0
 16 31  1  0  0  0  0
M  END
$$$$
