23
1 1 C9ClH10N2O
C                    -1.388785721192     1.638898927351     0.447007218993
C                    -0.974691123325     2.761166155088    -0.273211870781
C                     0.705154176602     1.434726457699    -1.427896028768
C                     0.270762986820     0.323246682030    -0.707407302038
C                    -0.759177497031     0.416959732622     0.233753338142
C                     0.070554403733     2.657813570092    -1.200380790338
C                     0.604376430327    -1.977818293164    -0.107438912584
C                    -0.152810439624    -1.662177797981     1.174542347750
C                     0.806699266874    -1.182186196139     2.268615325917
N                     0.825703343452    -0.971455072388    -0.935735684753
N                     1.038767762987    -3.212656351739    -0.337017926259
O                    -1.185582143263    -0.720447874250     0.886553875416
Cl                    0.590587770876     4.063247291001    -2.083532336754
H                    -2.197294234366     1.702685710195     1.168315530096
H                    -1.457480564456     3.719251094281    -0.111872872556
H                     1.512258772052     1.359133207399    -2.151191379129
H                    -0.680679095596    -2.562112305468     1.497720670668
H                     1.347372063972    -0.283117962329     1.962753967378
H                     1.533070295728    -1.961331337948     2.517648015713
H                     0.222427607015    -0.953110599328     3.162693651469
H                     1.350528590158    -1.113740468339    -1.796211611975
H                     1.570188510402    -3.470670914501    -1.163714942803
H                     0.832418316500    -3.955887665039     0.321395609564
