
  -OEChem-05262117483D

 31 32  0     1  0  0  0  0  0999 V2000
    0.0687   -3.7944    0.4268 C   0  0  0  0  0  0  0  0  0  0  0  0
    3.6372   -3.3242   -0.5961 C   0  0  0  0  0  0  0  0  0  0  0  0
   -0.3927   -2.4972    0.3802 C   0  0  0  0  0  0  0  0  0  0  0  0
    4.1152   -4.6176   -0.5516 C   0  0  0  0  0  0  0  0  0  0  0  0
    1.7778   -1.6991   -0.3152 C   0  0  0  0  0  0  0  0  0  0  0  0
    1.9269   -5.4212    0.1426 C   0  0  0  0  0  0  0  0  0  0  0  0
    2.2883   -3.0229   -0.2760 C   0  0  0  0  0  0  0  0  0  0  0  0
    1.4207   -4.1007    0.1016 C   0  0  0  0  0  0  0  0  0  0  0  0
    0.4607   -1.4201    0.0055 C   0  0  0  0  0  0  0  0  0  0  0  0
    3.2489   -5.6825   -0.1773 C   0  0  0  0  0  0  0  0  0  0  0  0
    0.7060    1.0009    0.7907 C   0  0  0  0  0  0  0  0  0  0  0  0
   -0.2113    0.5030   -1.5147 C   0  0  0  0  0  0  0  0  0  0  0  0
    4.9969   -7.3088   -0.4297 C   0  0  0  0  0  0  0  0  0  0  0  0
   -0.0825   -0.0029   -0.0698 C   0  0  1  0  0  0  0  0  0  0  0  0
    0.8273    2.1731    0.5170 O   0  0  0  0  0  0  0  0  0  0  0  0
    1.2275    0.5119    1.9493 O   0  0  0  0  0  0  0  0  0  0  0  0
    3.6452   -6.9903   -0.1088 O   0  0  0  0  0  0  0  0  0  0  0  0
   -0.6003   -4.6014    0.7156 H   0  0  0  0  0  0  0  0  0  0  0  0
    4.3051   -2.5152   -0.8823 H   0  0  0  0  0  0  0  0  0  0  0  0
   -1.4295   -2.2848    0.6327 H   0  0  0  0  0  0  0  0  0  0  0  0
    5.1517   -4.8108   -0.8031 H   0  0  0  0  0  0  0  0  0  0  0  0
    2.4507   -0.8924   -0.6015 H   0  0  0  0  0  0  0  0  0  0  0  0
    1.2824   -6.2485    0.4265 H   0  0  0  0  0  0  0  0  0  0  0  0
    0.7678    0.5407   -2.0003 H   0  0  0  0  0  0  0  0  0  0  0  0
   -0.8525   -0.1718   -2.0888 H   0  0  0  0  0  0  0  0  0  0  0  0
   -0.6366    1.5085   -1.5326 H   0  0  0  0  0  0  0  0  0  0  0  0
    5.0822   -8.3894   -0.3090 H   0  0  0  0  0  0  0  0  0  0  0  0
    5.6992   -6.8129    0.2513 H   0  0  0  0  0  0  0  0  0  0  0  0
    5.2378   -7.0411   -1.4657 H   0  0  0  0  0  0  0  0  0  0  0  0
   -1.0852   -0.0064    0.3788 H   0  0  0  0  0  0  0  0  0  0  0  0
    1.1285   -0.4585    1.9583 H   0  0  0  0  0  0  0  0  0  0  0  0
  1  3  1  0  0  0  0
  1  8  2  0  0  0  0
  1 18  1  0  0  0  0
  2  4  2  0  0  0  0
  2  7  1  0  0  0  0
  2 19  1  0  0  0  0
  3  9  2  0  0  0  0
  3 20  1  0  0  0  0
  4 10  1  0  0  0  0
  4 21  1  0  0  0  0
  5  7  2  0  0  0  0
  5  9  1  0  0  0  0
  5 22  1  0  0  0  0
  6  8  1  0  0  0  0
  6 10  2  0  0  0  0
  6 23  1  0  0  0  0
  7  8  1  0  0  0  0
  9 14  1  0  0  0  0
 10 17  1  0  0  0  0
 11 14  1  0  0  0  0
 11 15  2  0  0  0  0
 11 16  1  0  0  0  0
 12 14  1  0  0  0  0
 12 24  1  0  0  0  0
 12 25  1  0  0  0  0
 12 26  1  0  0  0  0
 13 17  1  0  0  0  0
 13 27  1  0  0  0  0
 13 28  1  0  0  0  0
 13 29  1  0  0  0  0
 14 30  1  0  0  0  0
 16 31  1  0  0  0  0
M  END
$$$$
