
  -OEChem-05262117483D

 32 33  0     1  0  0  0  0  0999 V2000
    2.4890   -0.7209    0.0355 C   0  0  0  0  0  0  0  0  0  0  0  0
    1.8012   -1.9186    0.2552 C   0  0  0  0  0  0  0  0  0  0  0  0
    1.7850    0.4838   -0.0001 C   0  0  0  0  0  0  0  0  0  0  0  0
    0.4125   -1.9026    0.3878 C   0  0  0  0  0  0  0  0  0  0  0  0
    0.3872    0.5364    0.1750 C   0  0  0  0  0  0  0  0  0  0  0  0
   -0.2991   -0.6968    0.3305 C   0  0  0  0  0  0  0  0  0  0  0  0
   -1.6474    1.8977   -0.0459 C   0  0  0  0  0  0  0  0  0  0  0  0
   -0.3378    1.8257    0.2579 C   0  0  0  0  0  0  0  0  0  0  0  0
   -2.4429    0.7138   -0.5182 C   0  0  0  0  0  0  0  0  0  0  0  0
    0.3729    3.0446    0.8077 C   0  0  0  0  0  0  0  0  0  0  0  0
    0.5287    1.9362    3.1532 C   0  0  0  0  0  0  0  0  0  0  0  0
    0.1880    3.2050    2.3418 C   0  0  1  0  0  0  0  0  0  0  0  0
    1.0380    4.4078    2.8146 C   0  0  0  0  0  0  0  0  0  0  0  0
    1.8756    1.5132    3.0236 O   0  0  0  0  0  0  0  0  0  0  0  0
   -1.1668    3.4749    2.6825 O   0  0  0  0  0  0  0  0  0  0  0  0
    0.5154    5.5667    2.2955 F   0  0  0  0  0  0  0  0  0  0  0  0
    1.0324    4.5497    4.1540 F   0  0  0  0  0  0  0  0  0  0  0  0
    2.3218    4.3477    2.4102 F   0  0  0  0  0  0  0  0  0  0  0  0
   -2.0635   -0.7543    0.5096 S   0  0  0  0  0  0  0  0  0  0  0  0
    3.5667   -0.7209   -0.1006 H   0  0  0  0  0  0  0  0  0  0  0  0
    2.3381   -2.8621    0.3014 H   0  0  0  0  0  0  0  0  0  0  0  0
    2.3359    1.4014   -0.1803 H   0  0  0  0  0  0  0  0  0  0  0  0
   -0.1313   -2.8341    0.5209 H   0  0  0  0  0  0  0  0  0  0  0  0
   -2.1740    2.8419    0.0678 H   0  0  0  0  0  0  0  0  0  0  0  0
   -3.5158    0.8879   -0.4139 H   0  0  0  0  0  0  0  0  0  0  0  0
   -2.2372    0.4722   -1.5676 H   0  0  0  0  0  0  0  0  0  0  0  0
    1.4400    3.0237    0.5880 H   0  0  0  0  0  0  0  0  0  0  0  0
   -0.0205    3.9468    0.3290 H   0  0  0  0  0  0  0  0  0  0  0  0
   -0.1858    1.1623    2.8533 H   0  0  0  0  0  0  0  0  0  0  0  0
    0.3573    2.1566    4.2081 H   0  0  0  0  0  0  0  0  0  0  0  0
    1.9491    0.9439    2.2398 H   0  0  0  0  0  0  0  0  0  0  0  0
   -1.4242    4.3235    2.2856 H   0  0  0  0  0  0  0  0  0  0  0  0
  1  2  1  0  0  0  0
  1  3  2  0  0  0  0
  1 20  1  0  0  0  0
  2  4  2  0  0  0  0
  2 21  1  0  0  0  0
  3  5  1  0  0  0  0
  3 22  1  0  0  0  0
  4  6  1  0  0  0  0
  4 23  1  0  0  0  0
  5  6  2  0  0  0  0
  5  8  1  0  0  0  0
  6 19  1  0  0  0  0
  7  8  2  0  0  0  0
  7  9  1  0  0  0  0
  7 24  1  0  0  0  0
  8 10  1  0  0  0  0
  9 19  1  0  0  0  0
  9 25  1  0  0  0  0
  9 26  1  0  0  0  0
 10 12  1  0  0  0  0
 10 27  1  0  0  0  0
 10 28  1  0  0  0  0
 11 12  1  0  0  0  0
 11 14  1  0  0  0  0
 11 29  1  0  0  0  0
 11 30  1  0  0  0  0
 12 13  1  0  0  0  0
 12 15  1  0  0  0  0
 13 16  1  0  0  0  0
 13 17  1  0  0  0  0
 13 18  1  0  0  0  0
 14 31  1  0  0  0  0
 15 32  1  0  0  0  0
M  END
$$$$
