
  -OEChem-05262117483D

 28 29  0     0  0  0  0  0  0999 V2000
    2.0949   -1.4009    0.0951 C   0  0  0  0  0  0  0  0  0  0  0  0
    1.0374   -0.9210    0.8726 C   0  0  0  0  0  0  0  0  0  0  0  0
    3.2638   -2.0157    2.0985 C   0  0  0  0  0  0  0  0  0  0  0  0
    3.2281   -1.9580    0.6983 C   0  0  0  0  0  0  0  0  0  0  0  0
    1.0699   -0.9787    2.2713 C   0  0  0  0  0  0  0  0  0  0  0  0
    2.2113   -1.5374    2.8905 C   0  0  0  0  0  0  0  0  0  0  0  0
    1.4359   -2.7859    5.0071 C   0  0  0  0  0  0  0  0  0  0  0  0
    4.8854   -3.8661    0.0101 C   0  0  0  0  0  0  0  0  0  0  0  0
    4.1819   -3.4187   -1.2550 C   0  0  0  0  0  0  0  0  0  0  0  0
    4.3878   -2.4416   -0.1182 C   0  0  0  0  0  0  0  0  0  0  0  0
   -0.0920   -0.4640    3.0888 C   0  0  0  0  0  0  0  0  0  0  0  0
    2.2874   -1.6645    4.3949 C   0  0  0  0  0  0  0  0  0  0  0  0
    1.1359   -2.8207    6.1782 O   0  0  0  0  0  0  0  0  0  0  0  0
    1.0536   -3.7806    4.1627 O   0  0  0  0  0  0  0  0  0  0  0  0
    2.0394   -1.3458   -0.9894 H   0  0  0  0  0  0  0  0  0  0  0  0
    0.1648   -0.4956    0.3820 H   0  0  0  0  0  0  0  0  0  0  0  0
    4.1370   -2.4503    2.5819 H   0  0  0  0  0  0  0  0  0  0  0  0
    4.3406   -4.5294    0.6761 H   0  0  0  0  0  0  0  0  0  0  0  0
    5.9562   -4.0427   -0.0284 H   0  0  0  0  0  0  0  0  0  0  0  0
    4.7730   -3.2906   -2.1569 H   0  0  0  0  0  0  0  0  0  0  0  0
    3.1742   -3.7880   -1.4224 H   0  0  0  0  0  0  0  0  0  0  0  0
    5.1614   -1.6927   -0.2811 H   0  0  0  0  0  0  0  0  0  0  0  0
   -0.5296   -1.2484    3.7162 H   0  0  0  0  0  0  0  0  0  0  0  0
    0.2155    0.3464    3.7595 H   0  0  0  0  0  0  0  0  0  0  0  0
   -0.8831   -0.0779    2.4416 H   0  0  0  0  0  0  0  0  0  0  0  0
    1.9889   -0.7459    4.9051 H   0  0  0  0  0  0  0  0  0  0  0  0
    3.3172   -1.8698    4.7061 H   0  0  0  0  0  0  0  0  0  0  0  0
    1.3558   -3.5642    3.2598 H   0  0  0  0  0  0  0  0  0  0  0  0
  1  2  1  0  0  0  0
  1  4  2  0  0  0  0
  1 15  1  0  0  0  0
  2  5  2  0  0  0  0
  2 16  1  0  0  0  0
  3  4  1  0  0  0  0
  3  6  2  0  0  0  0
  3 17  1  0  0  0  0
  4 10  1  0  0  0  0
  5  6  1  0  0  0  0
  5 11  1  0  0  0  0
  6 12  1  0  0  0  0
  7 12  1  0  0  0  0
  7 13  2  0  0  0  0
  7 14  1  0  0  0  0
  8  9  1  0  0  0  0
  8 10  1  0  0  0  0
  8 18  1  0  0  0  0
  8 19  1  0  0  0  0
  9 10  1  0  0  0  0
  9 20  1  0  0  0  0
  9 21  1  0  0  0  0
 10 22  1  0  0  0  0
 11 23  1  0  0  0  0
 11 24  1  0  0  0  0
 11 25  1  0  0  0  0
 12 26  1  0  0  0  0
 12 27  1  0  0  0  0
 14 28  1  0  0  0  0
M  END
$$$$
