
  -OEChem-05262117483D

 31 32  0     1  0  0  0  0  0999 V2000
    1.7259   -1.8181   -0.5525 C   0  0  0  0  0  0  0  0  0  0  0  0
    0.4620   -1.5212   -0.0331 C   0  0  0  0  0  0  0  0  0  0  0  0
    2.8368   -1.8538    0.2935 C   0  0  0  0  0  0  0  0  0  0  0  0
    0.3145   -1.2411    1.3284 C   0  0  0  0  0  0  0  0  0  0  0  0
    5.2575   -2.1005    4.1095 C   0  0  0  0  0  0  0  0  0  0  0  0
    3.9736   -2.3407    3.6799 C   0  0  0  0  0  0  0  0  0  0  0  0
    5.0289   -0.9559    2.3042 C   0  0  0  0  0  0  0  0  0  0  0  0
    2.6947   -1.5707    1.6560 C   0  0  0  0  0  0  0  0  0  0  0  0
    1.4258   -1.2537    2.1728 C   0  0  0  0  0  0  0  0  0  0  0  0
    4.1448    0.5613    5.9898 C   0  0  0  0  0  0  0  0  0  0  0  0
    1.5941    0.3766    3.8714 C   0  0  0  0  0  0  0  0  0  0  0  0
    1.4603    0.5201    5.3732 C   0  0  0  0  0  0  0  0  0  0  0  0
    5.9025   -1.2280    3.2518 N   0  0  0  0  0  0  0  0  0  0  0  0
    3.8293   -1.6051    2.5111 N   0  0  0  0  0  0  0  0  0  0  0  0
    2.3144   -0.1512    7.8177 O   0  0  0  0  0  0  0  0  0  0  0  0
    1.2663   -0.9805    3.5158 O   0  0  0  0  0  0  0  0  0  0  0  0
    2.6722   -0.4638    6.3733 S   0  0  2  0  0  0  0  0  0  0  0  0
    1.8459   -2.0417   -1.6085 H   0  0  0  0  0  0  0  0  0  0  0  0
   -0.4077   -1.5100   -0.6839 H   0  0  0  0  0  0  0  0  0  0  0  0
    3.8177   -2.1213   -0.0890 H   0  0  0  0  0  0  0  0  0  0  0  0
   -0.6567   -1.0078    1.7555 H   0  0  0  0  0  0  0  0  0  0  0  0
    5.7485   -2.4971    4.9887 H   0  0  0  0  0  0  0  0  0  0  0  0
    3.1679   -2.9408    4.0735 H   0  0  0  0  0  0  0  0  0  0  0  0
    5.1822   -0.2985    1.4577 H   0  0  0  0  0  0  0  0  0  0  0  0
    4.9664    0.1478    6.5777 H   0  0  0  0  0  0  0  0  0  0  0  0
    3.9407    1.5867    6.3102 H   0  0  0  0  0  0  0  0  0  0  0  0
    4.4073    0.5094    4.9318 H   0  0  0  0  0  0  0  0  0  0  0  0
    0.8948    1.0584    3.3690 H   0  0  0  0  0  0  0  0  0  0  0  0
    2.6056    0.6194    3.5254 H   0  0  0  0  0  0  0  0  0  0  0  0
    1.5699    1.5640    5.6836 H   0  0  0  0  0  0  0  0  0  0  0  0
    0.4850    0.1578    5.7092 H   0  0  0  0  0  0  0  0  0  0  0  0
  1  2  1  0  0  0  0
  1  3  2  0  0  0  0
  1 18  1  0  0  0  0
  2  4  2  0  0  0  0
  2 19  1  0  0  0  0
  3  8  1  0  0  0  0
  3 20  1  0  0  0  0
  4  9  1  0  0  0  0
  4 21  1  0  0  0  0
  5  6  2  0  0  0  0
  5 13  1  0  0  0  0
  5 22  1  0  0  0  0
  6 14  1  0  0  0  0
  6 23  1  0  0  0  0
  7 13  2  0  0  0  0
  7 14  1  0  0  0  0
  7 24  1  0  0  0  0
  8  9  2  0  0  0  0
  8 14  1  0  0  0  0
  9 16  1  0  0  0  0
 10 17  1  0  0  0  0
 10 25  1  0  0  0  0
 10 26  1  0  0  0  0
 10 27  1  0  0  0  0
 11 12  1  0  0  0  0
 11 16  1  0  0  0  0
 11 28  1  0  0  0  0
 11 29  1  0  0  0  0
 12 17  1  0  0  0  0
 12 30  1  0  0  0  0
 12 31  1  0  0  0  0
 15 17  2  0  0  0  0
M  END
$$$$
