29
1 1 C11H15N2O
C                    -1.639905337737     2.071457322448    -0.855945492952
C                    -1.203869952027    -0.023579162821    -1.961518359758
C                    -1.958850428182     1.148893488189    -1.869137052410
C                    -0.610106784506     1.868022658122     0.070121679652
C                    -0.169662341903    -0.238292440335    -1.048936061843
C                     0.120305671249     0.680461392091    -0.041106559810
C                     1.487199622283    -1.736380381154    -0.161460365018
C                     1.394673098125    -0.931969361207     1.126851971464
C                    -3.097858303981     1.422095029431    -2.821726338100
C                    -0.271968748845     2.871881346661     1.141800883701
C                     0.306359801138    -1.501128010977     2.043914532358
N                     0.672332039487    -1.388616405652    -1.139732224149
N                     2.338639875093    -2.756103426754    -0.251239115343
O                     1.190364211880     0.440724784814     0.805173373804
H                    -2.223450606623     2.986170077229    -0.782327999853
H                    -1.417439735798    -0.759785442270    -2.733477730139
H                     2.366195799360    -0.961180620583     1.625722790521
H                    -3.003528624353     2.415448137435    -3.270427448053
H                    -3.133079174934     0.688229046780    -3.630425101065
H                    -4.059053662150     1.390190877190    -2.297844873658
H                    -0.286890270869     2.410083450001     2.133785195473
H                     0.733009429959     3.279791953185     0.993706757134
H                    -0.982179774622     3.700617494668     1.135138960668
H                    -0.674109402859    -1.478716842803     1.562040588969
H                     0.265986897905    -0.892830716192     2.950332974123
H                     0.535953647651    -2.532592683948     2.327207768763
H                     0.663646103583    -1.906329097888    -2.015880639358
H                     2.420832605514    -3.339440628451    -1.078480231894
H                     2.953545825932    -2.975192052572     0.524216089652
