
  -OEChem-05262117483D

 31 32  0     1  0  0  0  0  0999 V2000
    1.7240   -0.9183   -0.0763 C   0  0  0  0  0  0  0  0  0  0  0  0
    0.4292   -0.6955    0.3946 C   0  0  0  0  0  0  0  0  0  0  0  0
    2.7479   -1.1761    0.8380 C   0  0  0  0  0  0  0  0  0  0  0  0
    0.1521   -0.7577    1.7637 C   0  0  0  0  0  0  0  0  0  0  0  0
    5.1444   -1.2054    4.6048 C   0  0  0  0  0  0  0  0  0  0  0  0
    4.0028   -0.6182    4.1110 C   0  0  0  0  0  0  0  0  0  0  0  0
    4.4517   -2.5203    3.0549 C   0  0  0  0  0  0  0  0  0  0  0  0
    2.4850   -1.2392    2.2088 C   0  0  0  0  0  0  0  0  0  0  0  0
    1.1697   -1.0522    2.6799 C   0  0  0  0  0  0  0  0  0  0  0  0
    2.3996   -1.4072    6.9285 C   0  0  0  0  0  0  0  0  0  0  0  0
   -0.1383   -0.4902    4.5991 C   0  0  0  0  0  0  0  0  0  0  0  0
   -0.1469   -0.7137    6.0977 C   0  0  0  0  0  0  0  0  0  0  0  0
    5.4130   -2.3925    3.9458 N   0  0  0  0  0  0  0  0  0  0  0  0
    3.5564   -1.4736    3.1116 N   0  0  0  0  0  0  0  0  0  0  0  0
    1.8844    1.0900    5.9376 O   0  0  0  0  0  0  0  0  0  0  0  0
    0.9566   -1.2098    4.0246 O   0  0  0  0  0  0  0  0  0  0  0  0
    1.3252    0.0788    6.9315 S   0  0  2  0  0  0  0  0  0  0  0  0
    1.9429   -0.8674   -1.1386 H   0  0  0  0  0  0  0  0  0  0  0  0
   -0.3755   -0.4725   -0.3006 H   0  0  0  0  0  0  0  0  0  0  0  0
    3.7730   -1.3044    0.5025 H   0  0  0  0  0  0  0  0  0  0  0  0
   -0.8630   -0.5935    2.1065 H   0  0  0  0  0  0  0  0  0  0  0  0
    5.7856   -0.8432    5.3984 H   0  0  0  0  0  0  0  0  0  0  0  0
    3.4490    0.2661    4.3974 H   0  0  0  0  0  0  0  0  0  0  0  0
    4.3290   -3.3355    2.3530 H   0  0  0  0  0  0  0  0  0  0  0  0
    3.3897   -1.0820    7.2518 H   0  0  0  0  0  0  0  0  0  0  0  0
    2.4552   -1.8413    5.9319 H   0  0  0  0  0  0  0  0  0  0  0  0
    1.9874   -2.1165    7.6531 H   0  0  0  0  0  0  0  0  0  0  0  0
   -1.0942   -0.8487    4.1978 H   0  0  0  0  0  0  0  0  0  0  0  0
   -0.0254    0.5757    4.3732 H   0  0  0  0  0  0  0  0  0  0  0  0
   -1.0331   -0.2306    6.5199 H   0  0  0  0  0  0  0  0  0  0  0  0
   -0.1677   -1.7763    6.3530 H   0  0  0  0  0  0  0  0  0  0  0  0
  1  2  1  0  0  0  0
  1  3  2  0  0  0  0
  1 18  1  0  0  0  0
  2  4  2  0  0  0  0
  2 19  1  0  0  0  0
  3  8  1  0  0  0  0
  3 20  1  0  0  0  0
  4  9  1  0  0  0  0
  4 21  1  0  0  0  0
  5  6  2  0  0  0  0
  5 13  1  0  0  0  0
  5 22  1  0  0  0  0
  6 14  1  0  0  0  0
  6 23  1  0  0  0  0
  7 13  2  0  0  0  0
  7 14  1  0  0  0  0
  7 24  1  0  0  0  0
  8  9  2  0  0  0  0
  8 14  1  0  0  0  0
  9 16  1  0  0  0  0
 10 17  1  0  0  0  0
 10 25  1  0  0  0  0
 10 26  1  0  0  0  0
 10 27  1  0  0  0  0
 11 12  1  0  0  0  0
 11 16  1  0  0  0  0
 11 28  1  0  0  0  0
 11 29  1  0  0  0  0
 12 17  1  0  0  0  0
 12 30  1  0  0  0  0
 12 31  1  0  0  0  0
 15 17  2  0  0  0  0
M  END
$$$$
