69
0 1 C29H33NO6
C                    -2.989078795019    -0.461235873420     6.173352975778
C                    -7.005495553909    -1.494482370728     4.429736403190
C                    -3.398082374738     0.212464279660     5.025185920896
C                    -7.148994279119    -0.580178908060     3.382048278796
C                    -3.362791192010     1.546773889942     7.473314756962
C                    -7.186837598866     1.263019898940     4.969062671833
C                    -2.963863892522     0.197832863167     7.409646890820
C                    -6.935568145794    -1.030979163464     5.743242877256
C                    -7.036869661088     0.340536256196     6.004667267460
C                    -3.791292163177     2.235521350469     6.346142384571
C                    -7.227607792474     0.794384016698     3.648466260332
C                    -3.798503345696     1.553181485115     5.106284090591
C                    -1.782061974290    -0.715867178728    10.648090810051
C                    -2.048750836348    -1.962123489774    10.131876276707
C                    -2.550078916241    -0.506891917879     8.610177993945
C                    -1.258455316864    -0.232825029020    11.929432120508
C                    -5.728718386310    -3.778626174346     8.223339012279
C                    -7.010933130212     0.598820911007     7.495874793268
C                    -6.473615380131    -0.730031294702     8.081412546646
C                    -6.798101792072    -1.824274429801     7.028332577443
C                    -1.891778698426    -3.304178254130    10.762109602032
C                    -1.129672295494     1.268377659445    12.098866730998
C                    -3.636909437517     6.116968186170     5.970612126276
C                    -4.229447067661     3.676882145193     6.423968461069
C                    -5.741637644646    -2.939255464151     6.952079093904
C                    -3.157241263495     4.663177669656     5.923180930405
C                    -5.219083488942     2.594718993374     1.902320035465
C                    -6.614959142279     2.831854234276     2.485278822540
C                    -4.349716029887     1.678065946848     2.752661160749
N                    -2.543536857139    -1.804880630083     8.841665755111
O                    -0.942936283726    -1.024646669120    12.814809984242
O                    -6.679508649404    -4.450465486348     8.567310131291
O                    -2.107219753357     0.217230414752     9.664914129065
O                    -4.601143426481    -3.747805565362     8.970083718292
O                    -7.384610453337     1.623016398346     2.552157984709
O                    -4.218593547818     2.290784358475     4.043615726670
H                    -2.666040566476    -1.495624356315     6.110248884453
H                    -6.943072010936    -2.557208272087     4.206591829847
H                    -3.403206932138    -0.313428698487     4.078407561907
H                    -7.194524215357    -0.909694530250     2.347895073380
H                    -3.359271258666     2.056172520269     8.432972246779
H                    -7.270574637725     2.323705689858     5.186077214033
H                    -6.390547676359     1.458656422677     7.767090655237
H                    -8.027571633601     0.806108165346     7.854784526728
H                    -5.388629819325    -0.654888951011     8.193905985318
H                    -6.890911844088    -0.963971030225     9.064138352773
H                    -7.757229781881    -2.299816561486     7.269362033439
H                    -2.866735907928    -3.793969937450    10.849284557059
H                    -1.263843187553    -3.940773072710    10.129882686234
H                    -1.440019965507    -3.209565263607    11.748757278053
H                    -2.105203318304     1.752452530230    11.981661598987
H                    -0.470604416174     1.687401548321    11.331215201786
H                    -0.727886994559     1.480013628600    13.090343699411
H                    -4.519825833455     6.261701275434     5.337093981043
H                    -3.908731207391     6.413807099726     6.990332377820
H                    -2.859027748633     6.803448307561     5.620210361132
H                    -5.139622799916     3.813050808225     5.829221764784
H                    -4.486041493418     3.919357308036     7.461606250791
H                    -5.991141699042    -3.624208036146     6.135625122498
H                    -4.763428138466    -2.502074647909     6.735000304299
H                    -2.254064698909     4.546303236358     6.534271952772
H                    -2.879392773745     4.395692575816     4.898502600612
H                    -5.313323652954     2.149721880474     0.905619040212
H                    -4.723400406944     3.566351181374     1.785152226322
H                    -6.540535961001     3.309378653208     3.465449560006
H                    -7.180439952225     3.496926697989     1.827652099144
H                    -3.353765243873     1.553106791752     2.309127984852
H                    -4.816273192918     0.695626235088     2.848788936913
H                    -3.938754923122    -3.103303103554     8.622534541111
