27
0 1 C9H14O3S
C                     0.565441634957    -0.254027138395    -0.754373012467
C                     1.247439710042     1.990854907130     0.184309326790
C                    -0.672352121762    -0.533479955862     1.379308649484
C                     1.478116946350     0.487947267902     0.241630865896
C                    -0.609986518401    -0.971404054413    -0.086553113595
C                    -3.077300690115    -1.605052393116    -0.332881093999
C                    -1.949812552392     3.733383253243    -0.117117341512
C                    -1.913927606374    -0.766487974361    -0.871576339985
C                    -0.442716957092     3.667667979306     0.043858736398
O                     0.792753140160    -0.270117676378    -1.946507496746
O                     2.119805148500     2.829620751898     0.248960504732
O                    -0.073723466127     2.262294076590     0.070648724279
S                     1.058978686404    -0.176069296771     1.899973208620
H                    -1.281352158590     0.366125376942     1.496357393755
H                    -1.058645966232    -1.313332919816     2.037717094622
H                     2.526653161893     0.297365159125     0.013573342536
H                    -0.338809794380    -2.036476025894    -0.116935077006
H                    -2.836656395752    -2.674215248400    -0.353997577209
H                    -3.977571690807    -1.454193193913    -0.937212348467
H                    -3.326190523231    -1.339618453646     0.700360651298
H                    -2.264007891071     3.251500102170    -1.047647139619
H                    -2.455203829537     3.240884590362     0.719132207410
H                    -2.271863002878     4.779142658999    -0.145111694391
H                    -2.171984556231     0.298802621392    -0.844826511362
H                    -1.720237211206    -1.016440162478    -1.919342856691
H                    -0.104571184860     4.130714141505     0.974899687940
H                     0.083152927762     4.147396675326    -0.785632499863
