34
0 1 C13F3H15O2S
C                    -1.641911332124     1.625500170960    -1.156169510791
C                    -1.461834290580     2.311713962753     0.051057906593
C                    -0.974382475426     0.420877623104    -1.364041204318
C                    -0.586031433381     1.802014574559     1.005321032718
C                    -0.127534353658    -0.144594958136    -0.393525506147
C                     0.089113505778     0.587850998637     0.788262611144
C                     1.573116204487    -2.007666332644     0.264239993972
C                     2.350876515994    -0.882585570222     0.936808644465
C                     0.462277452924    -1.525554995067    -0.699057954591
C                    -0.710411271726    -2.541379264065    -0.746696529720
C                    -1.858690596845    -4.675888368670    -1.337684014602
C                    -0.477720738385    -3.975847292782    -1.270233319878
C                     0.199593012405    -3.973259653264    -2.658118286206
O                    -1.782960813533    -6.074381057318    -1.516016962144
O                     0.295917896497    -4.794607413180    -0.393790158254
F                     1.515067761106    -3.607267867109    -2.552432590639
F                    -0.394031166722    -3.079416917407    -3.490063507696
F                     0.189129803089    -5.165962881333    -3.269834907163
S                     1.252161595335     0.074084518446     2.035627029852
H                    -2.291499462098     2.028786869352    -1.928160631804
H                    -1.975384083286     3.251841400304     0.234149580746
H                    -1.114409517670    -0.106028422479    -2.306080580298
H                    -0.396794291987     2.355694208822     1.921575381258
H                     2.281023176814    -2.630033449316    -0.298565338331
H                     1.139515145073    -2.626928840706     1.055766887658
H                     3.144059019960    -1.283661435020     1.573249398391
H                     2.802985416057    -0.203036553727     0.207544688469
H                     0.897332236220    -1.448172940583    -1.699456062302
H                    -1.103235131226    -2.649545398430     0.269601649221
H                    -1.518598849505    -2.115269702921    -1.345865628748
H                    -2.383871985105    -4.424403498139    -0.405256602892
H                    -2.437546530127    -4.273852724581    -2.172776200046
H                    -1.099102177834    -6.401351924512    -0.906788553598
H                     1.199205815843    -4.446633269657    -0.332641593685
