
  -OEChem-05262117483D

 34 35  0     1  0  0  0  0  0999 V2000
   -2.0150    1.4955    1.4437 C   0  0  0  0  0  0  0  0  0  0  0  0
   -1.6069    2.4203    0.4754 C   0  0  0  0  0  0  0  0  0  0  0  0
   -1.3947    0.2464    1.4960 C   0  0  0  0  0  0  0  0  0  0  0  0
   -0.5987    2.0847   -0.4267 C   0  0  0  0  0  0  0  0  0  0  0  0
   -0.3630   -0.1030    0.6138 C   0  0  0  0  0  0  0  0  0  0  0  0
    0.0328    0.8301   -0.3619 C   0  0  0  0  0  0  0  0  0  0  0  0
    0.5591   -2.0354   -0.6752 C   0  0  0  0  0  0  0  0  0  0  0  0
    1.6127   -1.2738   -1.4711 C   0  0  0  0  0  0  0  0  0  0  0  0
    0.3079   -1.4578    0.7320 C   0  0  1  0  0  0  0  0  0  0  0  0
    1.5739   -1.3435    1.6227 C   0  0  0  0  0  0  0  0  0  0  0  0
    2.0502   -3.8850    1.6927 C   0  0  0  0  0  0  0  0  0  0  0  0
    1.8560   -2.5804    2.4936 C   0  0  1  0  0  0  0  0  0  0  0  0
    3.1067   -2.3156    3.3617 C   0  0  0  0  0  0  0  0  0  0  0  0
    2.9459   -3.7595    0.5953 O   0  0  0  0  0  0  0  0  0  0  0  0
    0.7767   -2.8644    3.3809 O   0  0  0  0  0  0  0  0  0  0  0  0
    2.9298   -1.2394    4.1693 F   0  0  0  0  0  0  0  0  0  0  0  0
    4.2087   -2.0694    2.5984 F   0  0  0  0  0  0  0  0  0  0  0  0
    3.4104   -3.3616    4.1590 F   0  0  0  0  0  0  0  0  0  0  0  0
    1.3326    0.5474   -1.5442 S   0  0  0  0  0  0  0  0  0  0  0  0
   -2.8110    1.7422    2.1409 H   0  0  0  0  0  0  0  0  0  0  0  0
   -2.0812    3.3962    0.4124 H   0  0  0  0  0  0  0  0  0  0  0  0
   -1.7145   -0.4841    2.2375 H   0  0  0  0  0  0  0  0  0  0  0  0
   -0.2981    2.7958   -1.1924 H   0  0  0  0  0  0  0  0  0  0  0  0
   -0.3927   -2.0226   -1.2170 H   0  0  0  0  0  0  0  0  0  0  0  0
    0.8908   -3.0747   -0.6227 H   0  0  0  0  0  0  0  0  0  0  0  0
    2.6067   -1.4474   -1.0554 H   0  0  0  0  0  0  0  0  0  0  0  0
    1.6219   -1.6198   -2.5076 H   0  0  0  0  0  0  0  0  0  0  0  0
   -0.3975   -2.1194    1.2446 H   0  0  0  0  0  0  0  0  0  0  0  0
    2.4536   -1.1111    1.0210 H   0  0  0  0  0  0  0  0  0  0  0  0
    1.4420   -0.4942    2.3011 H   0  0  0  0  0  0  0  0  0  0  0  0
    2.3481   -4.6885    2.3750 H   0  0  0  0  0  0  0  0  0  0  0  0
    1.0784   -4.1534    1.2779 H   0  0  0  0  0  0  0  0  0  0  0  0
    3.8515   -3.6900    0.9351 H   0  0  0  0  0  0  0  0  0  0  0  0
    0.5681   -2.0573    3.8807 H   0  0  0  0  0  0  0  0  0  0  0  0
  1  2  1  0  0  0  0
  1  3  2  0  0  0  0
  1 20  1  0  0  0  0
  2  4  2  0  0  0  0
  2 21  1  0  0  0  0
  3  5  1  0  0  0  0
  3 22  1  0  0  0  0
  4  6  1  0  0  0  0
  4 23  1  0  0  0  0
  5  6  2  0  0  0  0
  5  9  1  0  0  0  0
  6 19  1  0  0  0  0
  7  8  1  0  0  0  0
  7  9  1  0  0  0  0
  7 24  1  0  0  0  0
  7 25  1  0  0  0  0
  8 19  1  0  0  0  0
  8 26  1  0  0  0  0
  8 27  1  0  0  0  0
  9 10  1  0  0  0  0
  9 28  1  0  0  0  0
 10 12  1  0  0  0  0
 10 29  1  0  0  0  0
 10 30  1  0  0  0  0
 11 12  1  0  0  0  0
 11 14  1  0  0  0  0
 11 31  1  0  0  0  0
 11 32  1  0  0  0  0
 12 13  1  0  0  0  0
 12 15  1  0  0  0  0
 13 16  1  0  0  0  0
 13 17  1  0  0  0  0
 13 18  1  0  0  0  0
 14 33  1  0  0  0  0
 15 34  1  0  0  0  0
M  END
$$$$
