
  -OEChem-05262117483D

 27 27  0     1  0  0  0  0  0999 V2000
    0.4700    1.0266   -0.2472 C   0  0  0  0  0  0  0  0  0  0  0  0
    0.5084   -0.3293   -0.1350 C   0  0  0  0  0  0  0  0  0  0  0  0
    1.5669    1.9080   -0.6252 C   0  0  0  0  0  0  0  0  0  0  0  0
   -1.8663    0.0621    0.1478 C   0  0  0  0  0  0  0  0  0  0  0  0
   -0.7536   -0.9736    0.3882 C   0  0  1  0  0  0  0  0  0  0  0  0
   -2.2955   -3.0126    0.3691 C   0  0  0  0  0  0  0  0  0  0  0  0
    4.9832    1.0183   -1.6724 C   0  0  0  0  0  0  0  0  0  0  0  0
   -1.0515   -2.3476   -0.2298 C   0  0  0  0  0  0  0  0  0  0  0  0
    3.8623    1.9858   -1.3402 C   0  0  0  0  0  0  0  0  0  0  0  0
    1.5317    3.1244   -0.6482 O   0  0  0  0  0  0  0  0  0  0  0  0
    1.5534   -1.1435   -0.3788 O   0  0  0  0  0  0  0  0  0  0  0  0
    2.7030    1.1949   -0.9615 O   0  0  0  0  0  0  0  0  0  0  0  0
   -1.0996    1.7390    0.2304 S   0  0  0  0  0  0  0  0  0  0  0  0
   -2.2959   -0.0732   -0.8506 H   0  0  0  0  0  0  0  0  0  0  0  0
   -2.6646    0.0029    0.8884 H   0  0  0  0  0  0  0  0  0  0  0  0
   -0.6085   -1.1011    1.4732 H   0  0  0  0  0  0  0  0  0  0  0  0
   -2.1959   -3.1301    1.4544 H   0  0  0  0  0  0  0  0  0  0  0  0
   -2.4497   -4.0074   -0.0609 H   0  0  0  0  0  0  0  0  0  0  0  0
   -3.2016   -2.4277    0.1790 H   0  0  0  0  0  0  0  0  0  0  0  0
    5.2391    0.3990   -0.8070 H   0  0  0  0  0  0  0  0  0  0  0  0
    4.7038    0.3625   -2.5028 H   0  0  0  0  0  0  0  0  0  0  0  0
    5.8762    1.5790   -1.9658 H   0  0  0  0  0  0  0  0  0  0  0  0
   -1.1741   -2.2301   -1.3137 H   0  0  0  0  0  0  0  0  0  0  0  0
   -0.1789   -2.9917   -0.0843 H   0  0  0  0  0  0  0  0  0  0  0  0
    3.5892    2.6099   -2.1946 H   0  0  0  0  0  0  0  0  0  0  0  0
    4.1184    2.6443   -0.5064 H   0  0  0  0  0  0  0  0  0  0  0  0
    2.3046   -0.5783   -0.6630 H   0  0  0  0  0  0  0  0  0  0  0  0
  1  2  2  0  0  0  0
  1  3  1  0  0  0  0
  1 13  1  0  0  0  0
  2  5  1  0  0  0  0
  2 11  1  0  0  0  0
  3 10  2  0  0  0  0
  3 12  1  0  0  0  0
  4  5  1  0  0  0  0
  4 13  1  0  0  0  0
  4 14  1  0  0  0  0
  4 15  1  0  0  0  0
  5  8  1  0  0  0  0
  5 16  1  0  0  0  0
  6  8  1  0  0  0  0
  6 17  1  0  0  0  0
  6 18  1  0  0  0  0
  6 19  1  0  0  0  0
  7  9  1  0  0  0  0
  7 20  1  0  0  0  0
  7 21  1  0  0  0  0
  7 22  1  0  0  0  0
  8 23  1  0  0  0  0
  8 24  1  0  0  0  0
  9 12  1  0  0  0  0
  9 25  1  0  0  0  0
  9 26  1  0  0  0  0
 11 27  1  0  0  0  0
M  END
$$$$
