
  -OEChem-05262117483D

 48 48  0     1  0  0  0  0  0999 V2000
    1.8846   -0.2597   -0.1768 C   0  0  0  0  0  0  0  0  0  0  0  0
   -0.1823   -1.6236   -2.3508 C   0  0  0  0  0  0  0  0  0  0  0  0
   -0.9405    0.5396    1.3118 C   0  0  0  0  0  0  0  0  0  0  0  0
    0.0401    1.5657   -0.4906 C   0  0  0  0  0  0  0  0  0  0  0  0
   -0.5277   -0.6133    0.3996 C   0  0  1  0  0  0  0  0  0  0  0  0
    0.4403    0.0562   -0.6294 C   0  0  2  0  0  0  0  0  0  0  0  0
    4.6366    0.7741    0.2818 C   0  0  0  0  0  0  0  0  0  0  0  0
    3.6152    1.5991    2.4311 C   0  0  0  0  0  0  0  0  0  0  0  0
    3.8505   -0.8806    2.0550 C   0  0  0  0  0  0  0  0  0  0  0  0
   -1.4116   -3.8649   -4.1735 C   0  0  0  0  0  0  0  0  0  0  0  0
   -0.1418   -2.4715   -5.8616 C   0  0  0  0  0  0  0  0  0  0  0  0
    1.1112   -3.5924   -3.9907 C   0  0  0  0  0  0  0  0  0  0  0  0
    3.6179    0.4788    1.3875 C   0  0  0  0  0  0  0  0  0  0  0  0
   -0.2121   -2.9389   -4.4052 C   0  0  0  0  0  0  0  0  0  0  0  0
    0.2740   -0.3749   -2.0154 N   0  0  0  0  0  0  0  0  0  0  0  0
    0.2482    1.3792   -3.9869 O   0  5  0  0  0  0  0  0  0  0  0  0
    2.5486   -1.1590   -0.6377 O   0  0  0  0  0  0  0  0  0  0  0  0
   -0.4219   -2.5419   -1.5706 O   0  0  0  0  0  0  0  0  0  0  0  0
    2.0820    1.4113   -2.3041 O   0  0  0  0  0  0  0  0  0  0  0  0
    2.0209   -0.3836   -4.0264 O   0  0  0  0  0  0  0  0  0  0  0  0
   -1.0675    1.6428    0.4365 O   0  0  0  0  0  0  0  0  0  0  0  0
    2.2573    0.5481    0.8426 O   0  0  0  0  0  0  0  0  0  0  0  0
   -0.4114   -1.6827   -3.6862 O   0  0  0  0  0  0  0  0  0  0  0  0
    0.0733   -1.6210    1.1601 F   0  0  0  0  0  0  0  0  0  0  0  0
    1.2643    0.6106   -3.2487 S   0  0  0  0  0  0  0  0  0  0  0  0
   -1.9038    0.3684    1.8012 H   0  0  0  0  0  0  0  0  0  0  0  0
   -0.1642    0.6995    2.0753 H   0  0  0  0  0  0  0  0  0  0  0  0
    0.8778    2.1562   -0.1231 H   0  0  0  0  0  0  0  0  0  0  0  0
   -0.3058    1.9687   -1.4392 H   0  0  0  0  0  0  0  0  0  0  0  0
   -1.3801   -1.0531   -0.1118 H   0  0  0  0  0  0  0  0  0  0  0  0
    4.6657   -0.0284   -0.4549 H   0  0  0  0  0  0  0  0  0  0  0  0
    4.3710    1.6988   -0.2381 H   0  0  0  0  0  0  0  0  0  0  0  0
    5.6315    0.8894    0.7279 H   0  0  0  0  0  0  0  0  0  0  0  0
    2.8488    1.4142    3.1907 H   0  0  0  0  0  0  0  0  0  0  0  0
    3.4044    2.5616    1.9555 H   0  0  0  0  0  0  0  0  0  0  0  0
    4.5905    1.6582    2.9255 H   0  0  0  0  0  0  0  0  0  0  0  0
    3.0526   -1.0891    2.7751 H   0  0  0  0  0  0  0  0  0  0  0  0
    3.8684   -1.6812    1.3154 H   0  0  0  0  0  0  0  0  0  0  0  0
    4.8070   -0.8659    2.5904 H   0  0  0  0  0  0  0  0  0  0  0  0
   -1.4641   -4.1668   -3.1260 H   0  0  0  0  0  0  0  0  0  0  0  0
   -2.3414   -3.3496   -4.4379 H   0  0  0  0  0  0  0  0  0  0  0  0
   -1.3208   -4.7588   -4.8029 H   0  0  0  0  0  0  0  0  0  0  0  0
    0.6799   -1.7601   -5.9743 H   0  0  0  0  0  0  0  0  0  0  0  0
   -1.0727   -1.9696   -6.1446 H   0  0  0  0  0  0  0  0  0  0  0  0
    0.0153   -3.3268   -6.5287 H   0  0  0  0  0  0  0  0  0  0  0  0
    1.9172   -2.8574   -4.0577 H   0  0  0  0  0  0  0  0  0  0  0  0
    1.0645   -3.9714   -2.9680 H   0  0  0  0  0  0  0  0  0  0  0  0
    1.3277   -4.4289   -4.6657 H   0  0  0  0  0  0  0  0  0  0  0  0
  1  6  1  0  0  0  0
  1 17  2  0  0  0  0
  1 22  1  0  0  0  0
  2 15  1  0  0  0  0
  2 18  2  0  0  0  0
  2 23  1  0  0  0  0
  3  5  1  0  0  0  0
  3 21  1  0  0  0  0
  3 26  1  0  0  0  0
  3 27  1  0  0  0  0
  4  6  1  0  0  0  0
  4 21  1  0  0  0  0
  4 28  1  0  0  0  0
  4 29  1  0  0  0  0
  5  6  1  0  0  0  0
  5 24  1  0  0  0  0
  5 30  1  0  0  0  0
  6 15  1  0  0  0  0
  7 13  1  0  0  0  0
  7 31  1  0  0  0  0
  7 32  1  0  0  0  0
  7 33  1  0  0  0  0
  8 13  1  0  0  0  0
  8 34  1  0  0  0  0
  8 35  1  0  0  0  0
  8 36  1  0  0  0  0
  9 13  1  0  0  0  0
  9 37  1  0  0  0  0
  9 38  1  0  0  0  0
  9 39  1  0  0  0  0
 10 14  1  0  0  0  0
 10 40  1  0  0  0  0
 10 41  1  0  0  0  0
 10 42  1  0  0  0  0
 11 14  1  0  0  0  0
 11 43  1  0  0  0  0
 11 44  1  0  0  0  0
 11 45  1  0  0  0  0
 12 14  1  0  0  0  0
 12 46  1  0  0  0  0
 12 47  1  0  0  0  0
 12 48  1  0  0  0  0
 13 22  1  0  0  0  0
 14 23  1  0  0  0  0
 15 25  1  0  0  0  0
 16 25  1  0  0  0  0
 19 25  2  0  0  0  0
 20 25  2  0  0  0  0
M  CHG  1  16  -1
M  END
$$$$
