
  -OEChem-05262117483D

 49 49  0     1  0  0  0  0  0999 V2000
    2.0924   -0.2740    0.2360 C   0  0  0  0  0  0  0  0  0  0  0  0
    0.2610   -1.5032   -2.3699 C   0  0  0  0  0  0  0  0  0  0  0  0
   -0.7326   -0.6394    1.8587 C   0  0  0  0  0  0  0  0  0  0  0  0
   -0.1590    1.0410    0.4004 C   0  0  0  0  0  0  0  0  0  0  0  0
   -0.1448   -1.3619    0.6487 C   0  0  1  0  0  0  0  0  0  0  0  0
    0.5932   -0.2310   -0.1378 C   0  0  2  0  0  0  0  0  0  0  0  0
    4.5290    1.0419    1.4491 C   0  0  0  0  0  0  0  0  0  0  0  0
    3.2953    0.4970    3.5800 C   0  0  0  0  0  0  0  0  0  0  0  0
    4.1417   -1.3836    2.1294 C   0  0  0  0  0  0  0  0  0  0  0  0
    1.2897   -4.1222   -3.4383 C   0  0  0  0  0  0  0  0  0  0  0  0
    0.6232   -4.8891   -1.1303 C   0  0  0  0  0  0  0  0  0  0  0  0
   -1.1630   -4.1329   -2.7441 C   0  0  0  0  0  0  0  0  0  0  0  0
    3.6033    0.0479    2.1522 C   0  0  0  0  0  0  0  0  0  0  0  0
    0.2881   -3.9596   -2.2954 C   0  0  0  0  0  0  0  0  0  0  0  0
    0.4599   -0.3398   -1.6080 N   0  0  0  0  0  0  0  0  0  0  0  0
    2.9503   -0.6143   -0.5487 O   0  0  0  0  0  0  0  0  0  0  0  0
   -0.0759   -1.4218   -3.5486 O   0  0  0  0  0  0  0  0  0  0  0  0
    2.1564    0.4694   -3.4364 O   0  0  0  0  0  0  0  0  0  0  0  0
    1.3157    2.0729   -1.6665 O   0  0  0  0  0  0  0  0  0  0  0  0
   -1.1666    0.5947    1.3179 O   0  0  0  0  0  0  0  0  0  0  0  0
   -0.1962    1.3259   -3.4635 O   0  0  0  0  0  0  0  0  0  0  0  0
    2.2610    0.0834    1.5119 O   0  0  0  0  0  0  0  0  0  0  0  0
    0.4672   -2.6111   -1.6797 O   0  0  0  0  0  0  0  0  0  0  0  0
    0.6963   -2.3958    1.0481 F   0  0  0  0  0  0  0  0  0  0  0  0
    1.1052    0.9651   -2.5755 S   0  0  0  0  0  0  0  0  0  0  0  0
   -1.5973   -1.1590    2.2767 H   0  0  0  0  0  0  0  0  0  0  0  0
    0.0361   -0.5137    2.6312 H   0  0  0  0  0  0  0  0  0  0  0  0
    0.5428    1.7125    0.8977 H   0  0  0  0  0  0  0  0  0  0  0  0
   -0.6662    1.5762   -0.3976 H   0  0  0  0  0  0  0  0  0  0  0  0
   -0.9358   -1.7904    0.0350 H   0  0  0  0  0  0  0  0  0  0  0  0
    4.7567    0.7260    0.4308 H   0  0  0  0  0  0  0  0  0  0  0  0
    4.0699    2.0346    1.4168 H   0  0  0  0  0  0  0  0  0  0  0  0
    5.4658    1.1169    2.0105 H   0  0  0  0  0  0  0  0  0  0  0  0
    2.5977   -0.1947    4.0615 H   0  0  0  0  0  0  0  0  0  0  0  0
    2.8523    1.4972    3.5835 H   0  0  0  0  0  0  0  0  0  0  0  0
    4.2170    0.5241    4.1683 H   0  0  0  0  0  0  0  0  0  0  0  0
    3.4076   -2.0735    2.5559 H   0  0  0  0  0  0  0  0  0  0  0  0
    4.3806   -1.7049    1.1153 H   0  0  0  0  0  0  0  0  0  0  0  0
    5.0523   -1.4320    2.7350 H   0  0  0  0  0  0  0  0  0  0  0  0
    1.0573   -3.4612   -4.2735 H   0  0  0  0  0  0  0  0  0  0  0  0
    2.3030   -3.9071   -3.0874 H   0  0  0  0  0  0  0  0  0  0  0  0
    1.2605   -5.1581   -3.7911 H   0  0  0  0  0  0  0  0  0  0  0  0
   -0.0658   -4.7343   -0.2960 H   0  0  0  0  0  0  0  0  0  0  0  0
    1.6389   -4.7045   -0.7722 H   0  0  0  0  0  0  0  0  0  0  0  0
    0.5481   -5.9293   -1.4599 H   0  0  0  0  0  0  0  0  0  0  0  0
   -1.8488   -3.9343   -1.9141 H   0  0  0  0  0  0  0  0  0  0  0  0
   -1.4087   -3.4734   -3.5769 H   0  0  0  0  0  0  0  0  0  0  0  0
   -1.3142   -5.1685   -3.0641 H   0  0  0  0  0  0  0  0  0  0  0  0
   -0.4176    0.4951   -3.9546 H   0  0  0  0  0  0  0  0  0  0  0  0
  1  6  1  0  0  0  0
  1 16  2  0  0  0  0
  1 22  1  0  0  0  0
  2 15  1  0  0  0  0
  2 17  2  0  0  0  0
  2 23  1  0  0  0  0
  3  5  1  0  0  0  0
  3 20  1  0  0  0  0
  3 26  1  0  0  0  0
  3 27  1  0  0  0  0
  4  6  1  0  0  0  0
  4 20  1  0  0  0  0
  4 28  1  0  0  0  0
  4 29  1  0  0  0  0
  5  6  1  0  0  0  0
  5 24  1  0  0  0  0
  5 30  1  0  0  0  0
  6 15  1  0  0  0  0
  7 13  1  0  0  0  0
  7 31  1  0  0  0  0
  7 32  1  0  0  0  0
  7 33  1  0  0  0  0
  8 13  1  0  0  0  0
  8 34  1  0  0  0  0
  8 35  1  0  0  0  0
  8 36  1  0  0  0  0
  9 13  1  0  0  0  0
  9 37  1  0  0  0  0
  9 38  1  0  0  0  0
  9 39  1  0  0  0  0
 10 14  1  0  0  0  0
 10 40  1  0  0  0  0
 10 41  1  0  0  0  0
 10 42  1  0  0  0  0
 11 14  1  0  0  0  0
 11 43  1  0  0  0  0
 11 44  1  0  0  0  0
 11 45  1  0  0  0  0
 12 14  1  0  0  0  0
 12 46  1  0  0  0  0
 12 47  1  0  0  0  0
 12 48  1  0  0  0  0
 13 22  1  0  0  0  0
 14 23  1  0  0  0  0
 15 25  1  0  0  0  0
 18 25  2  0  0  0  0
 19 25  2  0  0  0  0
 21 25  1  0  0  0  0
 21 49  1  0  0  0  0
M  END
$$$$
