
  -OEChem-05262117483D

 42 44  0     0  0  0  0  0  0999 V2000
  -10.2835    0.8759   -0.9410 C   0  0  0  0  0  0  0  0  0  0  0  0
   -9.2530    1.5071   -0.2362 C   0  0  0  0  0  0  0  0  0  0  0  0
   -9.9652   -0.0492   -1.9409 C   0  0  0  0  0  0  0  0  0  0  0  0
   -7.9190    1.2158   -0.5291 C   0  0  0  0  0  0  0  0  0  0  0  0
   -8.6306   -0.3398   -2.2320 C   0  0  0  0  0  0  0  0  0  0  0  0
   -5.7408   -0.2356   -3.1612 C   0  0  0  0  0  0  0  0  0  0  0  0
   -5.2007   -0.1076   -0.8269 C   0  0  0  0  0  0  0  0  0  0  0  0
   -4.4066   -0.5271   -3.4535 C   0  0  0  0  0  0  0  0  0  0  0  0
   -3.8717   -0.4019   -1.1245 C   0  0  0  0  0  0  0  0  0  0  0  0
   -7.5850    0.2877   -1.5316 C   0  0  0  0  0  0  0  0  0  0  0  0
   -6.1684   -0.0204   -1.8424 C   0  0  0  0  0  0  0  0  0  0  0  0
   -3.4389   -0.6230   -2.4441 C   0  0  0  0  0  0  0  0  0  0  0  0
    0.9293    0.7860   -3.6813 C   0  0  0  0  0  0  0  0  0  0  0  0
   -2.1363   -2.9212   -4.1224 C   0  0  0  0  0  0  0  0  0  0  0  0
   -2.0633   -3.3448   -2.6259 C   0  0  0  0  0  0  0  0  0  0  0  0
   -1.6933   -1.4411   -4.1494 C   0  0  0  0  0  0  0  0  0  0  0  0
   -1.4775   -2.1237   -1.8890 C   0  0  0  0  0  0  0  0  0  0  0  0
   -1.9590   -0.9105   -2.7246 C   0  0  0  0  0  0  0  0  0  0  0  0
   -1.1826    0.3981   -2.4280 C   0  0  0  0  0  0  0  0  0  0  0  0
    0.2642    0.3058   -2.5909 N   0  0  0  0  0  0  0  0  0  0  0  0
    0.4042    1.2899   -4.6660 O   0  0  0  0  0  0  0  0  0  0  0  0
  -11.3220    1.1025   -0.7140 H   0  0  0  0  0  0  0  0  0  0  0  0
   -9.4883    2.2352    0.5361 H   0  0  0  0  0  0  0  0  0  0  0  0
  -10.7578   -0.5525   -2.4889 H   0  0  0  0  0  0  0  0  0  0  0  0
   -7.1273    1.7340    0.0055 H   0  0  0  0  0  0  0  0  0  0  0  0
   -8.3965   -1.0806   -2.9918 H   0  0  0  0  0  0  0  0  0  0  0  0
   -6.4538   -0.1470   -3.9767 H   0  0  0  0  0  0  0  0  0  0  0  0
   -5.4970    0.0278    0.2099 H   0  0  0  0  0  0  0  0  0  0  0  0
   -4.1290   -0.6722   -4.4916 H   0  0  0  0  0  0  0  0  0  0  0  0
   -3.1629   -0.4717   -0.3033 H   0  0  0  0  0  0  0  0  0  0  0  0
    2.0261    0.6666   -3.5854 H   0  0  0  0  0  0  0  0  0  0  0  0
   -1.4918   -3.5371   -4.7564 H   0  0  0  0  0  0  0  0  0  0  0  0
   -3.1563   -3.0350   -4.5004 H   0  0  0  0  0  0  0  0  0  0  0  0
   -3.0650   -3.5622   -2.2434 H   0  0  0  0  0  0  0  0  0  0  0  0
   -1.4575   -4.2426   -2.4720 H   0  0  0  0  0  0  0  0  0  0  0  0
   -0.6171   -1.3825   -4.3318 H   0  0  0  0  0  0  0  0  0  0  0  0
   -2.1626   -0.8487   -4.9371 H   0  0  0  0  0  0  0  0  0  0  0  0
   -1.7716   -2.0820   -0.8369 H   0  0  0  0  0  0  0  0  0  0  0  0
   -0.3819   -2.1616   -1.9247 H   0  0  0  0  0  0  0  0  0  0  0  0
   -1.3916    0.7282   -1.4057 H   0  0  0  0  0  0  0  0  0  0  0  0
   -1.5307    1.1813   -3.1046 H   0  0  0  0  0  0  0  0  0  0  0  0
    0.8204   -0.0679   -1.8334 H   0  0  0  0  0  0  0  0  0  0  0  0
  1  2  1  0  0  0  0
  1  3  2  0  0  0  0
  1 22  1  0  0  0  0
  2  4  2  0  0  0  0
  2 23  1  0  0  0  0
  3  5  1  0  0  0  0
  3 24  1  0  0  0  0
  4 10  1  0  0  0  0
  4 25  1  0  0  0  0
  5 10  2  0  0  0  0
  5 26  1  0  0  0  0
  6  8  2  0  0  0  0
  6 11  1  0  0  0  0
  6 27  1  0  0  0  0
  7  9  1  0  0  0  0
  7 11  2  0  0  0  0
  7 28  1  0  0  0  0
  8 12  1  0  0  0  0
  8 29  1  0  0  0  0
  9 12  2  0  0  0  0
  9 30  1  0  0  0  0
 10 11  1  0  0  0  0
 12 18  1  0  0  0  0
 13 20  1  0  0  0  0
 13 21  2  0  0  0  0
 13 31  1  0  0  0  0
 14 15  1  0  0  0  0
 14 16  1  0  0  0  0
 14 32  1  0  0  0  0
 14 33  1  0  0  0  0
 15 17  1  0  0  0  0
 15 34  1  0  0  0  0
 15 35  1  0  0  0  0
 16 18  1  0  0  0  0
 16 36  1  0  0  0  0
 16 37  1  0  0  0  0
 17 18  1  0  0  0  0
 17 38  1  0  0  0  0
 17 39  1  0  0  0  0
 18 19  1  0  0  0  0
 19 20  1  0  0  0  0
 19 40  1  0  0  0  0
 19 41  1  0  0  0  0
 20 42  1  0  0  0  0
M  END
$$$$
