42
0 1 C19H21NO
C                     7.247382657993     5.151540759718    -7.867314278887
C                     6.181213591028     5.740329507998    -7.179088137289
C                     7.594952864677     3.825131685814    -7.589862158743
C                     5.471290231274     5.010131707687    -6.223512270674
C                     6.883047598682     3.096106251155    -6.634942990462
C                     5.700196353792     2.000894875221    -4.061707020185
C                     3.663371404321     3.044364541770    -4.778966538240
C                     4.988675820797     1.271121898375    -3.104121613696
C                     2.960216850812     2.316805705874    -3.824018826140
C                     5.809742582323     3.675890139010    -5.935014052517
C                     5.055813867041     2.901868533289    -4.919998641468
C                     3.600954894113     1.408871891082    -2.960055599932
C                     3.126248412620    -0.940605819041     1.169962123196
C                     0.275999544576     0.697044197175    -2.080785806487
C                     0.686260973233     1.191264680989    -0.685365716519
C                     1.526542439742    -0.040199089686    -2.597474207439
C                     2.145545243503     1.634326222405    -0.876834334710
C                     2.770635543143     0.647170536262    -1.924871044008
C                     3.643226506345    -0.406667585132    -1.205474972966
N                     2.943481859654    -1.153976801518    -0.164314836852
O                     3.849776431618    -0.082843094505     1.661552601565
H                     7.800773006950     5.719469834488    -8.610636774711
H                     5.908489685136     6.773529580589    -7.379168722992
H                     8.415753502983     3.354201508149    -8.125066830137
H                     4.664098268666     5.488058184880    -5.674868625422
H                     7.144536500880     2.057903284296    -6.448554071320
H                     6.779358345854     1.884990598379    -4.118025345135
H                     3.122108616967     3.713116263501    -5.443141157562
H                     5.550170412900     0.600141747908    -2.463641237363
H                     1.884511978759     2.455620583049    -3.755771793799
H                     2.533691742680    -1.643510643241     1.786823812462
H                    -0.614406698600     0.059802136658    -2.071595681121
H                     0.049429961697     1.555789476789    -2.724018814500
H                     0.048152887751     1.999404997952    -0.313795397127
H                     0.628221642283     0.369725903975     0.036719405561
H                     1.474093622601    -1.094211522053    -2.301439553283
H                     1.600712901859    -0.034437709848    -3.687217415334
H                     2.167189951405     2.650273826736    -1.280752293888
H                     2.717884930948     1.645762022392     0.053777750453
H                     4.483245638543     0.076602211320    -0.705133152391
H                     4.042910672121    -1.122206277106    -1.932999078962
H                     2.320740455942    -1.904860430041    -0.430478421736
