28   
torsion grid (-165,)
C        3.1131458685   -0.4701605445    1.3676880327
C        1.6051815982   -2.1829808054    0.5506950172
C        2.0471923531    0.1932913019    1.9797247976
C        0.5332073010   -1.5332633943    1.1547437271
C        2.9105651191   -1.6601373009    0.6480147717
C        0.7746530484   -0.3535393612    1.8601702436
C        5.1105630085   -6.7916002312   -4.0249387956
C        3.8908693411   -6.4435452584   -3.3875050782
C        4.9871721606   -4.9196185505   -2.1712059632
C        4.0536916597   -2.3209529921    0.0167801167
C        5.1926169482   -7.8566459597   -5.0793512507
N        6.2160800361   -6.1411470883   -3.6704191488
N        3.8135089816   -5.5118177974   -2.4589547434
N        6.1755460173   -5.1882185219   -2.7376375156
N        3.9160661712   -3.4069703261   -0.6611458115
N        5.0380683809   -3.9512845544   -1.1921197553
O        2.7632836063   -7.0910513341   -3.7449795745
F       -0.2705108641    0.2799760636    2.4498242855
H        4.1150010324   -0.0553130576    1.4518276026
H        1.4491351962   -3.1026725547   -0.0039382385
H        2.1906146282    1.1128977874    2.5383621237
H       -0.4788237676   -1.9214245409    1.0905184132
H        5.0371823576   -1.8493962462    0.1526889225
H        4.5498913961   -7.6164256648   -5.9330620259
H        6.2256081893   -7.9439753683   -5.4208140414
H        4.8592118943   -8.8240812268   -4.6888492029
H        5.9403659060   -3.4805927090   -1.1101665463
H        2.0426788006   -6.7158549294   -3.2026038400
28   
torsion grid (-150,)
C        3.1061101876   -0.4277929516    1.2103065118
C        1.6213935165   -2.2704435418    0.6847638149
C        2.0420512114    0.2825981403    1.7708419631
C        0.5519304023   -1.5743063148    1.2395614662
C        2.9127993148   -1.7065094443    0.6609775032
C        0.7825324223   -0.3060173135    1.7741506198
C        5.1054438095   -6.7345502443   -4.0369854898
C        3.8908399356   -6.4485323427   -3.3598346912
C        4.9940690858   -5.0312471275   -2.0245942755
C        4.0509974235   -2.4143435747    0.0715135277
C        5.1810979620   -7.7034285064   -5.1808211258
N        6.2109446028   -6.1104772535   -3.6396856655
N        3.8204965568   -5.6020168400   -2.3525248098
N        6.1751367852   -5.2406647278   -2.6273591456
N        3.9215914677   -3.5771883376   -0.4637482787
N        5.0533464113   -4.1627189011   -0.9498462553
O        2.7619640762   -7.0663612367   -3.7624708986
F       -0.2591063799    0.3733580528    2.3166283182
H        4.0973923149    0.0196138419    1.2002508254
H        1.4743008244   -3.2594423952    0.2628838624
H        2.1773083752    1.2710473831    2.1985020315
H       -0.4493472141   -1.9934042753    1.2671916006
H        5.0265377761   -1.9094987770    0.1183931613
H        4.5273734541   -7.3936555234   -6.0031835715
H        6.2105544349   -7.7546901959   -5.5397593521
H        4.8567395754   -8.7029401368   -4.8721298882
H        5.9401120908   -3.6566485317   -0.9021167489
H        2.0452743327   -6.7431554291   -3.1826826281
28   
torsion grid (-135,)
C        3.0981036605   -0.4290214743    1.0137341992
C        1.6469232302   -2.3626398934    0.8246506727
C        2.0427788780    0.3270501957    1.5289731647
C        0.5863203534   -1.6215421209    1.3363876051
C        2.9163303890   -1.7750502810    0.6547148779
C        0.8042585606   -0.2864815604    1.6797598137
C        5.1006686048   -6.6625531678   -4.0399499169
C        3.8869527352   -6.4280208911   -3.3415872140
C        4.9978394213   -5.1363983548   -1.8907531088
C        4.0435588696   -2.5281045463    0.0993950690
C        5.1716437990   -7.5306220696   -5.2622885232
N        6.2089959167   -6.0794727254   -3.5920865183
N        3.8210281835   -5.6695178031   -2.2664204478
N        6.1773018858   -5.2974615722   -2.5097136676
N        3.9229672031   -3.7538420492   -0.2694483039
N        5.0607359705   -4.3687142269   -0.7374464252
O        2.7544761634   -7.0014650343   -3.7962382326
F       -0.2291970544    0.4353836666    2.1802371182
H        4.0734219005    0.0357293512    0.8887546377
H        1.5105082435   -3.4037463484    0.5504803658
H        2.1684166965    1.3678517471    1.8103187179
H       -0.3988519815   -2.0562025489    1.4756798654
H        5.0052789224   -1.9993855353    0.0286427599
H        4.5188245709   -7.1489584475   -6.0545850299
H        6.2007023382   -7.5557680174   -5.6251211976
H        4.8428005986   -8.5512473526   -5.0394392618
H        5.9379414666   -3.8443693932   -0.6907823255
H        2.0393105896   -6.7241423488   -3.1912884101
28   
torsion grid (-120,)
C        3.0739504092   -0.4538375936    0.7898734663
C        1.6745958893   -2.4261040749    0.9732905459
C        2.0323732656    0.3422946096    1.2714217755
C        0.6279269493   -1.6456022890    1.4540087399
C        2.9097235868   -1.8399804490    0.6329947746
C        0.8270198224   -0.2712889886    1.5941698561
C        5.0961575541   -6.5717524570   -4.0226242491
C        3.8782002471   -6.3700387104   -3.3217303254
C        4.9952158479   -5.2161812115   -1.7620103559
C        4.0189736127   -2.6386457812    0.1038165617
C        5.1662650719   -7.3453562167   -5.3068487726
N        6.2084661671   -6.0421173357   -3.5214171157
N        3.8135982891   -5.6960165706   -2.1916719914
N        6.1778840941   -5.3451065483   -2.3822292847
N        3.9138493018   -3.9055424492   -0.0831009374
N        5.0563567701   -4.5499193880   -0.5445160151
O        2.7407940835   -6.8839882861   -3.8320690611
F       -0.1913724121    0.4902098828    2.0644291860
H        4.0232137548    0.0101786091    0.5321866714
H        1.5541534529   -3.4980582087    0.8550842742
H        2.1434378748    1.4145692691    1.3979356333
H       -0.3309344095   -2.0782119725    1.7228696293
H        4.9567133612   -2.1034343057   -0.1060102186
H        4.5285626041   -6.8934454471   -6.0741054787
H        6.1987473849   -7.3606239232   -5.6603820764
H        4.8182323657   -8.3741190728   -5.1654718828
H        5.9287792981   -4.0192908941   -0.4782732939
H        2.0238502142   -6.6414615760   -3.2143755137
28   
torsion grid (-105,)
C        2.7320821964   -0.6491267205    2.0105548997
C        1.6610807352   -1.9232655510    0.2450231503
C        1.4869842255   -0.2188694930    2.4736077916
C        0.4129967964   -1.5038762804    0.6942872665
C        2.8343098207   -1.5035509139    0.9010242800
C        0.3504489785   -0.6586830579    1.8034457089
C        7.3941144803   -1.2091724787   -3.9465478921
C        7.7825165336   -2.5157741009   -3.5443286152
C        6.2465777251   -2.4276970195   -1.9026575181
C        4.1625803917   -1.9362666050    0.4558580887
C        8.0347761026   -0.5034616390   -5.1064523405
N        6.4271036309   -0.6008408223   -3.2698945046
N        7.2121488106   -3.1370350549   -2.5349649617
N        5.8354610207   -1.1967676534   -2.2254052118
N        4.3115300151   -2.7539781378   -0.5209650833
N        5.6969641988   -3.0380100805   -0.7807485539
O        8.7615441239   -3.1433379994   -4.2296573096
F       -0.8652947936   -0.2490609625    2.2403406818
H        3.6340930608   -0.3149591801    2.5174541430
H        1.7472429280   -2.5738051671   -0.6191050259
H        1.3893017576    0.4418310799    3.3291791155
H       -0.5049917801   -1.8120952287    0.2033729079
H        5.0315787858   -1.5268002608    0.9809643388
H        7.9138868395   -1.0765741134   -6.0319273717
H        7.5718619732    0.4774118352   -5.2281012269
H        9.1107856863   -0.3771304361   -4.9454556311
H        5.8159626279   -4.0460774904   -0.8516513434
H        8.8828596123   -4.0172725781   -3.8115990780
28   
torsion grid (-90,)
C        2.7918426598   -0.4977932124    1.7875753560
C        1.6636585189   -2.0895301490    0.3444135417
C        1.5617844377   -0.0415674680    2.2658947875
C        0.4308924762   -1.6467109153    0.8132176418
C        2.8579172612   -1.5229097197    0.8301946734
C        0.4037687660   -0.6290435332    1.7681828780
C        7.3938531465   -1.1665717383   -3.8230436836
C        7.7176654323   -2.5251910677   -3.5584982388
C        6.2209822982   -2.5184145205   -1.8787634365
C        4.1721763929   -1.9775309807    0.3671139010
C        8.0482635586   -0.3856685719   -4.9255680683
N        6.4774061182   -0.5766179310   -3.0649662108
N        7.1333559211   -3.2121383141   -2.6008399532
N        5.8769350778   -1.2405818069   -2.0678921534
N        4.2921990110   -2.9263611518   -0.4891857291
N        5.6541495340   -3.2126792221   -0.8140580592
O        8.6479867143   -3.1323023378   -4.3244314900
F       -0.7975953350   -0.1962431251    2.2234137777
H        3.7094760531   -0.0495449452    2.1606126850
H        1.7203280472   -2.8736008810   -0.4035639418
H        1.4918304764    0.7507046267    3.0044546160
H       -0.5027573939   -2.0676525529    0.4528770676
H        5.0518925776   -1.4673386631    0.7698051705
H        7.8780153478   -0.8592508005   -5.8983153376
H        7.6367585758    0.6250739512   -4.9409943943
H        9.1325266863   -0.3315434463   -4.7803086258
H        5.7432700205   -4.2116071548   -0.9809176105
H        8.7301653738   -4.0483137861   -3.9965620973
28   
torsion grid (-75,)
C        2.8051584128   -0.3888211912    1.5890748387
C        1.6658014085   -2.2138224892    0.4681733419
C        1.5899472303    0.0672402924    2.1043931952
C        0.4477028461   -1.7732221460    0.9760512252
C        2.8589946559   -1.5301792695    0.7725315045
C        0.4340365271   -0.6376035536    1.7873344698
C        7.4267366823   -1.1440417054   -3.7318463882
C        7.6734426636   -2.5360108451   -3.5757496485
C        6.1921354428   -2.5732241406   -1.8820755095
C        4.1597074597   -1.9790422013    0.2673192568
C        8.1145492713   -0.3204606613   -4.7815935019
N        6.5552648079   -0.5622689935   -2.9173906192
N        7.0564431707   -3.2604096697   -2.6681007971
N        5.9290820493   -1.2654604029   -1.9637063496
N        4.2639108230   -3.0269471015   -0.4699757690
N        5.5835290312   -3.3260496765   -0.8836876762
O        8.5619109736   -3.1331212603   -4.3965567425
F       -0.7529549676   -0.2049843462    2.2804585700
H        3.7202495769    0.1505732674    1.8208939898
H        1.7109957358   -3.0893689674   -0.1712592037
H        1.5298994125    0.9483190419    2.7354599065
H       -0.4838470817   -2.2849921913    0.7542762607
H        5.0325727818   -1.3795719027    0.5337142781
H        7.9060262683   -0.7075053934   -5.7846894567
H        7.7635820089    0.7107563938   -4.7141987604
H        9.2015765803   -0.3409992698   -4.6491589018
H        5.6417338717   -4.3130815437   -1.1155357418
H        8.5944148493   -4.0751796777   -4.1419289071
28   
torsion grid (-60,)
C        2.7372982757   -0.2735374172    1.4021468213
C        1.6597703290   -2.3003534908    0.6220530699
C        1.5402094935    0.1545808408    1.9805008071
C        0.4602602091   -1.8888391077    1.1950409063
C        2.8145696333   -1.4999713690    0.7215106333
C        0.4232606875   -0.6652552309    1.8652757233
C        7.5152132353   -1.1253089229   -3.6806253792
C        7.6471482295   -2.5411861327   -3.6138444201
C        6.1550672750   -2.5660037205   -1.9279239490
C        4.0988442070   -1.9070242962    0.1421821932
C        8.2726903525   -0.2958618847   -4.6762449317
N        6.6918843536   -0.5281741458   -2.8298411599
N        6.9666290226   -3.2691448737   -2.7575691026
N        6.0074216001   -1.2376832399   -1.9203485481
N        4.2083752298   -3.0214999500   -0.4932233514
N        5.4703113512   -3.3424074904   -1.0038666095
O        8.4908311306   -3.1529430998   -4.4697680407
F       -0.7471523457   -0.2616951164    2.4207561354
H        3.6211122512    0.3552491003    1.4767182793
H        1.7193790553   -3.2441040868    0.0897495939
H        1.4648913467    1.1003796435    2.5078059237
H       -0.4406209953   -2.4914709272    1.1302220660
H        4.9381276557   -1.2225786302    0.2611664860
H        8.0391128990   -0.6016541592   -5.7016069661
H        8.0057439912    0.7541007356   -4.5444525182
H        9.3537503172   -0.4125312283   -4.5448791164
H        5.4885469548   -4.3184373462   -1.2794700809
H        8.4463151854   -4.1093543373   -4.2782461104
28   
torsion grid (-45,)
C        2.6361971394   -0.1962230647    1.2523012307
C        1.6818358996   -2.3742537219    0.7812642185
C        1.4660731677    0.1884913039    1.9111199132
C        0.5100099409   -2.0065055218    1.4359008692
C        2.7615966693   -1.4748846643    0.6833411392
C        0.4242127408   -0.7285732713    1.9899622334
C        7.6150953490   -1.1144030478   -3.6442461983
C        7.6378138455   -2.5390457963   -3.6548983285
C        6.1174005920   -2.5391976582   -1.9925964736
C        4.0181318914   -1.8273795687    0.0125923345
C        8.4529195221   -0.2953773027   -4.5822325654
N        6.8257169688   -0.5025943572   -2.7736630175
N        6.8898666212   -3.2566160909   -2.8494596090
N        6.0721692283   -1.2052346175   -1.9129248199
N        4.1576790430   -2.9881926536   -0.5312327101
N        5.3591872586   -3.3179587843   -1.1353212265
O        8.4481461148   -3.1648593681   -4.5322350350
F       -0.7197125639   -0.3697392777    2.6268568059
H        3.4618180847    0.5071867640    1.1766728180
H        1.7772329490   -3.3601283297    0.3379086549
H        1.3554401005    1.1732047760    2.3543916469
H       -0.3328042341   -2.6855584754    1.5230433996
H        4.7991405075   -1.0702962519   -0.0191687757
H        8.2154892450   -0.5273768621   -5.6258789151
H        8.2660935917    0.7637895373   -4.3973577295
H        9.5189238609   -0.5038005130   -4.4416789481
H        5.3531729894   -4.2889889893   -1.4255398288
H        8.3289984229   -4.1244069416   -4.3963470602
28   
torsion grid (-30,)
C        2.5394754856   -0.1516398220    1.1276733287
C        1.7174821607   -2.4199385928    0.9086602713
C        1.4056778594    0.2015723787    1.8634802264
C        0.5824482729   -2.0845503097    1.6410920016
C        2.7129342701   -1.4592174961    0.6428587940
C        0.4475039363   -0.7759231375    2.1061929479
C        7.6883061913   -1.1132528354   -3.6179048021
C        7.6392942637   -2.5368120995   -3.6825264297
C        6.0622133798   -2.5188375420   -2.0735019748
C        3.9277856579   -1.7732064557   -0.1184086152
C        8.6007804090   -0.3049781068   -4.4934095570
N        6.8991669421   -0.4940467209   -2.7535828198
N        6.8310879699   -3.2437969981   -2.9293186976
N        6.0763534512   -1.1868942519   -1.9488499918
N        4.1001847035   -2.9638845461   -0.5864362100
N        5.2393244766   -3.2931857089   -1.2804949360
O        8.4476031973   -3.1696855375   -4.5564800752
F       -0.6601738477   -0.4482686116    2.8201391609
H        3.2994313427    0.5992734972    0.9256942892
H        1.8490161949   -3.4294515982    0.5330007263
H        1.2600874036    1.2081912086    2.2429131268
H       -0.1943165806   -2.8121684171    1.8563246050
H        4.6459218687   -0.9721899087   -0.2790950709
H        8.3903150793   -0.4854214409   -5.5529117074
H        8.4618446020    0.7549562752   -4.2740450883
H        9.6487492084   -0.5744282111   -4.3240626629
H        5.2329805767   -4.2662673828   -1.5605905839
H        8.2770648329   -4.1264571497   -4.4621911826
28   
torsion grid (-15,)
C        2.4385931959   -0.1370713654    1.0039568045
C        1.7479167373   -2.4592142995    0.9829919395
C        1.3472591087    0.1926606296    1.8113760168
C        0.6562113891   -2.1469549149    1.7880086283
C        2.6548134933   -1.4594039785    0.5795840872
C        0.4754393702   -0.8225001276    2.1880622918
C        7.7349591123   -1.1018429954   -3.6006010008
C        7.6490326320   -2.5218142935   -3.7046997027
C        5.9883445040   -2.4975980927   -2.1812098569
C        3.8193403105   -1.7451053389   -0.2665294707
C        8.7175255198   -0.2991439678   -4.4022597254
N        6.9158138169   -0.4814067702   -2.7662886161
N        6.7856541236   -3.2236524937   -3.0112684197
N        6.0261043192   -1.1680828625   -2.0298256648
N        4.0264684831   -2.9513233747   -0.6803037079
N        5.1042817917   -3.2683728426   -1.4595109489
O        8.4848176654   -3.1556592325   -4.5517280494
F       -0.5905598420   -0.5172276788    2.9723108450
H        3.1310910345    0.6433881928    0.6980320915
H        1.9133491588   -3.4806330092    0.6560551531
H        1.1691119041    1.2102291933    2.1449699003
H       -0.0523136512   -2.9047101905    2.1088495006
H        4.4735399346   -0.9168448093   -0.5288844384
H        8.5599440225   -0.4443208046   -5.4762955711
H        8.5983557754    0.7583553718   -4.1606319947
H        9.7461912387   -0.6056871951   -4.1846422201
H        5.1229369381   -4.2490860395   -1.7080649443
H        8.2839774184   -4.1092763620   -4.4913557520
28   
torsion grid (0,)
C        2.3715273809   -0.1152760444    0.9222136680
C        1.7984632051   -2.4652932663    1.0669794476
C        1.3359154323    0.2040674174    1.8037634995
C        0.7626328650   -2.1633670348    1.9463625224
C        2.6174421110   -1.4460175241    0.5423499258
C        0.5502266382   -0.8301979948    2.2991856377
C        7.7630121999   -1.1119379952   -3.5745041275
C        7.6605717325   -2.5298689915   -3.6925686663
C        5.9121202086   -2.4845936877   -2.2706907742
C        3.7196491213   -1.7191986402   -0.3871218005
C        8.8082757710   -0.3238897545   -4.3084510361
N        6.9036177628   -0.4812007228   -2.7899473144
N        6.7488795955   -3.2206909206   -3.0523256478
N        5.9552254350   -1.1550808111   -2.1178364391
N        3.9589006944   -2.9355141052   -0.7524780456
N        4.9704758409   -3.2437332923   -1.6151923921
O        8.5352532163   -3.1730169660   -4.4921586663
F       -0.4604735452   -0.5354218398    3.1573036526
H        2.9972919236    0.6796728738    0.5237797885
H        1.9872829948   -3.4931755202    0.7747897662
H        1.1358030994    1.2277106374    2.1047630544
H        0.1215682540   -2.9357458563    2.3606389546
H        4.3071454288   -0.8761285623   -0.7431888122
H        8.7166201411   -0.4617506398   -5.3910613384
H        8.6927885418    0.7345388020   -4.0691714932
H        9.8155008214   -0.6497960574   -4.0277167923
H        5.0322088334   -4.2351571224   -1.8066179340
H        8.3160800554   -4.1235419287   -4.4495389705
28   
torsion grid (15,)
C        2.3072734269   -0.1145663536    0.8417128035
C        1.8649321734   -2.4793803781    1.1275846798
C        1.3335384618    0.1949605756    1.7944427670
C        0.8910944096   -2.1873759365    2.0782431914
C        2.5867543458   -1.4477642481    0.4954785083
C        0.6431106273   -0.8513761815    2.3952760185
C        7.7820998257   -1.1100634250   -3.5423306870
C        7.6728371951   -2.5260176485   -3.6752622211
C        5.8416475770   -2.4724427604   -2.3624939874
C        3.6197292785   -1.7108497347   -0.5131867415
C        8.8792285896   -0.3270918312   -4.2023948456
N        6.8806720043   -0.4754580549   -2.8097178985
N        6.7199459317   -3.2124435109   -3.0924560780
N        5.8825127030   -1.1434611390   -2.2072789693
N        3.9024074794   -2.9300698324   -0.8336039567
N        4.8476858096   -3.2242923043   -1.7766044285
O        8.5883737382   -3.1735952487   -4.4237200069
F       -0.3059939769   -0.5662030193    3.3239682616
H        2.8587007460    0.6901456858    0.3614780226
H        2.0796311346   -3.5092687372    0.8615309808
H        1.1091242745    1.2204846882    2.0708581154
H        0.3248269920   -2.9695856153    2.5748596267
H        4.1273256000   -0.8573585714   -0.9567191193
H        8.8536770940   -0.4541872125   -5.2898864033
H        8.7604158842    0.7304140697   -3.9606213077
H        9.8634477690   -0.6668704714   -3.8627501324
H        4.9599545819   -4.2211209118   -1.9094658020
H        8.3578500704   -4.1221015741   -4.4000313966
28   
torsion grid (30,)
C        2.7012787458   -0.8922578807    2.0284183547
C        1.5618478462   -1.7489921158    0.0697080367
C        1.5087116657   -0.3319149689    2.4926016333
C        0.3657031363   -1.1959538033    0.5176234277
C        2.7469266863   -1.6037901598    0.8174140730
C        0.3616673754   -0.4955959039    1.7244861116
C        8.5599684763   -4.6427325426    0.7771955899
C        8.2740404052   -5.0201629107   -0.5677543864
C        6.3938211815   -3.7820408197   -0.4766094186
C        4.0299259104   -2.1643414704    0.3773283949
C        9.7810292166   -5.1300481811    1.5010450972
N        7.7142714542   -3.8353393972    1.3985837989
N        7.1992901199   -4.6079450990   -1.1965119056
N        6.6160262298   -3.3736215506    0.7778348102
N        4.0915098042   -2.8348744493   -0.7240699261
N        5.2837004773   -3.3490742710   -1.1735997140
O        9.1378653333   -5.8360077357   -1.2048508878
F       -0.8053975933    0.0433865704    2.1620728235
H        3.6089066798   -0.7767557486    2.6158446282
H        1.5951285984   -2.3000926737   -0.8644858424
H        1.4605977108    0.2194496121    3.4264806303
H       -0.5569291095   -1.2970211573   -0.0459827711
H        4.8968742447   -2.0066536542    1.0150606620
H       10.6949296580   -4.8237734047    0.9809606282
H        9.7868526680   -4.7181752911    2.5115951142
H        9.7946258699   -6.2237388899    1.5564598740
H        5.1693620400   -3.8276076116   -2.0586505867
H        8.7819993712   -5.9845234967   -2.1018950664
28   
torsion grid (45,)
C        2.7566387614   -0.7638132993    1.9429468503
C        1.5657088715   -1.8680292334    0.1432182694
C        1.5529457473   -0.2774671026    2.4585320347
C        0.3583534270   -1.3896490930    0.6436279271
C        2.7811619691   -1.5589745467    0.7847007015
C        0.3750015172   -0.6012218090    1.7949585537
C        8.4959399606   -4.6823592935    0.7968178306
C        8.2658001477   -4.9944221530   -0.5742721762
C        6.4240406085   -3.6982251087   -0.5221756901
C        4.0759656535   -2.0330703335    0.2829497486
C        9.6621361787   -5.2417034717    1.5581911989
N        7.6472168367   -3.8706238780    1.4100875281
N        7.2345625512   -4.5227798964   -1.2354582511
N        6.6003385966   -3.3439703762    0.7550380721
N        4.1292349814   -2.7760743330   -0.7695781089
N        5.3599371546   -3.1921380054   -1.2487022698
O        9.1336195484   -5.8115896998   -1.2044538405
F       -0.8031294068   -0.1363262031    2.2836750714
H        3.6890044099   -0.5248478577    2.4486609879
H        1.5845086054   -2.4858428227   -0.7487278398
H        1.5193960657    0.3370608551    3.3527463811
H       -0.5887868396   -1.6156923152    0.1631359425
H        4.9650138450   -1.7492392784    0.8425849107
H       10.6109050902   -4.9470717862    1.0971415465
H        9.6305972737   -4.8716805617    2.5843514370
H        9.6364871851   -6.3365389794    1.5680124881
H        5.2486703860   -3.6798267418   -2.1301462667
H        8.8166833033   -5.9108872224   -2.1226502904
28   
torsion grid (60,)
C        2.8044169664   -0.6173901933    1.8207491331
C        1.5950360830   -2.0087908271    0.2462653971
C        1.6015282894   -0.2039349527    2.3977386062
C        0.3881249465   -1.6045093802    0.8087670204
C        2.8184035955   -1.5175555573    0.7423773653
C        0.4145471821   -0.7071019502    1.8772732370
C        8.4070354251   -4.7389293570    0.8146326785
C        8.2647088211   -4.9538277443   -0.5854162953
C        6.4401139515   -3.6348234543   -0.5672992360
C        4.1086103561   -1.9105050966    0.1664987757
C        9.5117975892   -5.3667264737    1.6136219899
N        7.5278817745   -3.9558724624    1.4247018411
N        7.2841659034   -4.4226998002   -1.2801653635
N        6.5344048279   -3.3706296052    0.7394536926
N        4.1628385191   -2.7370504478   -0.8192372701
N        5.4310158620   -3.0500688192   -1.3192021199
O        9.1618992397   -5.7410105401   -1.2131466079
F       -0.7618841006   -0.3156473532    2.4286910359
H        3.7439662261   -0.2394215030    2.2162841859
H        1.6079364228   -2.7096288244   -0.5821220628
H        1.5751483208    0.4895125663    3.2324207431
H       -0.5653462772   -1.9708304664    0.4404526883
H        5.0051554509   -1.4866990164    0.6177363781
H       10.4935224861   -5.0575220089    1.2392516430
H        9.4140745054   -5.0655884303    2.6580439995
H        9.4727722610   -6.4592517634    1.5479289980
H        5.3386010620   -3.5201679594   -2.2132883725
H        8.9038239203   -5.7719299892   -2.1543299117
28   
torsion grid (75,)
C        2.8051483549   -0.4500825157    1.6630532467
C        1.6522614296   -2.1363427399    0.3543459993
C        1.6046624121   -0.0945977128    2.2817207027
C        0.4480260931   -1.7918222439    0.9601146870
C        2.8435873910   -1.4665821878    0.6947616439
C        0.4481198273   -0.7738071057    1.9149119895
C        8.3309758101   -4.8091389544    0.8249927760
C        8.2818237749   -4.9111511957   -0.5927471577
C        6.4635112335   -3.5852885319   -0.5903560180
C        4.1246526480   -1.7943394055    0.0622904522
C        9.3807106442   -5.5035071647    1.6430701689
N        7.4115246595   -4.0734846951    1.4371065738
N        7.3506650440   -4.3177645676   -1.3069627410
N        6.4645975632   -3.4332745402    0.7374222533
N        4.2095232330   -2.7051260093   -0.8409428234
N        5.5140911262   -2.9095182407   -1.3492188823
O        9.2162614910   -5.6528925119   -1.2222602825
F       -0.7243376850   -0.4390516960    2.5086856496
H        3.7218704174    0.0652940415    1.9388970545
H        1.6885788524   -2.9278402000   -0.3870792811
H        1.5570923366    0.6872020962    3.0331684299
H       -0.4818393581   -2.2948370100    0.7127202871
H        5.0036653723   -1.2411573269    0.3992665259
H       10.3851007847   -5.1710530923    1.3597794039
H        9.2140841881   -5.2846603213    2.6992285806
H        9.3461603601   -6.5873690551    1.4896210135
H        5.4476951882   -3.3322926649   -2.2702134602
H        9.0196676409   -5.6053925626   -2.1774882575
28   
torsion grid (90,)
C        2.7264073539   -0.2861257463    1.5275247920
C        1.7012937527   -2.2284808576    0.4952482535
C        1.5204166372    0.0312442512    2.1558872173
C        0.4925501777   -1.9236167590    1.1129680040
C        2.8303243181   -1.4100693392    0.6922017729
C        0.4250849317   -0.7960345012    1.9329390858
C        8.3169772406   -4.9076613454    0.8261911749
C        8.3220295473   -4.8837315201   -0.5951070019
C        6.5001192243   -3.5647521670   -0.5445703135
C        4.1135252782   -1.6961580799    0.0441630719
C        9.3395536741   -5.6682123342    1.6196159125
N        7.3692124871   -4.2329493160    1.4658059390
N        7.4170628554   -4.2280836410   -1.2890700619
N        6.4436670388   -3.5377951577    0.7907510242
N        4.2589942371   -2.6964853563   -0.7471114240
N        5.5855104797   -2.8048458961   -1.2677145627
O        9.2818192303   -5.5669704142   -1.2529240540
F       -0.7522762784   -0.5002524394    2.5363989814
H        3.5962817653    0.3452608621    1.6912457252
H        1.7903062258   -3.1019934017   -0.1423275246
H        1.4223726213    0.8949294175    2.8058838001
H       -0.3907245176   -2.5400857289    0.9768384546
H        4.9512822845   -1.0304184439    0.2706845476
H       10.3516904603   -5.3082742605    1.4059234492
H        9.1311353633   -5.5443716524    2.6837591326
H        9.3186334594   -6.7343528453    1.3697655583
H        5.5313355457   -3.1620231082   -2.2180472399
H        9.1201758115   -5.4341166006   -2.2066274449
28   
torsion grid (105,)
C        2.5901853290   -0.1168480212    1.3573979207
C        1.7516538621   -2.2882911992    0.6724006920
C        1.3687331803    0.1774696514    1.9666913364
C        0.5286187425   -2.0101099255    1.2742623917
C        2.7946525172   -1.3427106533    0.7039452162
C        0.3605444107   -0.7788892461    1.9101410483
C        8.3385886890   -5.0349899812    0.8063219167
C        8.3823886564   -4.8556307794   -0.6028467918
C        6.5463752269   -3.5632214558   -0.4590122316
C        4.0909855641   -1.6043171830    0.0708576619
C        9.3480749544   -5.8692370376    1.5403680120
N        7.3648483553   -4.4440477414    1.4887094104
N        7.4903415587   -4.1337052472   -1.2456350758
N        6.4487703619   -3.6871939598    0.8689476410
N        4.3156695992   -2.6862182805   -0.5803159138
N        5.6497982151   -2.7272067935   -1.1151128543
O        9.3662014908   -5.4566842934   -1.3048814262
F       -0.8304220621   -0.5083514541    2.4975980083
H        3.3935174634    0.6150544435    1.3922425669
H        1.9198138235   -3.2385484897    0.1763407384
H        1.1933775574    1.1194862736    2.4765193903
H       -0.2890893236   -2.7242317388    1.2651328123
H        4.8719333655   -0.8451778331    0.1821482039
H       10.3614978813   -5.4798397917    1.3954178136
H        9.1097560015   -5.8638582206    2.6054390231
H        9.3458846951   -6.9019529219    1.1755676816
H        5.6000760625   -2.9887633547   -2.0972043668
H        9.2283283005   -5.2209174359   -2.2422485190
28   
torsion grid (120,)
C        3.2266277525   -1.1843382960    1.6878709963
C        1.5167594886   -1.6677121803    0.0366511168
C        2.2541521829   -0.7210658230    2.5767900380
C        0.5367609076   -1.2096205487    0.9115687070
C        2.8737764705   -1.6628051911    0.4152140950
C        0.9250614637   -0.7440115058    2.1687691761
C        5.1432500305   -6.8138524807   -3.7238658954
C        3.8601183137   -6.2918999872   -3.4136666669
C        4.8169093387   -4.3576119403   -2.8134602356
C        3.9221806091   -2.1606047535   -0.4799420789
C        5.3406199840   -8.2068432978   -4.2466553187
N        6.2044212175   -6.0361629226   -3.5295080280
N        3.6830640051   -5.0678259588   -2.9595160200
N        6.0615925400   -4.7928989839   -3.0617567869
N        3.6508549461   -2.6328256181   -1.6437346462
N        4.7418974991   -3.0310260508   -2.4083348130
O        2.7786889285   -7.0787437655   -3.5860397982
F       -0.0296458358   -0.2957336377    3.0205975348
H        4.2712857732   -1.1743898708    1.9901735052
H        1.2494229519   -2.0336059554   -0.9493812487
H        2.5107758404   -0.3485855327    3.5634870206
H       -0.5143096734   -1.2036390078    0.6394177459
H        4.9575321246   -2.0911930627   -0.1151004435
H        4.8081155721   -8.3507488414   -5.1928125031
H        6.4062032049   -8.3832892482   -4.4035482344
H        4.9512853790   -8.9504172545   -3.5430250165
H        5.6585143226   -2.7122046949   -2.0845050749
H        2.0026256863   -6.5473411825   -3.3220352561
28   
torsion grid (135,)
C        3.2094284055   -0.9603650546    1.6672980030
C        1.5289744683   -1.7986690226    0.1327371488
C        2.2103972852   -0.4726887335    2.5128198852
C        0.5230770003   -1.3184780725    0.9655264901
C        2.8853351973   -1.6275428933    0.4741595854
C        0.8834911208   -0.6628415562    2.1436749210
C        5.1378694383   -6.8494398020   -3.8110475467
C        3.8637550675   -6.3249917736   -3.4684339522
C        4.8563286158   -4.4663641331   -2.7146147058
C        3.9622395340   -2.1414316438   -0.3757056351
C        5.3102301141   -8.2025472547   -4.4372249363
N        6.2136351710   -6.1104173306   -3.5551672948
N        3.7081086064   -5.1364111767   -2.9218646845
N        6.0934096914   -4.9041880483   -2.9942099689
N        3.7192119601   -2.7820581688   -1.4636601755
N        4.8110856053   -3.1796142485   -2.1991866544
O        2.7675242908   -7.0722908082   -3.7089696659
F       -0.0969462955   -0.1931812985    2.9546841283
H        4.2526420821   -0.8206961857    1.9412795625
H        1.2818818244   -2.3106878750   -0.7916375502
H        2.4455713052    0.0443962238    3.4377683541
H       -0.5276027768   -1.4394525072    0.7198749738
H        4.9918620404   -1.9378899590   -0.0472680437
H        4.7806062331   -8.2634978408   -5.3939174305
H        6.3729394262   -8.3886899170   -4.6022834618
H        4.9017595364   -8.9890224803   -3.7936572748
H        5.7351020419   -2.8780191330   -1.8800691940
H        2.0006437399   -6.5469224653   -3.4086143693
28   
torsion grid (150,)
C        3.1766943464   -0.7691073002    1.6322210656
C        1.5474073277   -1.9168156546    0.2522807289
C        2.1535846650   -0.2481170339    2.4277240993
C        0.5175895486   -1.4055260072    1.0359828905
C        2.8916169478   -1.6067538505    0.5407070937
C        0.8403854237   -0.5782858411    2.1125991244
C        5.1287449363   -6.8573253952   -3.8821855778
C        3.8664862656   -6.3442674082   -3.4831822595
C        4.8960644648   -4.5725633004   -2.5863893646
C        3.9939097397   -2.1422220936   -0.2605966290
C        5.2725660457   -8.1552041340   -4.6221639200
N        6.2190145654   -6.1580622443   -3.5785491887
N        3.7345922786   -5.2037973357   -2.8368108853
N        6.1239440708   -5.0018234918   -2.9181104074
N        3.7850583404   -2.9297275996   -1.2563855790
N        4.8798250199   -3.3409645939   -1.9577928396
O        2.7561212632   -7.0513660740   -3.7751915068
F       -0.1637970279   -0.0786181428    2.8759554959
H        4.2094768506   -0.5204842468    1.8655003437
H        1.3281165954   -2.5613292622   -0.5928621387
H        2.3602223100    0.3999475331    3.2736417675
H       -0.5237428120   -1.6327499763    0.8287452060
H        5.0095747953   -1.8294583555    0.0211239353
H        4.7313372857   -8.1276521697   -5.5739123553
H        6.3303044380   -8.3423246909   -4.8156622260
H        4.8593318553   -8.9871965786   -4.0419769713
H        5.8091672129   -3.0378445252   -1.6589875934
H        2.0005597556   -6.5416871838   -3.4235846047
28   
torsion grid (165,)
C        3.1443896613   -0.6269886703    1.5548641121
C        1.5728055150   -2.0324633422    0.3578487230
C        2.0992377822   -0.0664287395    2.2927157582
C        0.5217566216   -1.4830552188    1.0855571742
C        2.8992761335   -1.6122206753    0.5831231792
C        0.8047939907   -0.5073951283    2.0424624066
C        5.1326240382   -6.8649364268   -3.9388260192
C        3.8829323383   -6.3781087886   -3.4739215561
C        4.9436272097   -4.6947750572   -2.4514513184
C        4.0231398838   -2.1783625763   -0.1640168289
C        5.2520077535   -8.0971725290   -4.7874821727
N        6.2343243544   -6.1992671056   -3.6008348008
N        3.7722688753   -5.2952207476   -2.7312129637
N        6.1618635241   -5.1012708971   -2.8466897989
N        3.8499534552   -3.0887530328   -1.0579332874
N        4.9524502398   -3.5344787455   -1.7084850726
O        2.7608841067   -7.0494610276   -3.8038004375
F       -0.2205103320    0.0285624611    2.7516264916
H        4.1629315865   -0.2927799105    1.7387052471
H        1.3839554202   -2.7923897903   -0.3936011266
H        2.2750694789    0.6952117926    3.0459023475
H       -0.5062508015   -1.7939549192    0.9258149774
H        5.0228220212   -1.7858393108    0.0698615274
H        4.6924204065   -7.9872710658   -5.7225596822
H        6.3043372333   -8.2733388922   -5.0174253949
H        4.8445590895   -8.9726644386   -4.2706484615
H        5.8827952910   -3.2030163731   -1.4498987177
H        2.0166780966   -6.5654836261   -3.3962070646
28   
torsion grid (180,)
C        3.1200230977   -0.5342185778    1.4754350340
C        1.5878717344   -2.1104803614    0.4541340393
C        2.0606006660    0.0754160103    2.1514664237
C        0.5227664318   -1.5131047139    1.1211547226
C        2.9022299073   -1.6293327426    0.6218502127
C        0.7788505837   -0.4277909020    1.9602585649
C        5.1320056733   -6.8355092441   -3.9917891235
C        3.8954058356   -6.4120624501   -3.4380290908
C        4.9734789911   -4.8062036417   -2.3144732577
C        4.0395217774   -2.2391895756   -0.0676191453
C        5.2334575982   -7.9888672240   -4.9470046738
N        6.2366784571   -6.1792809584   -3.6448180491
N        3.7996199055   -5.4004606700   -2.5991081311
N        6.1794927232   -5.1502701733   -2.7983062889
N        3.8898828295   -3.2441580868   -0.8594658370
N        5.0014939443   -3.7372533767   -1.4498707512
O        2.7701745914   -7.0703602370   -3.7832150734
F       -0.2600260522    0.1547294739    2.6107480062
H        4.1286602166   -0.1519116692    1.6147705227
H        1.4193387141   -2.9561058135   -0.2049065160
H        2.2161075200    0.9216662560    2.8132612708
H       -0.4958358121   -1.8703949807    1.0038488471
H        5.0288804106   -1.7996908652    0.1215157803
H        4.6332161465   -7.8107169339   -5.8456508076
H        6.2776805405   -8.1253631685   -5.2338440520
H        4.8617603755   -8.9125795362   -4.4906491738
H        5.9241021298   -3.3362453900   -1.2795542806
H        2.0363533092   -6.6364763713   -3.3063119831
