27
0 1 C10H13NO2S
C                    -0.162463674426    -6.773965733738     0.237878713716
C                    -1.354493439826    -6.118486840096     0.560267006810
C                     1.029442533388    -6.049493736681     0.102100033122
C                    -1.364079061655    -4.731875624482     0.746206278785
C                     1.031946917455    -4.666080508287     0.284881799933
C                    -0.169742178869    -4.026373222816     0.601030321113
C                    -0.088910825615     0.302367936974    -1.985166289158
C                    -0.655686706824    -0.879581441780    -2.786993664875
C                     0.741309426338    -0.370185145125    -0.880738403083
C                    -0.996915708907    -1.892603955578    -1.690971875211
N                     0.124555366425    -1.727277554153    -0.732853793649
O                    -1.509536668605    -1.864747553906     1.299244259220
O                     1.013956548617    -1.856057400461     1.618686130647
S                    -0.165116863124    -2.248217830492     0.840027932416
H                    -0.158826290200    -7.851439184821     0.095475956843
H                    -2.275807299303    -6.683618535961     0.671413504268
H                     1.955133392202    -6.563465172497    -0.141816571401
H                    -2.273088863054    -4.198655150665     1.005751444294
H                     1.945690738180    -4.087526565855     0.191279088081
H                     0.511077746658     0.986475100750    -2.591127594647
H                    -0.909209597546     0.874194756449    -1.538944152183
H                    -1.530810724913    -0.615705251849    -3.386631466742
H                     0.107690647474    -1.291108440070    -3.455982203991
H                     1.787426201340    -0.499636787194    -1.172789845123
H                     0.723306881133     0.185399066711     0.058511309396
H                    -1.956886159419    -1.647176592452    -1.220021562353
H                    -1.032497790931    -2.925510160188    -2.047610824591
