15
-1 1 C6H4N5
C                     1.400139287040    -0.057317665529     1.646203361477
C                     0.232513528855    -0.401204322566     0.947857219027
C                     1.634144391824    -0.628435810884     2.889760440115
C                    -0.634875537697    -1.311194662877     1.557661922723
C                     0.694735598092    -1.543305509042     3.428328164977
C                     0.953831031766    -2.137124573552     4.738774063268
N                     2.064919766643    -1.840719934566     5.456187217342
N                    -0.430233211600    -1.873774581564     2.754013055061
N                     0.163696313361    -3.019989020164     5.387541275344
N                     1.949885959854    -2.563188784209     6.574799359875
N                     0.810099717296    -3.269787604012     6.533079774726
H                     2.113781111552     0.646903926199     1.221167590854
H                     0.001922394971     0.017443289562    -0.029018062068
H                     2.518897493068    -0.400116450640     3.474541803463
H                    -1.555224722994    -1.606609714021     1.049202682489
