31
0 1 C11H15NO3S
C                     0.041584978342    -4.920444843693    -0.097051608447
C                    -0.257505986420    -5.105664191240    -1.451467089886
C                     0.522759920970    -3.682024027854     0.327563508627
C                    -0.084268412155    -4.055476741712    -2.351700164448
C                     0.710580666643    -2.609351775144    -0.559607757840
C                     0.388199115267    -2.806887044923    -1.920411948118
C                    -1.734308811128     0.466782486688     1.509483671508
C                    -2.010369978390     1.643965592764     0.567300449286
C                    -0.983803755981    -0.675278630490     0.823028188608
C                    -0.713289106734     2.227065977077     0.003819796902
C                     1.303643611004    -1.322621207554    -0.024879144849
N                     0.331776590033    -0.229140309893     0.306117586145
O                    -0.622325327547     0.501864247535    -2.014102101212
O                     1.575599760139     1.437176616978    -1.179153714383
O                     0.584572655856    -1.856058331813    -2.886365747142
S                     0.222122763900     0.965999853316    -0.881395503593
H                    -0.084255823029    -5.732206240931     0.613949891664
H                    -0.625409329997    -6.065134553412    -1.806233265243
H                     0.785442699873    -3.543546649321     1.375023753440
H                    -0.308090210617    -4.174265283065    -3.407807995690
H                    -1.148239573327     0.810830727986     2.369722453255
H                    -2.681508109421     0.074121507933     1.893848760297
H                    -2.648757109598     1.324869623313    -0.262864635943
H                    -2.541380978599     2.441619099107     1.097404725512
H                    -0.774193794694    -1.463990830592     1.548699698106
H                    -1.590830898457    -1.123313919093     0.025530927128
H                    -0.886930908887     3.011229576255    -0.737687721633
H                    -0.040597941134     2.600546684409     0.779300069021
H                     1.827958709711    -1.538110190066     0.909875408313
H                     2.040375786764    -0.907885627916    -0.715882260278
H                     0.171230733195    -0.998656225670    -2.643280358306
