
  -OEChem-05262117483D

 31 32  0     0  0  0  0  0  0999 V2000
    2.1518   -1.1142   -0.0455 C   0  0  0  0  0  0  0  0  0  0  0  0
    0.1978    2.8919    5.8895 C   0  0  0  0  0  0  0  0  0  0  0  0
    3.2643   -1.3356    0.7695 C   0  0  0  0  0  0  0  0  0  0  0  0
   -0.5307    1.7262    6.1372 C   0  0  0  0  0  0  0  0  0  0  0  0
    0.8926   -0.9091    0.5250 C   0  0  0  0  0  0  0  0  0  0  0  0
    1.4182    2.8271    5.2116 C   0  0  0  0  0  0  0  0  0  0  0  0
    3.1053   -1.3387    2.1557 C   0  0  0  0  0  0  0  0  0  0  0  0
   -0.0317    0.5017    5.6915 C   0  0  0  0  0  0  0  0  0  0  0  0
    0.6971   -0.9170    1.9142 C   0  0  0  0  0  0  0  0  0  0  0  0
    1.9525    1.6110    4.7601 C   0  0  0  0  0  0  0  0  0  0  0  0
    1.8407   -1.1272    2.7107 C   0  0  0  0  0  0  0  0  0  0  0  0
    1.1874    0.4542    5.0108 C   0  0  0  0  0  0  0  0  0  0  0  0
   -0.6880   -0.7006    2.4752 C   0  0  0  0  0  0  0  0  0  0  0  0
    3.2811    1.5990    4.0426 C   0  0  0  0  0  0  0  0  0  0  0  0
    0.6958   -2.1459    4.8992 O   0  0  0  0  0  0  0  0  0  0  0  0
    3.1240   -1.3862    5.0132 O   0  0  0  0  0  0  0  0  0  0  0  0
    1.7511   -1.1926    4.5168 S   0  0  0  0  0  0  0  0  0  0  0  0
    2.2601   -1.1050   -1.1270 H   0  0  0  0  0  0  0  0  0  0  0  0
   -0.1794    3.8538    6.2269 H   0  0  0  0  0  0  0  0  0  0  0  0
    4.2456   -1.5033    0.3346 H   0  0  0  0  0  0  0  0  0  0  0  0
   -1.4766    1.7662    6.6698 H   0  0  0  0  0  0  0  0  0  0  0  0
    0.0331   -0.7457   -0.1206 H   0  0  0  0  0  0  0  0  0  0  0  0
    1.9795    3.7408    5.0320 H   0  0  0  0  0  0  0  0  0  0  0  0
    3.9492   -1.5026    2.8178 H   0  0  0  0  0  0  0  0  0  0  0  0
   -0.5745   -0.4221    5.8627 H   0  0  0  0  0  0  0  0  0  0  0  0
   -0.9519   -1.4832    3.1896 H   0  0  0  0  0  0  0  0  0  0  0  0
   -0.7564    0.2570    3.0012 H   0  0  0  0  0  0  0  0  0  0  0  0
   -1.4250   -0.6941    1.6688 H   0  0  0  0  0  0  0  0  0  0  0  0
    3.9635    0.8711    4.4865 H   0  0  0  0  0  0  0  0  0  0  0  0
    3.1589    1.3302    2.9885 H   0  0  0  0  0  0  0  0  0  0  0  0
    3.7421    2.5886    4.0855 H   0  0  0  0  0  0  0  0  0  0  0  0
  1  3  1  0  0  0  0
  1  5  2  0  0  0  0
  1 18  1  0  0  0  0
  2  4  1  0  0  0  0
  2  6  2  0  0  0  0
  2 19  1  0  0  0  0
  3  7  2  0  0  0  0
  3 20  1  0  0  0  0
  4  8  2  0  0  0  0
  4 21  1  0  0  0  0
  5  9  1  0  0  0  0
  5 22  1  0  0  0  0
  6 10  1  0  0  0  0
  6 23  1  0  0  0  0
  7 11  1  0  0  0  0
  7 24  1  0  0  0  0
  8 12  1  0  0  0  0
  8 25  1  0  0  0  0
  9 11  2  0  0  0  0
  9 13  1  0  0  0  0
 10 12  2  0  0  0  0
 10 14  1  0  0  0  0
 11 17  1  0  0  0  0
 12 17  1  0  0  0  0
 13 26  1  0  0  0  0
 13 27  1  0  0  0  0
 13 28  1  0  0  0  0
 14 29  1  0  0  0  0
 14 30  1  0  0  0  0
 14 31  1  0  0  0  0
 15 17  2  0  0  0  0
 16 17  2  0  0  0  0
M  END
$$$$
