
  -OEChem-05262117483D

 31 32  0     1  0  0  0  0  0999 V2000
    0.0416   -4.9204   -0.0971 C   0  0  0  0  0  0  0  0  0  0  0  0
   -0.2575   -5.1057   -1.4515 C   0  0  0  0  0  0  0  0  0  0  0  0
    0.5228   -3.6820    0.3276 C   0  0  0  0  0  0  0  0  0  0  0  0
   -0.0843   -4.0555   -2.3517 C   0  0  0  0  0  0  0  0  0  0  0  0
    0.7106   -2.6094   -0.5596 C   0  0  0  0  0  0  0  0  0  0  0  0
    0.3882   -2.8069   -1.9204 C   0  0  0  0  0  0  0  0  0  0  0  0
   -1.7343    0.4668    1.5095 C   0  0  0  0  0  0  0  0  0  0  0  0
   -2.0104    1.6440    0.5673 C   0  0  0  0  0  0  0  0  0  0  0  0
   -0.9838   -0.6753    0.8230 C   0  0  0  0  0  0  0  0  0  0  0  0
   -0.7133    2.2271    0.0038 C   0  0  0  0  0  0  0  0  0  0  0  0
    1.3036   -1.3226   -0.0249 C   0  0  0  0  0  0  0  0  0  0  0  0
    0.3318   -0.2291    0.3061 N   0  0  1  0  0  0  0  0  0  0  0  0
   -0.6223    0.5019   -2.0141 O   0  0  0  0  0  0  0  0  0  0  0  0
    1.5756    1.4372   -1.1792 O   0  0  0  0  0  0  0  0  0  0  0  0
    0.5846   -1.8561   -2.8864 O   0  0  0  0  0  0  0  0  0  0  0  0
    0.2221    0.9660   -0.8814 S   0  0  0  0  0  0  0  0  0  0  0  0
   -0.0843   -5.7322    0.6139 H   0  0  0  0  0  0  0  0  0  0  0  0
   -0.6254   -6.0651   -1.8062 H   0  0  0  0  0  0  0  0  0  0  0  0
    0.7854   -3.5435    1.3750 H   0  0  0  0  0  0  0  0  0  0  0  0
   -0.3081   -4.1743   -3.4078 H   0  0  0  0  0  0  0  0  0  0  0  0
   -1.1482    0.8108    2.3697 H   0  0  0  0  0  0  0  0  0  0  0  0
   -2.6815    0.0741    1.8938 H   0  0  0  0  0  0  0  0  0  0  0  0
   -2.6488    1.3249   -0.2629 H   0  0  0  0  0  0  0  0  0  0  0  0
   -2.5414    2.4416    1.0974 H   0  0  0  0  0  0  0  0  0  0  0  0
   -0.7742   -1.4640    1.5487 H   0  0  0  0  0  0  0  0  0  0  0  0
   -1.5908   -1.1233    0.0255 H   0  0  0  0  0  0  0  0  0  0  0  0
   -0.8869    3.0112   -0.7377 H   0  0  0  0  0  0  0  0  0  0  0  0
   -0.0406    2.6005    0.7793 H   0  0  0  0  0  0  0  0  0  0  0  0
    1.8280   -1.5381    0.9099 H   0  0  0  0  0  0  0  0  0  0  0  0
    2.0404   -0.9079   -0.7159 H   0  0  0  0  0  0  0  0  0  0  0  0
    0.1712   -0.9987   -2.6433 H   0  0  0  0  0  0  0  0  0  0  0  0
  1  2  1  0  0  0  0
  1  3  2  0  0  0  0
  1 17  1  0  0  0  0
  2  4  2  0  0  0  0
  2 18  1  0  0  0  0
  3  5  1  0  0  0  0
  3 19  1  0  0  0  0
  4  6  1  0  0  0  0
  4 20  1  0  0  0  0
  5  6  2  0  0  0  0
  5 11  1  0  0  0  0
  6 15  1  0  0  0  0
  7  8  1  0  0  0  0
  7  9  1  0  0  0  0
  7 21  1  0  0  0  0
  7 22  1  0  0  0  0
  8 10  1  0  0  0  0
  8 23  1  0  0  0  0
  8 24  1  0  0  0  0
  9 12  1  0  0  0  0
  9 25  1  0  0  0  0
  9 26  1  0  0  0  0
 10 16  1  0  0  0  0
 10 27  1  0  0  0  0
 10 28  1  0  0  0  0
 11 12  1  0  0  0  0
 11 29  1  0  0  0  0
 11 30  1  0  0  0  0
 12 16  1  0  0  0  0
 13 16  2  0  0  0  0
 14 16  2  0  0  0  0
 15 31  1  0  0  0  0
M  END
$$$$
