24
0 1 C11H9N3O
C                     1.845225391672    -0.843577891274    -1.000193908809
C                     0.535497142346    -0.905898477530    -0.405144861833
C                     2.495494345170    -1.955284345294    -1.472436096699
C                    -0.166397503725    -2.077618881968    -0.262385820527
C                     1.801556524057    -3.195775836849    -1.343891025153
C                     0.492759653082    -3.252010572967    -0.748258131668
C                    -2.552358003111    -1.306062501201    -0.409612847900
C                    -1.520592244182    -1.677084720005     1.814046111666
C                    -3.065938445761    -0.160289131806     0.068857872179
C                    -2.070561208467    -0.518018847712     2.213472255926
C                    -1.555707454321    -2.144906219687     0.370040616246
N                     2.162413449732    -4.419928717436    -1.699794063662
N                     0.080127404686    -4.512148440523    -0.752455903977
N                    -2.740940626381     0.340180400398     1.334600726541
O                     1.104196027080    -5.215184934596    -1.333880209435
H                     2.328693714246     0.127105862995    -1.073312080876
H                     0.083056554008     0.017616325219    -0.053618182357
H                     3.482168014376    -1.910570924200    -1.921182573015
H                    -2.826376271168    -1.630284499164    -1.408706364450
H                    -0.994130591037    -2.289071586472     2.539785646895
H                    -3.752429753958     0.449663984930    -0.510528370753
H                    -2.010469638334    -0.176168760920     3.242314395434
H                    -1.861678077371    -3.197260163049     0.336758915182
H                    -3.392305654052     0.994501877644     1.746050068076
