20
0 1 C7ClH9N2O
C                     1.567279649734     0.492658506150     1.570692609904
C                     1.445112835776     0.373575927479     2.944538705921
C                     0.342102869453     0.039671896890     1.022041820760
C                    -0.507989595459    -0.326574121872     2.062697767411
C                    -1.899437861204    -0.834930796979     1.973854343098
C                    -0.224986131203    -0.467309780028     4.596558158868
C                    -4.188012248644    -0.692880969555     2.851030468076
N                     0.195377586745    -0.107697627322     3.246280255830
N                    -2.770471117200    -0.352211577664     2.931800124559
O                    -2.252818348991    -1.639371694271     1.114814158316
Cl                   -0.037624467928     0.014715777924    -0.668320357636
H                     2.427686783919     0.851646393792     1.023093412296
H                     2.164403441800     0.570965610024     3.728104546522
H                    -0.838576420494     0.316602608145     5.052761811020
H                    -0.798096470003    -1.394755628603     4.580696452986
H                     0.666155657712    -0.612447880361     5.209921118921
H                    -4.678669660588    -0.217386897744     1.993224573263
H                    -4.680866190521    -0.377583238326     3.773929948856
H                    -4.289397860781    -1.773523197277     2.740938208041
H                    -2.537134029852     0.543538180566     3.341395652489
