18
0 1 C8FH6N3
C                     0.202104968998    -0.427013226482     0.958111620308
C                     1.384226113383    -0.033897753297     1.588613931700
C                     0.769893938810    -3.284072885692     6.517117504007
C                    -0.616937044101    -1.338625166854     1.624366165365
C                     1.975077493886    -2.527670526248     6.548576612922
C                     0.184290683877    -2.962827932880     5.313205799897
C                     1.692417470931    -0.559265845861     2.836503341828
C                     0.807031177404    -1.475809860714     3.438015103075
N                    -0.320661312683    -1.844240677551     2.825093640861
N                     2.131113437946    -1.793209399155     5.454154906973
N                     1.025842604325    -2.065582719853     4.698190118872
F                     2.835728795728    -0.166002499396     3.423452040402
H                    -0.072509052055    -0.038040417091    -0.017227829769
H                     2.075197880354     0.671434814234     1.136398608809
H                     0.387747044468    -3.963846278616     7.266318116163
H                    -1.549856669993    -1.680343578481     1.180997949880
H                     2.731266848919    -2.490614907946     7.323431371118
H                    -0.731906444731    -3.275953328158     4.837393623790
