19   
torsion grid (-165,)
C        3.0033483322   -0.1214155553    0.0239857421
C        0.0488988102   -0.6965975409   -0.5281835063
C       -2.3086277988   -0.0334683908   -1.0883633675
C       -1.1031979341    1.0386025292    0.8682395916
C       -1.2964261890   -0.2508465469    0.0396314392
N        2.2784254438   -1.2962356745    0.1066123113
N        0.9240155570   -1.2320532923    0.4233281019
O        2.6325447393    0.9497448392    0.4684573931
O        0.3658969174   -0.6275718329   -1.7054225825
H        3.9929426062   -0.2893451829   -0.4398077715
H       -1.9649277930    0.7531837158   -1.7649228803
H       -3.2764171372    0.2622096055   -0.6708413601
H       -2.4484065039   -0.9416131112   -1.6811323313
H       -0.6932145445    1.8371819068    0.2431314394
H       -0.4204322906    0.9021614405    1.7122486800
H       -2.0677754773    1.3706956351    1.2646124136
H       -1.6577765828   -1.0434993575    0.7083128201
H        2.5212080071   -2.0469872315   -0.5303123376
H        0.7551936488   -1.0145378681    1.3984278630
19   
torsion grid (-150,)
C        3.0211234987   -0.1917026331    0.2193205317
C        0.0760486491   -0.5913373089   -0.5519418187
C       -2.3517852253   -0.1265349899   -1.0192563905
C       -1.0894970424    1.1452415872    0.7846983292
C       -1.2662112269   -0.2063785376    0.0580074531
N        2.2740756283   -1.3395772010    0.0330424827
N        0.9103600527   -1.3077841059    0.3116733566
O        2.6491095449    0.7743551717    0.8610246186
O        0.4284107977   -0.3162757548   -1.6885945061
H        4.0258362381   -0.2842792743   -0.2327438996
H       -2.0709135282    0.5973821600   -1.7881902608
H       -3.3018628536    0.1853154515   -0.5736989078
H       -2.5017982036   -1.0937815451   -1.5087398781
H       -0.8307340553    1.9284413033    0.0659282080
H       -0.2938708818    1.1099824785    1.5347589543
H       -2.0241531839    1.4262470697    1.2802979366
H       -1.5419697796   -0.9681973849    0.7989995165
H        2.5293104330   -1.9557189945   -0.7306499687
H        0.7076919179   -1.2714308938    1.3041796457
19   
torsion grid (-135,)
C        3.0485037353   -0.3013309877    0.2992537164
C        0.1111393036   -0.4686012200   -0.5430410417
C       -2.3523702251   -0.2164301420   -0.9654460647
C       -1.1352923929    1.2594406098    0.7192884164
C       -1.2373093892   -0.1425473056    0.0844784702
N        2.2680653217   -1.3843273918   -0.0607118220
N        0.9015408463   -1.3447365739    0.2064753120
O        2.6979262593    0.5717280594    1.0725772601
O        0.4934418379   -0.0306174068   -1.6174276938
H        4.0567639015   -0.3610878117   -0.1502011455
H       -2.1443196546    0.4744681066   -1.7865326703
H       -3.3129342733    0.0538009273   -0.5151081789
H       -2.4411723684   -1.2239087609   -1.3844567734
H       -0.9463377540    2.0092140583   -0.0544135667
H       -0.3205014893    1.3149070859    1.4477591039
H       -2.0734331072    1.5102776794    1.2246676475
H       -1.4438725859   -0.8723475698    0.8780684271
H        2.5124223423   -1.8867477111   -0.9067888334
H        0.6874724981   -1.4446851890    1.1922819463
19   
torsion grid (-120,)
C        3.0987137407   -0.4508053249    0.3474825258
C        0.1544115833   -0.3371534042   -0.4999736314
C       -2.3154107033   -0.3095634575   -0.9136644523
C       -1.2238277256    1.3709780021    0.6624651037
C       -1.2087291078   -0.0713025495    0.1249968212
N        2.2579317121   -1.4241469811   -0.1622168134
N        0.8958064171   -1.3462433312    0.1179249321
O        2.7989122398    0.3146155059    1.2455087886
O        0.5709821536    0.2384331568   -1.4942541244
H        4.1008079452   -0.4981117977   -0.1171012989
H       -2.1650132327    0.3402859913   -1.7800421828
H       -3.2953221152   -0.0889444266   -0.4781242528
H       -2.3217388154   -1.3477855797   -1.2615175647
H       -1.0819144722    2.0790617148   -0.1586044735
H       -0.4257355886    1.5337942598    1.3935086692
H       -2.1841202062    1.5816633409    1.1440100392
H       -1.3587301705   -0.7625521498    0.9642626138
H        2.4717400926   -1.8021094496   -1.0785294267
H        0.6730357379   -1.5770384952    1.0792500979
19   
torsion grid (-105,)
C        3.1451187462   -0.5821534181    0.3944842526
C        0.2027320092   -0.1885203717   -0.4246347466
C       -2.2498798937   -0.3941560616   -0.8387319170
C       -1.3300588372    1.4815793340    0.6215142352
C       -1.1778517783    0.0167377541    0.1865590382
N        2.2475525888   -1.4173060111   -0.2468774678
N        0.8926116191   -1.3035522584    0.0535185388
O        2.8929736976    0.0561917805    1.3998556180
O        0.6577307232    0.5015762826   -1.3250573706
H        4.1423745968   -0.6201305123   -0.0813937760
H       -2.1661171508    0.2204807280   -1.7397526154
H       -3.2495933414   -0.2534302482   -0.4152522861
H       -2.1462230692   -1.4448728875   -1.1286331163
H       -1.2096239152    2.1446373852   -0.2391900415
H       -0.5787614384    1.7548226740    1.3688413713
H       -2.3227159074    1.6440278306    1.0535961433
H       -1.2767731262   -0.6287396416    1.0688797697
H        2.4379792189   -1.6647415502   -1.2116332567
H        0.6576929931   -1.6503765098    0.9761140774
19   
torsion grid (-90,)
C        3.1435916762   -0.7204613114    0.4049544444
C        0.2399423900   -0.0721309417   -0.3785184106
C       -2.1927558144   -0.4725240412   -0.7676483170
C       -1.4143211145    1.5618006013    0.5550555024
C       -1.1523119867    0.0889138064    0.2215921071
N        2.2211362282   -1.4128157376   -0.3590265557
N        0.8675100462   -1.2793744951   -0.0615221340
O        2.9012367148   -0.2179126418    1.4868535226
O        0.7462917036    0.7191226159   -1.1600118007
H        4.1469242240   -0.7383598042   -0.0592391635
H       -2.1583976152    0.0822736285   -1.7104555811
H       -3.1997019447   -0.3749545262   -0.3492607739
H       -2.0130201562   -1.5301513109   -0.9846533093
H       -1.3450596285    2.1739251400   -0.3477253176
H       -0.6843639602    1.9411269347    1.2762680074
H       -2.4154745025    1.6774478899    0.9825670871
H       -1.2052940124   -0.5011697407    1.1460794280
H        2.4186178069   -1.5332951097   -1.3462417864
H        0.6039805775   -1.7383521714    0.8026665314
19   
torsion grid (-75,)
C        3.1306350305   -0.8400173127    0.4284045845
C        0.2784611902    0.0420959968   -0.3300148188
C       -2.1359791090   -0.5470788798   -0.6682137744
C       -1.4875166176    1.6274760190    0.4886376071
C       -1.1247949627    0.1577448719    0.2593787160
N        2.2110839526   -1.3644242881   -0.4612144869
N        0.8525360318   -1.2259621227   -0.1915918192
O        2.8696161703   -0.4983935586    1.5673272372
O        0.8393789359    0.9237874701   -0.9621784850
H        4.1487062312   -0.8309145184   -0.0030085978
H       -2.1462630053   -0.0700972847   -1.6537868666
H       -3.1436891719   -0.4758568561   -0.2465552189
H       -1.8959313103   -1.6056199129   -0.8051883299
H       -1.4861429643    2.1754963812   -0.4570862746
H       -0.7704943002    2.1130418755    1.1562099572
H       -2.4841409678    1.7012248926    0.9356004636
H       -1.1271940452   -0.3637143021    1.2262527166
H        2.4431779945   -1.3521773558   -1.4480503077
H        0.5415460798   -1.8031709066    0.5814496487
19   
torsion grid (-60,)
C        3.0845226704   -0.9503851594    0.4601604408
C        0.3153781729    0.1400844208   -0.2980346650
C       -2.0890479895   -0.6114702037   -0.5558410518
C       -1.5399119596    1.6789660255    0.4070424284
C       -1.0957177884    0.2197106706    0.2821383740
N        2.2149886977   -1.2899637979   -0.5590905622
N        0.8438716752   -1.1557295423   -0.3527190359
O        2.7545873197   -0.7934789107    1.6217700409
O        0.9345238420    1.0894829036   -0.7522910986
H        4.1293600790   -0.9039677160    0.1013560976
H       -2.1418025868   -0.2282348398   -1.5803361415
H       -3.0902521873   -0.5452569106   -0.1185177248
H       -1.8117640615   -1.6682181016   -0.6071610383
H       -1.5992410452    2.1514524490   -0.5774282787
H       -0.8352730411    2.2573210742    1.0093852722
H       -2.5268854670    1.7292013055    0.8780475768
H       -1.0464633678   -0.2209435568    1.2879417071
H        2.5103968203   -1.1216838492   -1.5140995331
H        0.4795195626   -1.8380699339    0.3026817168
19   
torsion grid (-45,)
C        3.0349200811   -1.0580326377    0.4470700049
C        0.3495823247    0.2264217482   -0.2736268755
C       -2.0387146317   -0.6764328072   -0.4523832031
C       -1.5940773952    1.7112278442    0.2975888982
C       -1.0729745749    0.2711256747    0.2854856700
N        2.2268320837   -1.1998470044   -0.6650793613
N        0.8475541697   -1.0592707523   -0.5199641373
O        2.6326307452   -1.0835246454    1.5963138118
O        1.0176972115    1.2138333540   -0.5386001786
H        4.1017178568   -0.9855595284    0.1657793381
H       -2.1014113991   -0.4184818307   -1.5146199879
H       -3.0415802808   -0.5859613882   -0.0236485274
H       -1.7473317528   -1.7285192510   -0.3809014151
H       -1.7071486398    2.0922735936   -0.7221175599
H       -0.9066445793    2.3755143922    0.8248856179
H       -2.5704230612    1.7498270531    0.7911150836
H       -0.9841763906   -0.0750759341    1.3255638063
H        2.5847397736   -0.8802836239   -1.5580564039
H        0.4316307737   -1.8304075213   -0.0108320766
19   
torsion grid (-30,)
C        2.9932670937   -1.2085188789    0.4246869355
C        0.3829727627    0.2870032140   -0.1840086676
C       -1.9861546819   -0.7291368311   -0.3298604116
C       -1.6346592378    1.7292384745    0.2016431533
C       -1.0604939135    0.3121611540    0.3241711334
N        2.2332897359   -1.1236322490   -0.7283183926
N        0.8551066007   -0.9552767643   -0.6114249954
O        2.5396032693   -1.4248979774    1.5334463270
O        1.0981289766    1.2766813701   -0.2457600623
H        4.0731824691   -1.1225480926    0.2034126093
H       -2.0179267418   -0.6044702680   -1.4170543529
H       -3.0038940595   -0.6042301369    0.0522448827
H       -1.6950595211   -1.7625102211   -0.1139190960
H       -1.7567253629    2.0091662580   -0.8500913485
H       -0.9737479495    2.4616139575    0.6679877101
H       -2.6155359048    1.7781614146    0.6849496782
H       -0.9741455295    0.0684450893    1.3928943656
H        2.6400651602   -0.6465277029   -1.5253490267
H        0.3796028391   -1.7914964487   -0.2972451473
19   
torsion grid (-15,)
C        2.9389881538   -1.3501936337    0.3498046546
C        0.3960020044    0.3450198430   -0.0838149413
C       -1.9443462128   -0.7634774964   -0.2152654242
C       -1.6756774017    1.7431344181    0.0885707061
C       -1.0677911859    0.3589003579    0.3628776401
N        2.2252372727   -1.0205344903   -0.7892583546
N        0.8497130913   -0.8283157830   -0.6819660877
O        2.4387291088   -1.7609937353    1.3807045557
O        1.1425112176    1.3058226855    0.0455396486
H        4.0282780535   -1.2600724769    0.1828903448
H       -1.9513296211   -0.7444518897   -1.3101376942
H       -2.9762121086   -0.6341401979    0.1249757964
H       -1.6313273500   -1.7606097563    0.1146989934
H       -1.7852006312    1.9115840947   -0.9885764990
H       -1.0405203773    2.5329922147    0.4928866435
H       -2.6672946229    1.8158491989    0.5461786974
H       -1.0091539859    0.2234274283    1.4514898294
H        2.6731204295   -0.4071480352   -1.4614408161
H        0.3350484229   -1.6875155722   -0.5414172463
19   
torsion grid (0,)
C        2.9322979522   -1.4309866658    0.2255600350
C        0.4218824869    0.4068109220    0.0287988472
C       -1.8759052171   -0.7957240938   -0.0808946591
C       -1.6909555691    1.7376344116   -0.0383197776
C       -1.0591579147    0.4079234570    0.4098852682
N        2.2487680846   -0.8657436151   -0.8365059156
N        0.8741963365   -0.6754388955   -0.7173090219
O        2.4034448256   -2.0333784917    1.1419074473
O        1.1777611478    1.3259155401    0.3177790360
H        4.0261429069   -1.3289715765    0.1011122114
H       -1.8914011342   -0.8554306306   -1.1748636283
H       -2.9131291816   -0.6971141590    0.2534353683
H       -1.5037047284   -1.7450479157    0.3211416181
H       -1.7433048923    1.7929035151   -1.1316015470
H       -1.1028930649    2.5843581131    0.3209569821
H       -2.7093474636    1.8231877209    0.3538510736
H       -1.0443967117    0.3945203441    1.5068434830
H        2.7170694739   -0.1340054553   -1.3599463629
H        0.3462530105   -1.5377101995   -0.7234496005
19   
torsion grid (15,)
C        2.8344094456   -0.9787961337   -1.2360494356
C        0.1080174892   -0.7247588294    0.2478621051
C       -1.4586347075    1.0486632238   -0.8102779301
C       -2.0174046955   -0.0985217120    1.3910202824
C       -1.3202518223   -0.2317934968    0.0241306102
N        2.4338580822   -0.3045195260   -0.0965041170
N        1.1285554912    0.1777780753   -0.0331361344
O        2.2384378878   -0.9494109855   -2.2975786644
O        0.3564058754   -1.8262986695    0.7211524234
H        3.8019333119   -1.4913329156   -1.0827987685
H       -1.0340868580    1.9186788101   -0.2955999497
H       -2.5177018375    1.2655531473   -0.9800456078
H       -0.9864176341    0.9515353937   -1.7942261887
H       -1.5708584715    0.7119510856    1.9780930861
H       -1.9304576907   -1.0267789542    1.9603995413
H       -3.0793060739    0.1293122185    1.2531648259
H       -1.7963033701   -1.0563924338   -0.5182039810
H        2.7926719415   -0.6300310596    0.7944811930
H        0.9543024768    0.9422385133   -0.6719861214
19   
torsion grid (30,)
C        2.8502836371   -0.8356448261   -1.2117283126
C        0.0868812232   -0.8075012806    0.2014784554
C       -1.4503880890    0.9585966852   -0.8862305801
C       -1.9422107676   -0.0127547955    1.4184167794
C       -1.3302649157   -0.2690480748    0.0278421442
N        2.4212533967   -0.3410659816    0.0062748376
N        1.1138767064    0.1299003953    0.1103719959
O        2.2792914789   -0.6439237651   -2.2703376179
O        0.3214671417   -1.9706277781    0.5007965971
H        3.8145074019   -1.3678246762   -1.1155936948
H       -1.0172660967    1.8559997722   -0.4276048336
H       -2.5060817994    1.1803719043   -1.0705610002
H       -0.9707700515    0.7918649653   -1.8563524914
H       -1.4200596201    0.8024771734    1.9312731597
H       -1.8802786260   -0.9092402197    2.0409581926
H       -2.9958813895    0.2684958757    1.3207207157
H       -1.8690233606   -1.1037125817   -0.4317259428
H        2.7617041536   -0.7941100065    0.8471784280
H        0.9565946732    0.9754626856   -0.4227437314
19   
torsion grid (45,)
C        2.8533755459   -0.7143530415   -1.1949998340
C        0.0881014038   -0.8827600333    0.1417369814
C       -1.4256120713    0.8655053861   -0.9676800573
C       -1.8516120015    0.0689073354    1.4189786631
C       -1.3187239493   -0.3054721408    0.0228238812
N        2.4252755082   -0.3861697736    0.0783302147
N        1.1154637460    0.0573532534    0.2502017941
O        2.2777310771   -0.3921258319   -2.2186692954
O        0.3184501747   -2.0799404153    0.2340302026
H        3.8213125982   -1.2480090475   -1.1712044086
H       -0.9776409725    1.7843495085   -0.5691201022
H       -2.4788729169    1.0906661069   -1.1620849014
H       -0.9448455885    0.6326990807   -1.9225983785
H       -1.2763339792    0.8934478914    1.8532957190
H       -1.7977150681   -0.7843249843    2.1014273090
H       -2.8974925881    0.3856603361    1.3490460579
H       -1.9103086596   -1.1428889386   -0.3578517901
H        2.7791921727   -0.9369976055    0.8525601795
H        0.9609689578    0.9794052105   -0.1386873269
19   
torsion grid (60,)
C        2.7981033044   -0.6375391808   -1.1308232327
C        0.0203890354   -0.9944647902    0.1165764486
C       -1.4457673123    0.7320328514   -1.0330359865
C       -1.8241556924    0.1472143757    1.4224834460
C       -1.3667894381   -0.3644911091    0.0446315553
N        2.3653511148   -0.5240536710    0.1774554023
N        1.0582819380   -0.1082886825    0.4195928332
O        2.2277464390   -0.1496177551   -2.0897114697
O        0.2316016533   -2.1913106877   -0.0122922668
H        3.7635946110   -1.1728256917   -1.1921814443
H       -0.9048554663    1.6389922358   -0.7376133018
H       -2.4898752956    1.0197651952   -1.1919195764
H       -1.0317643505    0.3896946600   -1.9854485889
H       -1.2059552817    0.9828296605    1.7674171808
H       -1.7739607859   -0.6445167518    2.1762471108
H       -2.8598089318    0.4981990175    1.3656514275
H       -2.0136889801   -1.1942317144   -0.2525938707
H        2.7212675422   -1.1904122976    0.8536801803
H        0.9160423395    0.8744141441    0.2192200249
19   
torsion grid (75,)
C        2.7273094195   -0.4526991082   -1.0715763396
C       -0.0577837988   -1.0030939774    0.0770372455
C       -1.5231075985    0.6725822847   -1.0818400324
C       -1.7963798167    0.2977416869    1.4276034469
C       -1.4302814235   -0.3393888463    0.0766147913
N        2.2920530978   -0.5823139280    0.2347481207
N        0.9885653793   -0.2065838321    0.5492925267
O        2.1674976479    0.2166112942   -1.9207199020
O        0.1406336853   -2.1546870962   -0.2812428197
H        3.6859339022   -0.9798637163   -1.2320476122
H       -0.8610766036    1.5311229598   -0.9251431983
H       -2.5473977063    1.0505825117   -1.1628274823
H       -1.2466416045    0.2117303108   -2.0337939390
H       -1.1658017111    1.1629251863    1.6605029833
H       -1.7000511757   -0.4191354472    2.2487554561
H       -2.8331195752    0.6487596909    1.4021334884
H       -2.1222964417   -1.1618141941   -0.1238764419
H        2.6372330898   -1.3702827724    0.7715759018
H        0.8579961049    0.7978433498    0.5597403863
19   
torsion grid (90,)
C        2.7714405762   -0.2902447431   -1.0117586606
C       -0.0253102197   -1.0243980447   -0.0002909769
C       -1.5457601317    0.5733123672   -1.1428921723
C       -1.6603528297    0.3986275179    1.3971955597
C       -1.3895722068   -0.3499857059    0.0828638934
N        2.3269542941   -0.6696392070    0.2418551768
N        1.0257220026   -0.3439157641    0.6164097422
O        2.2248456243    0.5421424378   -1.7124476942
O        0.1627854323   -2.0921067490   -0.5656525746
H        3.7239561468   -0.7881401807   -1.2711384373
H       -0.8134609975    1.3870075505   -1.1234373256
H       -2.5485768963    1.0127770819   -1.1529807835
H       -1.4009709229    0.0162529329   -2.0720626348
H       -1.0488210094    1.3035618632    1.4944814201
H       -1.4760659342   -0.2323558072    2.2719654741
H       -2.7056851886    0.7221263717    1.4262658388
H       -2.1053565205   -1.1719111274   -0.0099372483
H        2.6536121186   -1.5563819144    0.6097127238
H        0.9066611553    0.6389880815    0.8282939286
19   
torsion grid (105,)
C        2.8300511602   -0.2365545700   -0.9031027879
C       -0.0154980429   -1.0380125382   -0.0882974334
C       -1.6377804303    0.4659945618   -1.1990730562
C       -1.5538575690    0.4754031506    1.3455804150
C       -1.3747109239   -0.3653031792    0.0732859673
N        2.3363799561   -0.8009509552    0.2592600802
N        1.0351145387   -0.4938411701    0.6505178054
O        2.3315299027    0.7188783863   -1.4699580406
O        0.1611385255   -2.0086983197   -0.8110243395
H        3.7733325467   -0.7195606724   -1.2181384301
H       -0.9068343940    1.2757679316   -1.2947713019
H       -2.6389103765    0.9073575300   -1.1573392220
H       -1.5690574009   -0.1609147979   -2.0912417643
H       -0.9513652336    1.3919108632    1.3228357344
H       -1.2984701547   -0.0852161313    2.2501913042
H       -2.5977688757    0.7928351891    1.4310502162
H       -2.0904211499   -1.1935596867    0.0937768762
H        2.6209494655   -1.7487281996    0.4807558296
H        0.9389730668    0.4479501378    1.0089312882
19   
torsion grid (120,)
C        2.8851802349   -0.1737729902   -0.7629200611
C       -0.0085915030   -0.9969397833   -0.1682071720
C       -1.7689884515    0.3924366488   -1.2228443737
C       -1.4723157571    0.5675028557    1.2968469385
C       -1.3706095850   -0.3478966334    0.0686213571
N        2.3332688535   -0.8939374167    0.2821040155
N        1.0286085755   -0.6003615206    0.6745894267
O        2.4412496320    0.8789316579   -1.1838912593
O        0.1719764111   -1.8537614511   -1.0226682383
H        3.8215533501   -0.6380772808   -1.1231661683
H       -1.0826289059    1.2229204386   -1.4199042395
H       -2.7811303238    0.7982925291   -1.1259343166
H       -1.7415201053   -0.2846125808   -2.0791682294
H       -0.8633222984    1.4725080304    1.1807797776
H       -1.1768210537    0.0588740667    2.2202782889
H       -2.5072104515    0.9005321187    1.4217063023
H       -2.0589761154   -1.1903364041    0.2022947519
H        2.5702441981   -1.8776722873    0.3503161437
H        0.9502240871    0.2832555202    1.1613978697
19   
torsion grid (135,)
C        2.9403364174   -0.1564999519   -0.6433779832
C       -0.0168014421   -0.9521700602   -0.2639469317
C       -1.9467959111    0.2977892211   -1.2225750525
C       -1.4045554077    0.6450670237    1.2367943717
C       -1.3808132799   -0.3390753176    0.0586862256
N        2.3124926001   -1.0032923853    0.2530586205
N        1.0088276566   -0.7062564342    0.6466875076
O        2.5629684280    0.9716500040   -0.9029370126
O        0.1659548047   -1.6867483866   -1.2255245680
H        3.8682462652   -0.6062002440   -1.0420975942
H       -1.3526892016    1.1703404497   -1.5149619326
H       -2.9774512027    0.6262555242   -1.0549826864
H       -1.9332772490   -0.4169181737   -2.0474166699
H       -0.7836422959    1.5266541221    1.0371636401
H       -1.0760288450    0.1834365956    2.1741279002
H       -2.4259307438    1.0038781572    1.3958562413
H       -2.0134642664   -1.1989827439    0.3140267681
H        2.4964127240   -1.9969035634    0.1668425206
H        0.9521311404    0.1108345152    1.2403291424
19   
torsion grid (150,)
C        2.9822308442   -0.1191820486   -0.4808767380
C       -0.0055236393   -0.8989723547   -0.3366848692
C       -2.0690428008    0.2142797256   -1.2048602706
C       -1.3204518444    0.7429495278    1.1652654809
C       -1.3676090339   -0.3181340956    0.0540338940
N        2.3035951241   -1.0894368922    0.2331689703
N        0.9943387865   -0.8262634166    0.6337901066
O        2.6368212141    1.0466475128   -0.5540717956
O        0.1965029011   -1.4814814817   -1.3933564421
H        3.9157605230   -0.5170388132   -0.9193549478
H       -1.5411199087    1.0882949700   -1.6007535484
H       -3.0938807911    0.5135923349   -0.9636686183
H       -2.0966725206   -0.5465465244   -1.9865549847
H       -0.6749330850    1.5832863681    0.8859483371
H       -0.9775262474    0.3358160340    2.1229432433
H       -2.3241179622    1.1437252330    1.3354404073
H       -1.9423401752   -1.1785139095    0.4235972778
H        2.4703678119   -2.0593710093   -0.0108279932
H        0.9408371800   -0.0967515494    1.3325106604
19   
torsion grid (165,)
C        2.9932214161   -0.1011248388   -0.3580409123
C        0.0103351951   -0.8347660914   -0.4290107073
C       -2.1660149816    0.1420293547   -1.1944317383
C       -1.2425151582    0.8314348944    1.0688298962
C       -1.3499562520   -0.2984499986    0.0270980657
N        2.2947301960   -1.1645094382    0.1833697671
N        0.9724797394   -0.9640661784    0.5772076341
O        2.6464820931    1.0634763170   -0.2743391410
O        0.2463663334   -1.2148410258   -1.5664500200
H        3.9422996139   -0.4324040860   -0.8180815748
H       -1.7033533366    1.0095079085   -1.6757955396
H       -3.1789708634    0.4190727853   -0.8858263859
H       -2.2281515577   -0.6563042948   -1.9360041859
H       -0.5975947006    1.6397787856    0.7092158957
H       -0.8589281494    0.4850590911    2.0351418893
H       -2.2342912407    1.2516466503    1.2603766454
H       -1.8606115858   -1.1512065556    0.4958014975
H        2.4783421966   -2.0892224378   -0.1896873077
H        0.8981497030   -0.3648113084    1.3891854071
19   
torsion grid (180,)
C        2.9838283888   -0.0766175036   -0.2012402932
C        0.0153304849   -0.7603947706   -0.5053254411
C       -2.2589033361    0.0704076104   -1.1588756798
C       -1.1704376671    0.9392947054    0.9599450013
C       -1.3373743771   -0.2709069708    0.0162642440
N        2.2766335571   -1.2202152801    0.1219745087
N        0.9385110032   -1.1013787167    0.4882323238
O        2.6221892702    1.0552114785    0.0649476243
O        0.2894187935   -0.9031652434   -1.6871346217
H        3.9526467189   -0.3212927347   -0.6745814558
H       -1.8549875792    0.9074729098   -1.7354883641
H       -3.2492838739    0.3507385536   -0.7862775527
H       -2.3668908910   -0.7771111268   -1.8394481667
H       -0.5945058442    1.7337831579    0.4763041510
H       -0.6664367397    0.6853448687    1.8985536245
H       -2.1543453504    1.3387962028    1.2236564148
H       -1.7777411728   -1.0989939384    0.5881468350
H        2.4949951424   -2.0701410250   -0.3860757995
H        0.8177304768   -0.7016196129    1.4103866150
