
  -OEChem-05262117483D

 32 34  0     1  0  0  0  0  0999 V2000
    0.1021    0.3347   -2.2113 C   0  0  0  0  0  0  0  0  0  0  0  0
   -0.3017   -0.3295   -1.0459 C   0  0  0  0  0  0  0  0  0  0  0  0
   -0.1358   -0.2468   -3.4558 C   0  0  0  0  0  0  0  0  0  0  0  0
   -0.9393   -1.5643   -1.1504 C   0  0  0  0  0  0  0  0  0  0  0  0
   -4.5554   -6.3301   -0.9550 C   0  0  0  0  0  0  0  0  0  0  0  0
   -6.2566   -4.6665   -0.8304 C   0  0  0  0  0  0  0  0  0  0  0  0
   -0.7757   -1.4920   -3.5726 C   0  0  0  0  0  0  0  0  0  0  0  0
   -1.1793   -2.1554   -2.4009 C   0  0  0  0  0  0  0  0  0  0  0  0
   -5.8667   -5.9945   -0.6216 C   0  0  0  0  0  0  0  0  0  0  0  0
   -4.1688   -4.1799   -1.6191 C   0  0  0  0  0  0  0  0  0  0  0  0
   -0.9831   -2.1020   -4.9465 C   0  0  0  0  0  0  0  0  0  0  0  0
   -2.0265   -3.2229   -4.9549 C   0  0  0  0  0  0  0  0  0  0  0  0
   -1.7608   -4.1939   -3.8042 C   0  0  0  0  0  0  0  0  0  0  0  0
   -1.9118   -3.4877   -2.4486 C   0  0  2  0  0  0  0  0  0  0  0  0
   -3.6997   -5.4372   -1.4553 N   0  0  0  0  0  0  0  0  0  0  0  0
   -5.4237   -3.7558   -1.3236 N   0  0  0  0  0  0  0  0  0  0  0  0
   -3.3226   -3.2427   -2.1209 N   0  0  0  0  0  0  0  0  0  0  0  0
   -6.9796   -7.1800    0.0263 Cl  0  0  0  0  0  0  0  0  0  0  0  0
    0.5976    1.3002   -2.1475 H   0  0  0  0  0  0  0  0  0  0  0  0
   -0.1201    0.1124   -0.0697 H   0  0  0  0  0  0  0  0  0  0  0  0
    0.1769    0.2718   -4.3603 H   0  0  0  0  0  0  0  0  0  0  0  0
   -1.2617   -2.0865   -0.2517 H   0  0  0  0  0  0  0  0  0  0  0  0
   -4.1872   -7.3457   -0.8163 H   0  0  0  0  0  0  0  0  0  0  0  0
   -7.2670   -4.3385   -0.5898 H   0  0  0  0  0  0  0  0  0  0  0  0
   -1.2532   -1.3148   -5.6592 H   0  0  0  0  0  0  0  0  0  0  0  0
   -0.0219   -2.5083   -5.2916 H   0  0  0  0  0  0  0  0  0  0  0  0
   -3.0338   -2.8014   -4.8481 H   0  0  0  0  0  0  0  0  0  0  0  0
   -2.0034   -3.7474   -5.9160 H   0  0  0  0  0  0  0  0  0  0  0  0
   -2.4391   -5.0504   -3.8304 H   0  0  0  0  0  0  0  0  0  0  0  0
   -0.7388   -4.5878   -3.8800 H   0  0  0  0  0  0  0  0  0  0  0  0
   -1.5149   -4.1447   -1.6688 H   0  0  0  0  0  0  0  0  0  0  0  0
   -3.6913   -2.3031   -2.1825 H   0  0  0  0  0  0  0  0  0  0  0  0
  1  2  1  0  0  0  0
  1  3  2  0  0  0  0
  1 19  1  0  0  0  0
  2  4  2  0  0  0  0
  2 20  1  0  0  0  0
  3  7  1  0  0  0  0
  3 21  1  0  0  0  0
  4  8  1  0  0  0  0
  4 22  1  0  0  0  0
  5  9  1  0  0  0  0
  5 15  2  0  0  0  0
  5 23  1  0  0  0  0
  6  9  2  0  0  0  0
  6 16  1  0  0  0  0
  6 24  1  0  0  0  0
  7  8  2  0  0  0  0
  7 11  1  0  0  0  0
  8 14  1  0  0  0  0
  9 18  1  0  0  0  0
 10 15  1  0  0  0  0
 10 16  2  0  0  0  0
 10 17  1  0  0  0  0
 11 12  1  0  0  0  0
 11 25  1  0  0  0  0
 11 26  1  0  0  0  0
 12 13  1  0  0  0  0
 12 27  1  0  0  0  0
 12 28  1  0  0  0  0
 13 14  1  0  0  0  0
 13 29  1  0  0  0  0
 13 30  1  0  0  0  0
 14 17  1  0  0  0  0
 14 31  1  0  0  0  0
 17 32  1  0  0  0  0
M  END
$$$$
