52
1 1 C22ClH27NO
C                    -1.339189253886    -5.038797522944     3.175926066295
C                    -2.609109427857    -4.709468552139     2.688412983003
C                    -0.212734736841    -4.873858336360     2.363498667786
C                    -2.750770421159    -4.209247685599     1.392344517311
C                    -0.353480428196    -4.366756298086     1.069211798885
C                    -2.626863339150     0.528661273473     0.848078215361
C                    -2.417530031709     2.902002049991     0.422050771938
C                    -1.419838623097     0.306493233171     0.162231175126
C                    -1.621913058570    -4.027254969635     0.578275542301
C                    -1.194657209628     2.711750153086    -0.219199223856
C                    -0.692643146733     1.397097280094    -0.333373900860
C                    -3.122164360495     1.820141830958     0.967197275508
C                     3.951401342981    -1.034175473193     0.105592152911
C                     3.464519054799    -1.060192629508    -1.349426218777
C                     2.777229636241    -1.053397369694     1.093211620546
C                     2.450061454740     0.059673075628    -1.627074970589
C                     1.783841200366     0.081461603312     0.799539562715
C                     0.336795370200    -1.144149118157    -0.933912806848
C                    -0.900017027382    -1.094952153185    -0.037186647871
C                     1.270103295745     0.041183433383    -0.651093914311
C                    -0.399102647648     3.865216663727    -0.771877136242
C                    -1.777585494928    -3.430566833291    -0.791565655916
N                    -2.013262900241    -1.923192594440    -0.691763463705
O                     0.522850701321     1.257519276464    -0.937642310243
Cl                   -4.624245827095     2.099045896949     1.816969942757
H                    -1.230311603718    -5.434663193595     4.181432988384
H                    -3.486509288960    -4.854745826080     3.311575617067
H                     0.771460668485    -5.143747720398     2.734946255108
H                    -3.746328996899    -3.985834528363     1.010441203239
H                     0.524562822435    -4.249997214837     0.438010206267
H                    -3.165867539959    -0.288982515849     1.324396755849
H                    -2.820249383338     3.905221434250     0.523838759842
H                     4.540943591983    -0.123678826710     0.271762787783
H                     4.620874989430    -1.879506221643     0.295474673540
H                     4.310780361375    -0.950750876434    -2.034567468907
H                     3.021003627505    -2.039484684092    -1.574142490769
H                     2.266407640929    -2.025681509310     1.047505425962
H                     3.141503083449    -0.952322993134     2.120474869886
H                     2.939681414763     1.033817797024    -1.519690536799
H                     2.075083292321     0.007648362271    -2.655136499626
H                     0.954860635989     0.065480869600     1.514362807101
H                     2.285043897011     1.046579111839     0.931229354504
H                     0.869574160966    -2.086343479558    -0.804045527831
H                     0.037882399484    -1.073838337028    -1.987713838210
H                    -0.719569715252    -1.593247820115     0.917727191595
H                     0.585405432616     3.919008797217    -0.296558486677
H                    -0.224536843876     3.743649735639    -1.845417737004
H                    -0.917377326082     4.811899019387    -0.608398267088
H                    -0.895393399713    -3.570677538453    -1.415235485170
H                    -2.647394308944    -3.826229813195    -1.322171147628
H                    -2.874718397982    -1.768197383200    -0.156820560402
H                    -2.190569370997    -1.528532807525    -1.623905823526
