
  -OEChem-05262117483D

 51 54  0     1  0  0  0  0  0999 V2000
    5.2221   -2.9720    2.8461 C   0  0  0  0  0  0  0  0  0  0  0  0
    4.1987   -3.8626    2.4961 C   0  0  0  0  0  0  0  0  0  0  0  0
    5.6422   -2.0079    1.9261 C   0  0  0  0  0  0  0  0  0  0  0  0
    3.6034   -3.7881    1.2356 C   0  0  0  0  0  0  0  0  0  0  0  0
    5.0398   -1.9349    0.6641 C   0  0  0  0  0  0  0  0  0  0  0  0
   -0.7139   -2.9971    0.1576 C   0  0  0  0  0  0  0  0  0  0  0  0
   -2.9408   -2.0334    0.1722 C   0  0  0  0  0  0  0  0  0  0  0  0
   -0.1618   -1.7369   -0.1117 C   0  0  0  0  0  0  0  0  0  0  0  0
    4.0199   -2.8236    0.3049 C   0  0  0  0  0  0  0  0  0  0  0  0
   -2.4145   -0.7681   -0.0892 C   0  0  0  0  0  0  0  0  0  0  0  0
   -1.0182   -0.6317   -0.2271 C   0  0  0  0  0  0  0  0  0  0  0  0
   -2.0888   -3.1342    0.2970 C   0  0  0  0  0  0  0  0  0  0  0  0
    0.5854    3.5786    1.0461 C   0  0  0  0  0  0  0  0  0  0  0  0
    0.2971    3.4130   -0.4517 C   0  0  0  0  0  0  0  0  0  0  0  0
    0.3085    2.2744    1.8044 C   0  0  0  0  0  0  0  0  0  0  0  0
    1.0851    2.2364   -1.0421 C   0  0  0  0  0  0  0  0  0  0  0  0
    1.0915    1.0956    1.2116 C   0  0  0  0  0  0  0  0  0  0  0  0
    1.6608   -0.2170   -0.9048 C   0  0  0  0  0  0  0  0  0  0  0  0
    1.3404   -1.5752   -0.2594 C   0  0  2  0  0  0  0  0  0  0  0  0
    0.8365    0.9191   -0.2978 C   0  0  0  0  0  0  0  0  0  0  0  0
   -3.3002    0.4448   -0.2259 C   0  0  0  0  0  0  0  0  0  0  0  0
    3.3665   -2.7488   -1.0610 C   0  0  0  0  0  0  0  0  0  0  0  0
    1.9026   -2.7395   -0.9566 N   0  0  0  0  0  0  0  0  0  0  0  0
   -0.5757    0.6355   -0.5051 O   0  0  0  0  0  0  0  0  0  0  0  0
   -2.7764   -4.7229    0.6351 Cl  0  0  0  0  0  0  0  0  0  0  0  0
    5.6844   -3.0291    3.8282 H   0  0  0  0  0  0  0  0  0  0  0  0
    3.8651   -4.6133    3.2083 H   0  0  0  0  0  0  0  0  0  0  0  0
    6.4330   -1.3102    2.1902 H   0  0  0  0  0  0  0  0  0  0  0  0
    2.7983   -4.4662    0.9653 H   0  0  0  0  0  0  0  0  0  0  0  0
    5.3661   -1.1776   -0.0463 H   0  0  0  0  0  0  0  0  0  0  0  0
   -0.0544   -3.8537    0.2377 H   0  0  0  0  0  0  0  0  0  0  0  0
   -4.0134   -2.1620    0.2829 H   0  0  0  0  0  0  0  0  0  0  0  0
   -0.0182    4.3941    1.4612 H   0  0  0  0  0  0  0  0  0  0  0  0
    1.6381    3.8636    1.1852 H   0  0  0  0  0  0  0  0  0  0  0  0
   -0.7740    3.2372   -0.6013 H   0  0  0  0  0  0  0  0  0  0  0  0
    0.5492    4.3312   -0.9947 H   0  0  0  0  0  0  0  0  0  0  0  0
    0.5647    2.3848    2.8642 H   0  0  0  0  0  0  0  0  0  0  0  0
   -0.7633    2.0480    1.7599 H   0  0  0  0  0  0  0  0  0  0  0  0
    0.8317    2.0944   -2.0985 H   0  0  0  0  0  0  0  0  0  0  0  0
    2.1603    2.4516   -0.9927 H   0  0  0  0  0  0  0  0  0  0  0  0
    2.1688    1.2508    1.3553 H   0  0  0  0  0  0  0  0  0  0  0  0
    0.8325    0.1760    1.7448 H   0  0  0  0  0  0  0  0  0  0  0  0
    2.7243    0.0141   -0.7931 H   0  0  0  0  0  0  0  0  0  0  0  0
    1.4435   -0.2654   -1.9799 H   0  0  0  0  0  0  0  0  0  0  0  0
    1.7847   -1.5886    0.7423 H   0  0  0  0  0  0  0  0  0  0  0  0
   -3.0242    1.2158    0.5013 H   0  0  0  0  0  0  0  0  0  0  0  0
   -3.1973    0.8990   -1.2172 H   0  0  0  0  0  0  0  0  0  0  0  0
   -4.3499    0.1817   -0.0722 H   0  0  0  0  0  0  0  0  0  0  0  0
    3.7775   -1.8828   -1.6045 H   0  0  0  0  0  0  0  0  0  0  0  0
    3.6353   -3.6387   -1.6429 H   0  0  0  0  0  0  0  0  0  0  0  0
    1.4898   -2.8095   -1.8854 H   0  0  0  0  0  0  0  0  0  0  0  0
  1  2  1  0  0  0  0
  1  3  2  0  0  0  0
  1 26  1  0  0  0  0
  2  4  2  0  0  0  0
  2 27  1  0  0  0  0
  3  5  1  0  0  0  0
  3 28  1  0  0  0  0
  4  9  1  0  0  0  0
  4 29  1  0  0  0  0
  5  9  2  0  0  0  0
  5 30  1  0  0  0  0
  6  8  1  0  0  0  0
  6 12  2  0  0  0  0
  6 31  1  0  0  0  0
  7 10  2  0  0  0  0
  7 12  1  0  0  0  0
  7 32  1  0  0  0  0
  8 11  2  0  0  0  0
  8 19  1  0  0  0  0
  9 22  1  0  0  0  0
 10 11  1  0  0  0  0
 10 21  1  0  0  0  0
 11 24  1  0  0  0  0
 12 25  1  0  0  0  0
 13 14  1  0  0  0  0
 13 15  1  0  0  0  0
 13 33  1  0  0  0  0
 13 34  1  0  0  0  0
 14 16  1  0  0  0  0
 14 35  1  0  0  0  0
 14 36  1  0  0  0  0
 15 17  1  0  0  0  0
 15 37  1  0  0  0  0
 15 38  1  0  0  0  0
 16 20  1  0  0  0  0
 16 39  1  0  0  0  0
 16 40  1  0  0  0  0
 17 20  1  0  0  0  0
 17 41  1  0  0  0  0
 17 42  1  0  0  0  0
 18 19  1  0  0  0  0
 18 20  1  0  0  0  0
 18 43  1  0  0  0  0
 18 44  1  0  0  0  0
 19 23  1  0  0  0  0
 19 45  1  0  0  0  0
 20 24  1  0  0  0  0
 21 46  1  0  0  0  0
 21 47  1  0  0  0  0
 21 48  1  0  0  0  0
 22 23  1  0  0  0  0
 22 49  1  0  0  0  0
 22 50  1  0  0  0  0
 23 51  1  0  0  0  0
M  END
$$$$
