38
0 1 C15H20O3
C                     5.395701087389     0.416544635435     5.678056928699
C                     5.057671321385     1.089375181021     4.504742949425
C                     3.193197209219    -0.583358421704     5.722467120668
C                     4.462145332280    -0.426089754040     6.303616571483
C                     3.795954627162     0.923831917483     3.924301056167
C                     2.855122997621     0.067679516242     4.539710217491
C                     4.750554198866    -1.169404301623     7.569846665762
C                     0.249750095340    -0.765594183469     1.422762597066
C                     1.737503115275    -1.158430944309     1.175315914872
C                    -0.097184289049    -1.291236448038     2.837817103630
C                     2.181984703736    -1.931031651010     2.438498694557
C                     1.250753290733    -1.423494295687     3.542040155887
C                     6.043191458357     0.348065828767     9.123787499007
C                     2.444709345848     2.474410110019     2.710460061380
C                     6.075198741944    -0.944587946345     8.285038926584
O                     3.913231039344    -1.926315412038     8.054989347365
O                     1.618818213279    -0.077737412856     3.957148048736
O                     3.547695070563     1.550440722880     2.730106955975
H                     6.385653750263     0.558926537434     6.097885267479
H                     5.766545761947     1.744001993517     4.006012092449
H                     2.477961920998    -1.235170577660     6.213801180928
H                     0.131081835967     0.320613718484     1.382013681674
H                    -0.419970105355    -1.187302805297     0.667679513450
H                     1.860027822364    -1.764251234656     0.272935836073
H                     2.353560603351    -0.264842430476     1.052960623867
H                    -0.778964226704    -0.640476809679     3.391615442924
H                    -0.554841516913    -2.285157389648     2.782482206900
H                     2.012728722305    -3.008056306902     2.321433477000
H                     3.238623400265    -1.792878584022     2.682995970525
H                     1.219694440876    -2.074183680479     4.422161972267
H                     5.887049742356     1.232618890441     8.499046313449
H                     5.233641201634     0.306993739561     9.858763367356
H                     6.986703740893     0.475438587580     9.663733614084
H                     2.438992972531     2.907161681256     1.708446206308
H                     2.605360852916     3.267964472102     3.450310472064
H                     1.498849283948     1.966540156235     2.907797524717
H                     6.229802055125    -1.806126186234     8.939085977820
H                     6.906249939704    -0.909868597802     7.573541137625
