
  -OEChem-05262117483D

 51 54  0     1  0  0  0  0  0999 V2000
    5.4011   -5.7924   -2.7829 C   0  0  0  0  0  0  0  0  0  0  0  0
    5.8011   -4.5131   -3.1792 C   0  0  0  0  0  0  0  0  0  0  0  0
    4.3853   -5.9340   -1.8296 C   0  0  0  0  0  0  0  0  0  0  0  0
    5.1879   -3.3843   -2.6239 C   0  0  0  0  0  0  0  0  0  0  0  0
    3.7780   -4.8051   -1.2749 C   0  0  0  0  0  0  0  0  0  0  0  0
   -0.4119   -3.0397    0.3353 C   0  0  0  0  0  0  0  0  0  0  0  0
   -2.7450   -2.3838    0.4448 C   0  0  0  0  0  0  0  0  0  0  0  0
   -0.0474   -1.7211    0.0289 C   0  0  0  0  0  0  0  0  0  0  0  0
    4.1758   -3.5171   -1.6646 C   0  0  0  0  0  0  0  0  0  0  0  0
   -2.4071   -1.0641    0.1454 C   0  0  0  0  0  0  0  0  0  0  0  0
   -1.0495   -0.7435   -0.0601 C   0  0  0  0  0  0  0  0  0  0  0  0
   -1.7476   -3.3584    0.5402 C   0  0  0  0  0  0  0  0  0  0  0  0
    0.0146    3.6762    1.0598 C   0  0  0  0  0  0  0  0  0  0  0  0
   -0.3121    3.4354   -0.4198 C   0  0  0  0  0  0  0  0  0  0  0  0
   -0.0467    2.3659    1.8548 C   0  0  0  0  0  0  0  0  0  0  0  0
    0.6040    2.3630   -1.0236 C   0  0  0  0  0  0  0  0  0  0  0  0
    0.8653    1.2910    1.2483 C   0  0  0  0  0  0  0  0  0  0  0  0
    1.5142    0.0143   -0.8693 C   0  0  0  0  0  0  0  0  0  0  0  0
    1.4132   -1.3645   -0.1935 C   0  0  2  0  0  0  0  0  0  0  0  0
    0.5709    1.0430   -0.2437 C   0  0  0  0  0  0  0  0  0  0  0  0
   -3.4541    0.0158    0.0363 C   0  0  0  0  0  0  0  0  0  0  0  0
    3.5390   -2.2910   -1.0415 C   0  0  0  0  0  0  0  0  0  0  0  0
    2.0905   -2.4518   -0.9064 N   0  0  0  0  0  0  0  0  0  0  0  0
   -0.7971    0.5662   -0.3762 O   0  0  0  0  0  0  0  0  0  0  0  0
   -2.1984   -5.0195    0.9231 Cl  0  0  0  0  0  0  0  0  0  0  0  0
    5.8722   -6.6715   -3.2155 H   0  0  0  0  0  0  0  0  0  0  0  0
    6.5840   -4.3927   -3.9238 H   0  0  0  0  0  0  0  0  0  0  0  0
    4.0664   -6.9262   -1.5197 H   0  0  0  0  0  0  0  0  0  0  0  0
    5.4986   -2.3911   -2.9428 H   0  0  0  0  0  0  0  0  0  0  0  0
    2.9820   -4.9100   -0.5435 H   0  0  0  0  0  0  0  0  0  0  0  0
    0.3601   -3.7989    0.3902 H   0  0  0  0  0  0  0  0  0  0  0  0
   -3.7844   -2.6537    0.6071 H   0  0  0  0  0  0  0  0  0  0  0  0
   -0.6775    4.4111    1.4870 H   0  0  0  0  0  0  0  0  0  0  0  0
    1.0227    4.1063    1.1450 H   0  0  0  0  0  0  0  0  0  0  0  0
   -1.3544    3.1116   -0.5169 H   0  0  0  0  0  0  0  0  0  0  0  0
   -0.2119    4.3655   -0.9909 H   0  0  0  0  0  0  0  0  0  0  0  0
    0.2372    2.5371    2.8993 H   0  0  0  0  0  0  0  0  0  0  0  0
   -1.0776    1.9932    1.8640 H   0  0  0  0  0  0  0  0  0  0  0  0
    0.3271    2.1613   -2.0642 H   0  0  0  0  0  0  0  0  0  0  0  0
    1.6405    2.7242   -1.0282 H   0  0  0  0  0  0  0  0  0  0  0  0
    1.9157    1.5987    1.3382 H   0  0  0  0  0  0  0  0  0  0  0  0
    0.7590    0.3580    1.8101 H   0  0  0  0  0  0  0  0  0  0  0  0
    2.5405    0.3901   -0.8189 H   0  0  0  0  0  0  0  0  0  0  0  0
    1.2543   -0.0899   -1.9308 H   0  0  0  0  0  0  0  0  0  0  0  0
    1.9046   -1.3042    0.7871 H   0  0  0  0  0  0  0  0  0  0  0  0
   -3.2515    0.8311    0.7390 H   0  0  0  0  0  0  0  0  0  0  0  0
   -3.4599    0.4600   -0.9648 H   0  0  0  0  0  0  0  0  0  0  0  0
   -4.4501   -0.3831    0.2444 H   0  0  0  0  0  0  0  0  0  0  0  0
    3.9422   -2.1436   -0.0299 H   0  0  0  0  0  0  0  0  0  0  0  0
    3.8353   -1.4038   -1.6246 H   0  0  0  0  0  0  0  0  0  0  0  0
    1.6685   -2.5751   -1.8263 H   0  0  0  0  0  0  0  0  0  0  0  0
  1  2  1  0  0  0  0
  1  3  2  0  0  0  0
  1 26  1  0  0  0  0
  2  4  2  0  0  0  0
  2 27  1  0  0  0  0
  3  5  1  0  0  0  0
  3 28  1  0  0  0  0
  4  9  1  0  0  0  0
  4 29  1  0  0  0  0
  5  9  2  0  0  0  0
  5 30  1  0  0  0  0
  6  8  1  0  0  0  0
  6 12  2  0  0  0  0
  6 31  1  0  0  0  0
  7 10  2  0  0  0  0
  7 12  1  0  0  0  0
  7 32  1  0  0  0  0
  8 11  2  0  0  0  0
  8 19  1  0  0  0  0
  9 22  1  0  0  0  0
 10 11  1  0  0  0  0
 10 21  1  0  0  0  0
 11 24  1  0  0  0  0
 12 25  1  0  0  0  0
 13 14  1  0  0  0  0
 13 15  1  0  0  0  0
 13 33  1  0  0  0  0
 13 34  1  0  0  0  0
 14 16  1  0  0  0  0
 14 35  1  0  0  0  0
 14 36  1  0  0  0  0
 15 17  1  0  0  0  0
 15 37  1  0  0  0  0
 15 38  1  0  0  0  0
 16 20  1  0  0  0  0
 16 39  1  0  0  0  0
 16 40  1  0  0  0  0
 17 20  1  0  0  0  0
 17 41  1  0  0  0  0
 17 42  1  0  0  0  0
 18 19  1  0  0  0  0
 18 20  1  0  0  0  0
 18 43  1  0  0  0  0
 18 44  1  0  0  0  0
 19 23  1  0  0  0  0
 19 45  1  0  0  0  0
 20 24  1  0  0  0  0
 21 46  1  0  0  0  0
 21 47  1  0  0  0  0
 21 48  1  0  0  0  0
 22 23  1  0  0  0  0
 22 49  1  0  0  0  0
 22 50  1  0  0  0  0
 23 51  1  0  0  0  0
M  END
$$$$
