
  -OEChem-05262117483D

 45 47  0     0  0  0  0  0  0999 V2000
   -0.4411   -9.8372    5.2421 C   0  0  0  0  0  0  0  0  0  0  0  0
   -1.1311   -8.6389    5.4549 C   0  0  0  0  0  0  0  0  0  0  0  0
    0.4146   -9.9507    4.1411 C   0  0  0  0  0  0  0  0  0  0  0  0
   -0.9662   -7.5664    4.5757 C   0  0  0  0  0  0  0  0  0  0  0  0
    0.5781   -8.8775    3.2626 C   0  0  0  0  0  0  0  0  0  0  0  0
    1.3163   -6.2335    1.9663 C   0  0  0  0  0  0  0  0  0  0  0  0
   -1.0183   -5.7178    2.1611 C   0  0  0  0  0  0  0  0  0  0  0  0
    1.4742   -5.1738    1.0783 C   0  0  0  0  0  0  0  0  0  0  0  0
   -0.8553   -4.6565    1.2664 C   0  0  0  0  0  0  0  0  0  0  0  0
   -0.1094   -7.6674    3.4651 C   0  0  0  0  0  0  0  0  0  0  0  0
    0.0635   -6.5304    2.5294 C   0  0  0  0  0  0  0  0  0  0  0  0
    0.3935   -4.3566    0.7046 C   0  0  0  0  0  0  0  0  0  0  0  0
    0.9439   -6.1973   -2.1731 C   0  0  0  0  0  0  0  0  0  0  0  0
    0.5037   -0.2316   -0.8330 C   0  0  0  0  0  0  0  0  0  0  0  0
    1.8323   -0.9342   -0.5277 C   0  0  0  0  0  0  0  0  0  0  0  0
   -0.5012   -1.1986   -1.4720 C   0  0  0  0  0  0  0  0  0  0  0  0
    1.6186   -2.1955    0.3227 C   0  0  0  0  0  0  0  0  0  0  0  0
   -0.6977   -2.4530   -0.6075 C   0  0  0  0  0  0  0  0  0  0  0  0
    0.6142   -3.2107   -0.2904 C   0  0  0  0  0  0  0  0  0  0  0  0
    1.2230   -3.8019   -1.5927 C   0  0  0  0  0  0  0  0  0  0  0  0
    0.4623   -4.9217   -2.1327 N   0  0  0  0  0  0  0  0  0  0  0  0
    2.0793   -6.5394   -1.8643 O   0  0  0  0  0  0  0  0  0  0  0  0
   -0.5684  -10.6723    5.9261 H   0  0  0  0  0  0  0  0  0  0  0  0
   -1.7911   -8.5360    6.3127 H   0  0  0  0  0  0  0  0  0  0  0  0
    0.9488  -10.8802    3.9604 H   0  0  0  0  0  0  0  0  0  0  0  0
   -1.4857   -6.6311    4.7666 H   0  0  0  0  0  0  0  0  0  0  0  0
    1.2239   -8.9868    2.3955 H   0  0  0  0  0  0  0  0  0  0  0  0
    2.1826   -6.8318    2.2348 H   0  0  0  0  0  0  0  0  0  0  0  0
   -2.0097   -5.9352    2.5502 H   0  0  0  0  0  0  0  0  0  0  0  0
    2.4598   -5.0017    0.6578 H   0  0  0  0  0  0  0  0  0  0  0  0
   -1.7320   -4.0748    1.0040 H   0  0  0  0  0  0  0  0  0  0  0  0
    0.1855   -6.9155   -2.5382 H   0  0  0  0  0  0  0  0  0  0  0  0
    0.6684    0.6334   -1.4858 H   0  0  0  0  0  0  0  0  0  0  0  0
    0.0799    0.1561    0.1037 H   0  0  0  0  0  0  0  0  0  0  0  0
    2.3388   -1.1900   -1.4666 H   0  0  0  0  0  0  0  0  0  0  0  0
    2.5056   -0.2527    0.0051 H   0  0  0  0  0  0  0  0  0  0  0  0
   -1.4696   -0.7025   -1.6052 H   0  0  0  0  0  0  0  0  0  0  0  0
   -0.1600   -1.4710   -2.4785 H   0  0  0  0  0  0  0  0  0  0  0  0
    2.5780   -2.6909    0.5050 H   0  0  0  0  0  0  0  0  0  0  0  0
    1.2335   -1.9017    1.3072 H   0  0  0  0  0  0  0  0  0  0  0  0
   -1.1517   -2.1372    0.3392 H   0  0  0  0  0  0  0  0  0  0  0  0
   -1.4266   -3.1234   -1.0813 H   0  0  0  0  0  0  0  0  0  0  0  0
    2.2269   -4.1831   -1.4053 H   0  0  0  0  0  0  0  0  0  0  0  0
    1.3132   -3.0291   -2.3601 H   0  0  0  0  0  0  0  0  0  0  0  0
   -0.5141   -4.7870   -2.3596 H   0  0  0  0  0  0  0  0  0  0  0  0
  1  2  1  0  0  0  0
  1  3  2  0  0  0  0
  1 23  1  0  0  0  0
  2  4  2  0  0  0  0
  2 24  1  0  0  0  0
  3  5  1  0  0  0  0
  3 25  1  0  0  0  0
  4 10  1  0  0  0  0
  4 26  1  0  0  0  0
  5 10  2  0  0  0  0
  5 27  1  0  0  0  0
  6  8  2  0  0  0  0
  6 11  1  0  0  0  0
  6 28  1  0  0  0  0
  7  9  1  0  0  0  0
  7 11  2  0  0  0  0
  7 29  1  0  0  0  0
  8 12  1  0  0  0  0
  8 30  1  0  0  0  0
  9 12  2  0  0  0  0
  9 31  1  0  0  0  0
 10 11  1  0  0  0  0
 12 19  1  0  0  0  0
 13 21  1  0  0  0  0
 13 22  2  0  0  0  0
 13 32  1  0  0  0  0
 14 15  1  0  0  0  0
 14 16  1  0  0  0  0
 14 33  1  0  0  0  0
 14 34  1  0  0  0  0
 15 17  1  0  0  0  0
 15 35  1  0  0  0  0
 15 36  1  0  0  0  0
 16 18  1  0  0  0  0
 16 37  1  0  0  0  0
 16 38  1  0  0  0  0
 17 19  1  0  0  0  0
 17 39  1  0  0  0  0
 17 40  1  0  0  0  0
 18 19  1  0  0  0  0
 18 41  1  0  0  0  0
 18 42  1  0  0  0  0
 19 20  1  0  0  0  0
 20 21  1  0  0  0  0
 20 43  1  0  0  0  0
 20 44  1  0  0  0  0
 21 45  1  0  0  0  0
M  END
$$$$
