
  -OEChem-05262117483D

 33 35  0     0  0  0  0  0  0999 V2000
   -1.3429    3.9882   -2.1713 C   0  0  0  0  0  0  0  0  0  0  0  0
   -1.0750    4.1182    0.2140 C   0  0  0  0  0  0  0  0  0  0  0  0
   -0.0521    3.4565   -2.2572 C   0  0  0  0  0  0  0  0  0  0  0  0
   -1.8592    4.3191   -0.9221 C   0  0  0  0  0  0  0  0  0  0  0  0
    0.6776    3.2892   -1.0595 C   0  0  0  0  0  0  0  0  0  0  0  0
    0.6200   -0.2087   -5.5214 C   0  0  0  0  0  0  0  0  0  0  0  0
    1.8519    0.6667   -5.4029 C   0  0  0  0  0  0  0  0  0  0  0  0
    2.4594    1.7034   -0.0861 C   0  0  0  0  0  0  0  0  0  0  0  0
    2.4221    1.4207   -1.5734 C   0  0  0  0  0  0  0  0  0  0  0  0
    0.4730    1.2703   -5.2618 C   0  0  0  0  0  0  0  0  0  0  0  0
    2.1040    2.8078   -1.0505 C   0  0  0  0  0  0  0  0  0  0  0  0
    3.1167    3.9255   -1.2596 C   0  0  0  0  0  0  0  0  0  0  0  0
    0.4760    3.0524   -3.6154 C   0  0  0  0  0  0  0  0  0  0  0  0
    0.1627    3.6219    0.1371 N   0  0  0  0  0  0  0  0  0  0  0  0
    0.0634    1.6779   -3.9400 N   0  0  0  0  0  0  0  0  0  0  0  0
   -3.6202    5.0555   -0.7581 Br  0  0  0  0  0  0  0  0  0  0  0  0
   -1.9322    4.1469   -3.0710 H   0  0  0  0  0  0  0  0  0  0  0  0
   -1.4513    4.3675    1.2041 H   0  0  0  0  0  0  0  0  0  0  0  0
    0.3446   -0.5867   -6.5016 H   0  0  0  0  0  0  0  0  0  0  0  0
    0.4013   -0.8725   -4.6909 H   0  0  0  0  0  0  0  0  0  0  0  0
    2.4383    0.5770   -4.4945 H   0  0  0  0  0  0  0  0  0  0  0  0
    2.4194    0.8874   -6.3022 H   0  0  0  0  0  0  0  0  0  0  0  0
    1.6625    1.3027    0.5321 H   0  0  0  0  0  0  0  0  0  0  0  0
    3.4267    1.7599    0.4057 H   0  0  0  0  0  0  0  0  0  0  0  0
    3.3669    1.2912   -2.0963 H   0  0  0  0  0  0  0  0  0  0  0  0
    1.6018    0.8306   -1.9684 H   0  0  0  0  0  0  0  0  0  0  0  0
    0.1306    1.8836   -6.1020 H   0  0  0  0  0  0  0  0  0  0  0  0
    4.1381    3.5312   -1.2409 H   0  0  0  0  0  0  0  0  0  0  0  0
    3.0258    4.6766   -0.4676 H   0  0  0  0  0  0  0  0  0  0  0  0
    2.9683    4.4297   -2.2219 H   0  0  0  0  0  0  0  0  0  0  0  0
    0.1241    3.7807   -4.3672 H   0  0  0  0  0  0  0  0  0  0  0  0
    1.5668    3.0810   -3.6308 H   0  0  0  0  0  0  0  0  0  0  0  0
   -0.9483    1.5959   -3.8504 H   0  0  0  0  0  0  0  0  0  0  0  0
  1  3  1  0  0  0  0
  1  4  2  0  0  0  0
  1 17  1  0  0  0  0
  2  4  1  0  0  0  0
  2 14  2  0  0  0  0
  2 18  1  0  0  0  0
  3  5  2  0  0  0  0
  3 13  1  0  0  0  0
  4 16  1  0  0  0  0
  5 11  1  0  0  0  0
  5 14  1  0  0  0  0
  6  7  1  0  0  0  0
  6 10  1  0  0  0  0
  6 19  1  0  0  0  0
  6 20  1  0  0  0  0
  7 10  1  0  0  0  0
  7 21  1  0  0  0  0
  7 22  1  0  0  0  0
  8  9  1  0  0  0  0
  8 11  1  0  0  0  0
  8 23  1  0  0  0  0
  8 24  1  0  0  0  0
  9 11  1  0  0  0  0
  9 25  1  0  0  0  0
  9 26  1  0  0  0  0
 10 15  1  0  0  0  0
 10 27  1  0  0  0  0
 11 12  1  0  0  0  0
 12 28  1  0  0  0  0
 12 29  1  0  0  0  0
 12 30  1  0  0  0  0
 13 15  1  0  0  0  0
 13 31  1  0  0  0  0
 13 32  1  0  0  0  0
 15 33  1  0  0  0  0
M  END
$$$$
