
  -OEChem-05262117483D

 51 54  0     1  0  0  0  0  0999 V2000
    7.2180    3.1928    0.8997 C   0  0  0  0  0  0  0  0  0  0  0  0
    6.4685    3.1560   -0.2833 C   0  0  0  0  0  0  0  0  0  0  0  0
    6.6884    2.6406    2.0688 C   0  0  0  0  0  0  0  0  0  0  0  0
    5.2005    2.5724   -0.2942 C   0  0  0  0  0  0  0  0  0  0  0  0
    5.4159    2.0564    2.0532 C   0  0  0  0  0  0  0  0  0  0  0  0
    1.4034    1.9141   -1.9528 C   0  0  0  0  0  0  0  0  0  0  0  0
   -0.7669    2.9856   -2.0981 C   0  0  0  0  0  0  0  0  0  0  0  0
    0.8894    0.9797   -1.0439 C   0  0  0  0  0  0  0  0  0  0  0  0
    4.6582    2.0190    0.8763 C   0  0  0  0  0  0  0  0  0  0  0  0
   -1.3056    2.0580   -1.2060 C   0  0  0  0  0  0  0  0  0  0  0  0
   -0.4651    1.0510   -0.6879 C   0  0  0  0  0  0  0  0  0  0  0  0
    0.5784    2.9036   -2.4691 C   0  0  0  0  0  0  0  0  0  0  0  0
   -0.8176   -3.9985    0.8693 C   0  0  0  0  0  0  0  0  0  0  0  0
   -0.6311   -3.0517    2.0635 C   0  0  0  0  0  0  0  0  0  0  0  0
   -0.1263   -3.4573   -0.3901 C   0  0  0  0  0  0  0  0  0  0  0  0
   -1.0703   -1.6195    1.7239 C   0  0  0  0  0  0  0  0  0  0  0  0
   -0.5930   -2.0289   -0.7053 C   0  0  0  0  0  0  0  0  0  0  0  0
    1.1044   -0.7470    0.7508 C   0  0  0  0  0  0  0  0  0  0  0  0
    1.7909   -0.0973   -0.4621 C   0  0  2  0  0  0  0  0  0  0  0  0
   -0.3695   -1.0679    0.4771 C   0  0  0  0  0  0  0  0  0  0  0  0
   -2.7542    2.1107   -0.7905 C   0  0  0  0  0  0  0  0  0  0  0  0
    3.2727    1.4088    0.8648 C   0  0  0  0  0  0  0  0  0  0  0  0
    3.1413    0.4281   -0.2190 N   0  0  0  0  0  0  0  0  0  0  0  0
   -1.0588    0.1804    0.1911 O   0  0  0  0  0  0  0  0  0  0  0  0
    1.2359    4.0807   -3.6055 Cl  0  0  0  0  0  0  0  0  0  0  0  0
    8.2058    3.6466    0.9076 H   0  0  0  0  0  0  0  0  0  0  0  0
    6.8743    3.5848   -1.1964 H   0  0  0  0  0  0  0  0  0  0  0  0
    7.2639    2.6608    2.9910 H   0  0  0  0  0  0  0  0  0  0  0  0
    4.6220    2.5355   -1.2127 H   0  0  0  0  0  0  0  0  0  0  0  0
    5.0094    1.6264    2.9667 H   0  0  0  0  0  0  0  0  0  0  0  0
    2.4514    1.8586   -2.2249 H   0  0  0  0  0  0  0  0  0  0  0  0
   -1.3958    3.7699   -2.5090 H   0  0  0  0  0  0  0  0  0  0  0  0
   -1.8909   -4.1114    0.6650 H   0  0  0  0  0  0  0  0  0  0  0  0
   -0.4369   -4.9968    1.1141 H   0  0  0  0  0  0  0  0  0  0  0  0
   -1.2057   -3.4112    2.9245 H   0  0  0  0  0  0  0  0  0  0  0  0
    0.4211   -3.0572    2.3749 H   0  0  0  0  0  0  0  0  0  0  0  0
    0.9625   -3.4756   -0.2511 H   0  0  0  0  0  0  0  0  0  0  0  0
   -0.3366   -4.1070   -1.2471 H   0  0  0  0  0  0  0  0  0  0  0  0
   -2.1497   -1.6027    1.5297 H   0  0  0  0  0  0  0  0  0  0  0  0
   -0.8892   -0.9441    2.5674 H   0  0  0  0  0  0  0  0  0  0  0  0
   -0.1072   -1.6505   -1.6094 H   0  0  0  0  0  0  0  0  0  0  0  0
   -1.6699   -2.0361   -0.9124 H   0  0  0  0  0  0  0  0  0  0  0  0
    1.6515   -1.6484    1.0408 H   0  0  0  0  0  0  0  0  0  0  0  0
    1.1319   -0.0629    1.6045 H   0  0  0  0  0  0  0  0  0  0  0  0
    1.9263   -0.8707   -1.2291 H   0  0  0  0  0  0  0  0  0  0  0  0
   -3.2676    1.1761   -1.0400 H   0  0  0  0  0  0  0  0  0  0  0  0
   -2.8491    2.2400    0.2928 H   0  0  0  0  0  0  0  0  0  0  0  0
   -3.2724    2.9361   -1.2853 H   0  0  0  0  0  0  0  0  0  0  0  0
    3.0596    0.9945    1.8627 H   0  0  0  0  0  0  0  0  0  0  0  0
    2.5269    2.1920    0.6861 H   0  0  0  0  0  0  0  0  0  0  0  0
    3.7887   -0.3416   -0.0634 H   0  0  0  0  0  0  0  0  0  0  0  0
  1  2  1  0  0  0  0
  1  3  2  0  0  0  0
  1 26  1  0  0  0  0
  2  4  2  0  0  0  0
  2 27  1  0  0  0  0
  3  5  1  0  0  0  0
  3 28  1  0  0  0  0
  4  9  1  0  0  0  0
  4 29  1  0  0  0  0
  5  9  2  0  0  0  0
  5 30  1  0  0  0  0
  6  8  1  0  0  0  0
  6 12  2  0  0  0  0
  6 31  1  0  0  0  0
  7 10  2  0  0  0  0
  7 12  1  0  0  0  0
  7 32  1  0  0  0  0
  8 11  2  0  0  0  0
  8 19  1  0  0  0  0
  9 22  1  0  0  0  0
 10 11  1  0  0  0  0
 10 21  1  0  0  0  0
 11 24  1  0  0  0  0
 12 25  1  0  0  0  0
 13 14  1  0  0  0  0
 13 15  1  0  0  0  0
 13 33  1  0  0  0  0
 13 34  1  0  0  0  0
 14 16  1  0  0  0  0
 14 35  1  0  0  0  0
 14 36  1  0  0  0  0
 15 17  1  0  0  0  0
 15 37  1  0  0  0  0
 15 38  1  0  0  0  0
 16 20  1  0  0  0  0
 16 39  1  0  0  0  0
 16 40  1  0  0  0  0
 17 20  1  0  0  0  0
 17 41  1  0  0  0  0
 17 42  1  0  0  0  0
 18 19  1  0  0  0  0
 18 20  1  0  0  0  0
 18 43  1  0  0  0  0
 18 44  1  0  0  0  0
 19 23  1  0  0  0  0
 19 45  1  0  0  0  0
 20 24  1  0  0  0  0
 21 46  1  0  0  0  0
 21 47  1  0  0  0  0
 21 48  1  0  0  0  0
 22 23  1  0  0  0  0
 22 49  1  0  0  0  0
 22 50  1  0  0  0  0
 23 51  1  0  0  0  0
M  END
$$$$
