
  -OEChem-05262117483D

 52 55  0     1  0  0  0  0  0999 V2000
   -6.0189   -1.0067   -3.3009 C   0  0  0  0  0  0  0  0  0  0  0  0
   -5.0056   -0.4944   -4.1198 C   0  0  0  0  0  0  0  0  0  0  0  0
   -5.7197   -1.9776   -2.3404 C   0  0  0  0  0  0  0  0  0  0  0  0
   -3.6942   -0.9495   -3.9720 C   0  0  0  0  0  0  0  0  0  0  0  0
   -4.4048   -2.4268   -2.1861 C   0  0  0  0  0  0  0  0  0  0  0  0
   -2.2016    1.4749   -1.0198 C   0  0  0  0  0  0  0  0  0  0  0  0
   -1.0870    3.2552    0.1833 C   0  0  0  0  0  0  0  0  0  0  0  0
   -1.3711    0.5383   -0.3787 C   0  0  0  0  0  0  0  0  0  0  0  0
   -3.3850   -1.9123   -2.9979 C   0  0  0  0  0  0  0  0  0  0  0  0
   -0.2647    2.3429    0.8421 C   0  0  0  0  0  0  0  0  0  0  0  0
   -0.4118    0.9700    0.5461 C   0  0  0  0  0  0  0  0  0  0  0  0
   -2.0475    2.8258   -0.7440 C   0  0  0  0  0  0  0  0  0  0  0  0
    3.5586   -1.4927    1.1046 C   0  0  0  0  0  0  0  0  0  0  0  0
    2.9943   -0.6286   -0.0277 C   0  0  0  0  0  0  0  0  0  0  0  0
    2.5848   -1.5420    2.2869 C   0  0  0  0  0  0  0  0  0  0  0  0
    1.6036   -1.1089   -0.4730 C   0  0  0  0  0  0  0  0  0  0  0  0
    1.2033   -2.0398    1.8462 C   0  0  0  0  0  0  0  0  0  0  0  0
   -0.7592   -1.8085    0.3011 C   0  0  0  0  0  0  0  0  0  0  0  0
   -1.5566   -0.9265   -0.6555 C   0  0  2  0  0  0  0  0  0  0  0  0
    0.6039   -1.2165    0.6987 C   0  0  0  0  0  0  0  0  0  0  0  0
    0.7616    2.7836    1.8530 C   0  0  0  0  0  0  0  0  0  0  0  0
   -1.9568   -2.3382   -2.8015 C   0  0  0  0  0  0  0  0  0  0  0  0
   -1.1702   -1.2187   -2.1260 N   0  3  0  0  0  0  0  0  0  0  0  0
    0.3917    0.1127    1.2416 O   0  0  0  0  0  0  0  0  0  0  0  0
   -3.0700    3.9989   -1.5411 Cl  0  0  0  0  0  0  0  0  0  0  0  0
   -7.0402   -0.6566   -3.4192 H   0  0  0  0  0  0  0  0  0  0  0  0
   -5.2391    0.2480   -4.8772 H   0  0  0  0  0  0  0  0  0  0  0  0
   -6.5070   -2.3848   -1.7131 H   0  0  0  0  0  0  0  0  0  0  0  0
   -2.9183   -0.5662   -4.6341 H   0  0  0  0  0  0  0  0  0  0  0  0
   -4.1779   -3.1860   -1.4406 H   0  0  0  0  0  0  0  0  0  0  0  0
   -2.9831    1.1447   -1.7019 H   0  0  0  0  0  0  0  0  0  0  0  0
   -0.9857    4.3160    0.3917 H   0  0  0  0  0  0  0  0  0  0  0  0
    4.5274   -1.0975    1.4260 H   0  0  0  0  0  0  0  0  0  0  0  0
    3.7419   -2.5107    0.7344 H   0  0  0  0  0  0  0  0  0  0  0  0
    2.9156    0.4112    0.3083 H   0  0  0  0  0  0  0  0  0  0  0  0
    3.6669   -0.6321   -0.8916 H   0  0  0  0  0  0  0  0  0  0  0  0
    2.9680   -2.1998    3.0733 H   0  0  0  0  0  0  0  0  0  0  0  0
    2.4860   -0.5441    2.7276 H   0  0  0  0  0  0  0  0  0  0  0  0
    1.2307   -0.4021   -1.2265 H   0  0  0  0  0  0  0  0  0  0  0  0
    1.6941   -2.0992   -0.9436 H   0  0  0  0  0  0  0  0  0  0  0  0
    1.2793   -3.0813    1.5080 H   0  0  0  0  0  0  0  0  0  0  0  0
    0.5017   -2.0241    2.6868 H   0  0  0  0  0  0  0  0  0  0  0  0
   -1.3589   -1.9148    1.2103 H   0  0  0  0  0  0  0  0  0  0  0  0
   -0.6263   -2.8184   -0.1021 H   0  0  0  0  0  0  0  0  0  0  0  0
   -2.6169   -1.1807   -0.6173 H   0  0  0  0  0  0  0  0  0  0  0  0
    0.5372    2.3695    2.8412 H   0  0  0  0  0  0  0  0  0  0  0  0
    1.7593    2.4260    1.5800 H   0  0  0  0  0  0  0  0  0  0  0  0
    0.7913    3.8719    1.9322 H   0  0  0  0  0  0  0  0  0  0  0  0
   -1.8643   -3.2182   -2.1636 H   0  0  0  0  0  0  0  0  0  0  0  0
   -1.4461   -2.5354   -3.7475 H   0  0  0  0  0  0  0  0  0  0  0  0
   -1.3200   -0.3535   -2.6579 H   0  0  0  0  0  0  0  0  0  0  0  0
   -0.1634   -1.4113   -2.1671 H   0  0  0  0  0  0  0  0  0  0  0  0
  1  2  1  0  0  0  0
  1  3  2  0  0  0  0
  1 26  1  0  0  0  0
  2  4  2  0  0  0  0
  2 27  1  0  0  0  0
  3  5  1  0  0  0  0
  3 28  1  0  0  0  0
  4  9  1  0  0  0  0
  4 29  1  0  0  0  0
  5  9  2  0  0  0  0
  5 30  1  0  0  0  0
  6  8  1  0  0  0  0
  6 12  2  0  0  0  0
  6 31  1  0  0  0  0
  7 10  2  0  0  0  0
  7 12  1  0  0  0  0
  7 32  1  0  0  0  0
  8 11  2  0  0  0  0
  8 19  1  0  0  0  0
  9 22  1  0  0  0  0
 10 11  1  0  0  0  0
 10 21  1  0  0  0  0
 11 24  1  0  0  0  0
 12 25  1  0  0  0  0
 13 14  1  0  0  0  0
 13 15  1  0  0  0  0
 13 33  1  0  0  0  0
 13 34  1  0  0  0  0
 14 16  1  0  0  0  0
 14 35  1  0  0  0  0
 14 36  1  0  0  0  0
 15 17  1  0  0  0  0
 15 37  1  0  0  0  0
 15 38  1  0  0  0  0
 16 20  1  0  0  0  0
 16 39  1  0  0  0  0
 16 40  1  0  0  0  0
 17 20  1  0  0  0  0
 17 41  1  0  0  0  0
 17 42  1  0  0  0  0
 18 19  1  0  0  0  0
 18 20  1  0  0  0  0
 18 43  1  0  0  0  0
 18 44  1  0  0  0  0
 19 23  1  0  0  0  0
 19 45  1  0  0  0  0
 20 24  1  0  0  0  0
 21 46  1  0  0  0  0
 21 47  1  0  0  0  0
 21 48  1  0  0  0  0
 22 23  1  0  0  0  0
 22 49  1  0  0  0  0
 22 50  1  0  0  0  0
 23 51  1  0  0  0  0
 23 52  1  0  0  0  0
M  CHG  1  23   1
M  END
$$$$
