
  -OEChem-05262117483D

 52 55  0     1  0  0  0  0  0999 V2000
    3.6394   -1.3286   -7.2871 C   0  0  0  0  0  0  0  0  0  0  0  0
    4.1698   -1.8190   -6.0889 C   0  0  0  0  0  0  0  0  0  0  0  0
    2.2620   -1.1162   -7.4112 C   0  0  0  0  0  0  0  0  0  0  0  0
    3.3240   -2.0908   -5.0110 C   0  0  0  0  0  0  0  0  0  0  0  0
    1.4148   -1.3876   -6.3344 C   0  0  0  0  0  0  0  0  0  0  0  0
   -0.5370    1.6296   -2.2817 C   0  0  0  0  0  0  0  0  0  0  0  0
   -0.2310    3.2185   -0.4814 C   0  0  0  0  0  0  0  0  0  0  0  0
   -0.1356    0.5904   -1.4240 C   0  0  0  0  0  0  0  0  0  0  0  0
    1.9427   -1.8737   -5.1284 C   0  0  0  0  0  0  0  0  0  0  0  0
    0.1275    2.1997    0.3994 C   0  0  0  0  0  0  0  0  0  0  0  0
    0.1617    0.8740   -0.0846 C   0  0  0  0  0  0  0  0  0  0  0  0
   -0.5757    2.9349   -1.8101 C   0  0  0  0  0  0  0  0  0  0  0  0
   -1.2616   -2.1324    3.1097 C   0  0  0  0  0  0  0  0  0  0  0  0
    0.2641   -2.0326    2.9881 C   0  0  0  0  0  0  0  0  0  0  0  0
   -1.9584   -1.2311    2.0831 C   0  0  0  0  0  0  0  0  0  0  0  0
    0.7333   -2.3375    1.5588 C   0  0  0  0  0  0  0  0  0  0  0  0
   -1.4878   -1.5376    0.6548 C   0  0  0  0  0  0  0  0  0  0  0  0
    0.5303   -1.7998   -0.8943 C   0  0  0  0  0  0  0  0  0  0  0  0
   -0.0222   -0.8233   -1.9391 C   0  0  2  0  0  0  0  0  0  0  0  0
    0.0434   -1.4508    0.5169 C   0  0  0  0  0  0  0  0  0  0  0  0
    0.4623    2.4751    1.8420 C   0  0  0  0  0  0  0  0  0  0  0  0
    1.0411   -2.1019   -3.9491 C   0  0  0  0  0  0  0  0  0  0  0  0
    0.9228   -0.8109   -3.1457 N   0  3  0  0  0  0  0  0  0  0  0  0
    0.4932   -0.0963    0.8129 O   0  0  0  0  0  0  0  0  0  0  0  0
   -1.0743    4.2284   -2.8743 Cl  0  0  0  0  0  0  0  0  0  0  0  0
    4.2970   -1.1227   -8.1267 H   0  0  0  0  0  0  0  0  0  0  0  0
    5.2372   -1.9971   -5.9979 H   0  0  0  0  0  0  0  0  0  0  0  0
    1.8488   -0.7497   -8.3462 H   0  0  0  0  0  0  0  0  0  0  0  0
    3.7387   -2.4903   -4.0871 H   0  0  0  0  0  0  0  0  0  0  0  0
    0.3413   -1.2415   -6.4433 H   0  0  0  0  0  0  0  0  0  0  0  0
   -0.8528    1.4294   -3.3045 H   0  0  0  0  0  0  0  0  0  0  0  0
   -0.2679    4.2451   -0.1297 H   0  0  0  0  0  0  0  0  0  0  0  0
   -1.5769   -1.8616    4.1224 H   0  0  0  0  0  0  0  0  0  0  0  0
   -1.5747   -3.1733    2.9515 H   0  0  0  0  0  0  0  0  0  0  0  0
    0.5925   -1.0255    3.2665 H   0  0  0  0  0  0  0  0  0  0  0  0
    0.7503   -2.7275    3.6802 H   0  0  0  0  0  0  0  0  0  0  0  0
   -3.0447   -1.3550    2.1367 H   0  0  0  0  0  0  0  0  0  0  0  0
   -1.7499   -0.1797    2.3123 H   0  0  0  0  0  0  0  0  0  0  0  0
    1.8179   -2.2073    1.4740 H   0  0  0  0  0  0  0  0  0  0  0  0
    0.5100   -3.3830    1.3121 H   0  0  0  0  0  0  0  0  0  0  0  0
   -1.7866   -2.5571    0.3785 H   0  0  0  0  0  0  0  0  0  0  0  0
   -1.9790   -0.8607   -0.0526 H   0  0  0  0  0  0  0  0  0  0  0  0
    0.2524   -2.8282   -1.1373 H   0  0  0  0  0  0  0  0  0  0  0  0
    1.6267   -1.7445   -0.8826 H   0  0  0  0  0  0  0  0  0  0  0  0
   -0.9766   -1.1729   -2.3452 H   0  0  0  0  0  0  0  0  0  0  0  0
   -0.2113    1.9260    2.5074 H   0  0  0  0  0  0  0  0  0  0  0  0
    1.4784    2.1448    2.0795 H   0  0  0  0  0  0  0  0  0  0  0  0
    0.3814    3.5402    2.0667 H   0  0  0  0  0  0  0  0  0  0  0  0
    0.0230   -2.3689   -4.2398 H   0  0  0  0  0  0  0  0  0  0  0  0
    1.4267   -2.8599   -3.2676 H   0  0  0  0  0  0  0  0  0  0  0  0
    0.6385   -0.0622   -3.7881 H   0  0  0  0  0  0  0  0  0  0  0  0
    1.8578   -0.5317   -2.8223 H   0  0  0  0  0  0  0  0  0  0  0  0
  1  2  1  0  0  0  0
  1  3  2  0  0  0  0
  1 26  1  0  0  0  0
  2  4  2  0  0  0  0
  2 27  1  0  0  0  0
  3  5  1  0  0  0  0
  3 28  1  0  0  0  0
  4  9  1  0  0  0  0
  4 29  1  0  0  0  0
  5  9  2  0  0  0  0
  5 30  1  0  0  0  0
  6  8  1  0  0  0  0
  6 12  2  0  0  0  0
  6 31  1  0  0  0  0
  7 10  2  0  0  0  0
  7 12  1  0  0  0  0
  7 32  1  0  0  0  0
  8 11  2  0  0  0  0
  8 19  1  0  0  0  0
  9 22  1  0  0  0  0
 10 11  1  0  0  0  0
 10 21  1  0  0  0  0
 11 24  1  0  0  0  0
 12 25  1  0  0  0  0
 13 14  1  0  0  0  0
 13 15  1  0  0  0  0
 13 33  1  0  0  0  0
 13 34  1  0  0  0  0
 14 16  1  0  0  0  0
 14 35  1  0  0  0  0
 14 36  1  0  0  0  0
 15 17  1  0  0  0  0
 15 37  1  0  0  0  0
 15 38  1  0  0  0  0
 16 20  1  0  0  0  0
 16 39  1  0  0  0  0
 16 40  1  0  0  0  0
 17 20  1  0  0  0  0
 17 41  1  0  0  0  0
 17 42  1  0  0  0  0
 18 19  1  0  0  0  0
 18 20  1  0  0  0  0
 18 43  1  0  0  0  0
 18 44  1  0  0  0  0
 19 23  1  0  0  0  0
 19 45  1  0  0  0  0
 20 24  1  0  0  0  0
 21 46  1  0  0  0  0
 21 47  1  0  0  0  0
 21 48  1  0  0  0  0
 22 23  1  0  0  0  0
 22 49  1  0  0  0  0
 22 50  1  0  0  0  0
 23 51  1  0  0  0  0
 23 52  1  0  0  0  0
M  CHG  1  23   1
M  END
$$$$
