38
0 1 C15H20O3
C                     5.402381700960    -0.270705989142     5.393427085912
C                     5.273454637553     0.431737313153     4.189372630958
C                     2.990136477386    -0.398452220063     5.563539180818
C                     4.266148941581    -0.691905537202     6.088692311015
C                     4.010097451642     0.720499955871     3.669143378287
C                     2.845269432203     0.300447537001     4.372401592320
C                     4.332839504992    -1.449645222710     7.372873641478
C                    -0.791300368797     0.120393371788     2.288596343003
C                    -0.294247553923    -1.322916731859     2.597399260070
C                    -0.691533938381     0.886029058626     3.625683562130
C                     0.194242268790    -1.304185991186     4.068227367147
C                     0.430619426295     0.179263331038     4.384473082306
C                     5.624350924092    -2.539110596694     9.281766216652
C                     4.912578979005     1.846194251643     1.769007463550
C                     5.702728969463    -1.765464606249     7.966333929131
O                     3.306292819805    -1.812281062247     7.942773075841
O                     1.663236147110     0.648969061431     3.796163779162
O                     3.783052101409     1.392867354978     2.508651632708
H                     6.397668956961    -0.481400615541     5.769606570560
H                     6.166030607836     0.748827499888     3.662493800959
H                     2.131954676249    -0.743643029045     6.126044173303
H                    -0.143014834985     0.591152900386     1.545074807754
H                    -1.809184454796     0.134121731496     1.888318710276
H                    -1.083072468771    -2.067481312433     2.456498847882
H                     0.524649311159    -1.595196075976     1.926373028853
H                    -0.487751530543     1.953085751569     3.504673429011
H                    -1.615543119647     0.780832825520     4.205741886579
H                    -0.583110724435    -1.678016976789     4.744523727124
H                     1.084560859052    -1.915465638770     4.231588012820
H                     0.428871289380     0.409807971413     5.455179245883
H                     5.071525932192    -1.973981176291    10.036729637426
H                     5.106147213614    -3.491990935142     9.146056630726
H                     6.629812019435    -2.741018399555     9.665075311151
H                     4.507774552747     2.354211946412     0.892974848189
H                     5.541322315932     1.007520949386     1.445606669241
H                     5.515313414781     2.552116301420     2.353403331884
H                     6.279303254658    -2.328728216600     7.221521132695
H                     6.243840200464    -0.820909431849     8.105613196351
