34
1 1 BrC13H18N2
C                    -3.649620221200    -1.511269575801    -0.561729292779
C                    -2.520581790044    -2.474411824553     1.323766087741
C                    -2.471307438197    -0.805259476228    -0.846139040181
C                    -3.677892355071    -2.358282255806     0.541034521472
C                    -1.359922469917    -0.952627317656     0.013725412191
C                    -3.081043301229     0.134167240736    -5.394451033231
C                    -1.925349256162    -0.733769317850    -5.848298068760
C                    -0.058284075410     1.307720640948    -0.124097104253
C                     0.502036314797     0.495052847816     1.020713617712
C                    -1.845434718301     0.014758175602    -4.545497865686
C                    -0.060983059104    -0.215437853409    -0.185268973786
C                     0.940313284587    -0.914933188840    -1.095111313815
C                    -2.422707993673     0.061876812954    -2.071322964354
N                    -1.408177875170    -1.786367989796     1.065267243163
N                    -1.930576891991    -0.749956531218    -3.272563694118
Br                   -5.247261016512    -3.329489302835     0.993208933673
H                    -4.537054075983    -1.388533859299    -1.178817496350
H                    -2.502005505615    -3.135806480193     2.187315423286
H                    -3.253505927220     1.086074925012    -5.884969467364
H                    -3.985909449273    -0.369561806122    -5.063721917736
H                    -2.063291917000    -1.811438368706    -5.820010721043
H                    -1.286040139500    -0.386568169937    -6.652915944078
H                    -0.997850886749     1.823711702755     0.057415600355
H                     0.635718696914     1.843730100919    -0.766733666049
H                     1.578318984862     0.472510380193     1.159100258229
H                    -0.071698045645     0.450642338341     1.939956997267
H                    -1.171555232356     0.858566666430    -4.443273079037
H                     1.897691544658    -0.386801563546    -1.097778520418
H                     0.616897165306    -0.957408968224    -2.147930456863
H                     1.119334284214    -1.940945203957    -0.760130651023
H                    -3.403850909053     0.444814472677    -2.356634636102
H                    -1.724924557102     0.891479467477    -1.970786771600
H                    -2.546695621745    -1.563169980139    -3.389699271077
H                    -1.006051868780    -1.134820380112    -3.035092923114
