29   
torsion grid (-165,)
C       -5.8607275970   -4.1084273224    1.4873502981
C       -4.6570659334   -4.6729244132    1.9077729053
C       -6.1201009346   -2.7596763671    1.7457483687
C       -3.7081263454   -3.9149406989    2.6113076564
C       -5.2066173811   -1.9695194044    2.4527300725
C       -4.0218316341   -2.5772237019    2.9079838627
C       -4.0725810768   -2.1779338923    5.8344929544
C       -2.3740108171   -4.5318344814    2.9684877320
C       -5.4648432327   -0.5065459372    2.7087481108
C       -5.1096995531   -3.3997891968    7.7066359899
C       -2.8301650030   -2.0937859332    4.9330041827
N       -4.0146433900   -3.1716898575    6.7709671056
O       -5.0102557793   -1.3902937805    5.7561662412
O       -3.1197372879   -1.7554925623    3.5848978312
H       -6.5829342807   -4.7087866752    0.9400658242
H       -4.4311670510   -5.7102793943    1.6696556078
H       -7.0452100916   -2.3085886774    1.3945365322
H       -1.5692306592   -3.7924213467    2.9297645735
H       -2.3745407723   -4.9766665330    3.9720631600
H       -2.1292528874   -5.3339971134    2.2666873174
H       -5.4900137242   -0.3052870500    3.7821299836
H       -4.6674570894    0.1100788889    2.2804966525
H       -6.4149179361   -0.2010441481    2.2615039984
H       -4.7359189608   -3.9535727166    8.5711463691
H       -5.9287079558   -3.9608979645    7.2416657679
H       -5.4997093889   -2.4354249383    8.0354109443
H       -2.1963234142   -1.2849003990    5.3080014910
H       -2.2598791011   -3.0278837375    4.9880387842
H       -3.3095806671   -3.8890178551    6.6708141820
29   
torsion grid (-150,)
C       -5.8202413836   -4.0586950363    1.2974929051
C       -4.6379569891   -4.6449763949    1.7465059774
C       -6.0898110877   -2.7227060994    1.6069867083
C       -3.7214669540   -3.9247559418    2.5288896712
C       -5.2106883828   -1.9705499440    2.3934685001
C       -4.0501284778   -2.6030535690    2.8767860447
C       -4.1389709490   -2.2987534177    5.8676541381
C       -2.4042505392   -4.5640618878    2.9099448932
C       -5.4812343349   -0.5212560139    2.7068622281
C       -5.0167106774   -3.3170416613    7.9340058799
C       -2.9031774560   -2.2120987907    4.9561889671
N       -3.9567982747   -3.1100139973    6.9538213442
O       -5.1726518572   -1.6690567955    5.6729612602
O       -3.1793393407   -1.8110052082    3.6270133398
H       -6.5162706728   -4.6304631434    0.6891047276
H       -4.4011426202   -5.6701424891    1.4694828877
H       -6.9968430058   -2.2522603308    1.2346143928
H       -1.5935683230   -3.8299688852    2.9264548512
H       -2.4428599748   -5.0470918011    3.8947204554
H       -2.1396359788   -5.3402001525    2.1864203463
H       -5.5652219357   -0.3771755481    3.7862337972
H       -4.6620613497    0.1143687713    2.3541891912
H       -6.4058315877   -0.1906938013    2.2252273682
H       -4.5774498509   -3.6696332373    8.8702420981
H       -5.7572399025   -4.0456159156    7.5836324157
H       -5.5271406991   -2.3688193875    8.1092664788
H       -2.2377091216   -1.4430921838    5.3607879850
H       -2.3665288937   -3.1673253788    4.9790253382
H       -3.1568825786   -3.7281218139    6.9702629707
29   
torsion grid (-135,)
C       -5.7708130294   -4.0177584715    1.1032745428
C       -4.5914250736   -4.6126489517    1.5483446449
C       -6.0685940385   -2.7062818665    1.4834713750
C       -3.7086327025   -3.9279007729    2.3982982308
C       -5.2238330170   -1.9904960542    2.3386251792
C       -4.0698278230   -2.6362496346    2.8200952763
C       -4.1859283384   -2.3546707650    5.8864091319
C       -2.3881571019   -4.5676325761    2.7682967456
C       -5.5232982058   -0.5635584910    2.7209516223
C       -4.9731033201   -3.1190479149    8.0988170426
C       -2.9692215079   -2.3586371969    4.9434718621
N       -3.9414103351   -2.9843471560    7.0769472847
O       -5.2579451027   -1.8235736173    5.6221329273
O       -3.2288156010   -1.8804755116    3.6391155161
H       -6.4408100010   -4.5613926831    0.4421565914
H       -4.3293297972   -5.6146854374    1.2150914866
H       -6.9706033286   -2.2256658340    1.1118290674
H       -1.5959938878   -3.8202099885    2.8692622199
H       -2.4430917237   -5.1312385668    3.7084200100
H       -2.0842801562   -5.2757451157    1.9922519203
H       -5.6723191766   -0.4841288164    3.7998383316
H       -4.6891457676    0.0949743418    2.4569542190
H       -6.4196188685   -0.2086221676    2.2044274036
H       -4.5000713074   -3.2545992279    9.0745304798
H       -5.6378788803   -3.9676968650    7.8980944371
H       -5.5748142866   -2.2092125681    8.1133298428
H       -2.2092584924   -1.6875019591    5.3561535442
H       -2.5480994301   -3.3699611596    4.9252542940
H       -3.0905397684   -3.5217716370    7.1776427080
29   
torsion grid (-120,)
C       -5.3961008031   -4.6975987440    1.4668037210
C       -4.0099830849   -4.6969293936    1.2875178831
C       -5.9816272854   -3.7506512205    2.3054042880
C       -3.1910316859   -3.7899699907    1.9685798412
C       -5.2007460118   -2.8127475494    2.9989641833
C       -3.8042869072   -2.8855612839    2.8551039955
C       -2.2181765045   -3.1682319525    5.5393279985
C       -1.6999834151   -3.7636809908    1.7488137725
C       -5.8823546053   -1.7319549833    3.8099100506
C       -1.5930072332   -4.1373775539    7.7359290112
C       -2.9363804448   -1.9646650976    4.9025056960
N       -2.1902148929   -3.0987763132    6.9069995540
O       -1.7270894364   -4.0903214188    4.8995663989
O       -2.9667749665   -1.9666981541    3.4913124254
H       -6.0165864542   -5.4136418940    0.9340526090
H       -3.5513566270   -5.4108905120    0.6073279061
H       -7.0640700607   -3.7124648461    2.4088932698
H       -1.3683371308   -2.7685904462    1.4343297456
H       -1.1763197337   -4.0039343307    2.6763970375
H       -1.4140944252   -4.4825940819    0.9757376514
H       -6.0437486148   -2.0295920314    4.8538660191
H       -5.3025285637   -0.8047969105    3.8089893818
H       -6.8667793633   -1.5115581166    3.3873020193
H       -2.3560964591   -4.6856125895    8.3003857302
H       -0.8704766871   -3.7052898388    8.4359716232
H       -1.0774219026   -4.8338112679    7.0744028183
H       -3.9414749262   -1.9078148238    5.3351180856
H       -2.4076559720   -1.0489032661    5.1879848076
H       -2.6540558337   -2.3243988524    7.3640941630
29   
torsion grid (-105,)
C       -5.3680615467   -4.7716847366    1.6103035984
C       -3.9932371259   -4.7409298441    1.3605463024
C       -5.9371520923   -3.8167462578    2.4512000252
C       -3.1678165979   -3.7916122348    1.9724665937
C       -5.1489291343   -2.8380633812    3.0770346214
C       -3.7606470830   -2.8750484142    2.8605745995
C       -2.1903893194   -3.1277207074    5.4772596890
C       -1.6899183884   -3.7342165324    1.6821026586
C       -5.8183464000   -1.7558247413    3.8956826024
C       -1.8137804329   -4.2257676744    7.6696921036
C       -2.8095296512   -1.8757215788    4.8311837443
N       -2.3424278467   -3.1527586246    6.8378579132
O       -1.6010873897   -3.9987070533    4.8484030389
O       -2.9138866815   -1.9180971229    3.4238004924
H       -5.9944699946   -5.5195459193    1.1309032694
H       -3.5493080144   -5.4639657952    0.6801959419
H       -7.0134248857   -3.8057059015    2.6103767335
H       -1.4029409808   -2.7459865757    1.3076010773
H       -1.1182895991   -3.9159869250    2.5947467450
H       -1.4176937059   -4.4803242732    0.9301874384
H       -5.8853855134   -2.0165770574    4.9596317869
H       -5.2846677153   -0.8046467864    3.8142284701
H       -6.8413085401   -1.5972486387    3.5428756022
H       -2.6155032663   -4.8701979869    8.0485503310
H       -1.2534935481   -3.8150231525    8.5156785112
H       -1.1448994961   -4.8263805687    7.0529938892
H       -3.7776826098   -1.6800532732    5.3065311106
H       -2.1638303595   -1.0206973208    5.0575659771
H       -2.9127988224   -2.4410410760    7.2752088126
29   
torsion grid (-90,)
C       -5.3251880555   -4.8261632099    1.7568634388
C       -3.9674634839   -4.7689824562    1.4302846675
C       -5.8740846462   -3.8574856666    2.5958151199
C       -3.1369863875   -3.7755374023    1.9602430025
C       -5.0805083698   -2.8362151372    3.1416137659
C       -3.7070169793   -2.8403688510    2.8436968299
C       -2.1070682505   -3.0412930372    5.3700341742
C       -1.6779524161   -3.6911876395    1.5914514107
C       -5.7302053283   -1.7477328841    3.9671871341
C       -1.9738140325   -4.2862447149    7.5059000064
C       -2.6675225668   -1.7635710165    4.7235354329
N       -2.4291738528   -3.1648475368    6.6942004109
O       -1.3998407503   -3.8441823793    4.7712557980
O       -2.8568910040   -1.8427927032    3.3241485400
H       -5.9554731727   -5.6075005999    1.3399986615
H       -3.5409539648   -5.5061752937    0.7540352625
H       -6.9393010467   -3.8711223655    2.8169718000
H       -1.4444024637   -2.7206656736    1.1409046822
H       -1.0555703827   -3.7954745454    2.4829822794
H       -1.4173939273   -4.4754165688    0.8750933448
H       -5.7005103699   -1.9649727531    5.0425851196
H       -5.2454064923   -0.7806339319    3.8058353098
H       -6.7838887974   -1.6455201727    3.6930262123
H       -2.7527955504   -5.0508081275    7.6093953527
H       -1.6788928378   -3.9361999960    8.4995320372
H       -1.1127343464   -4.7342978132    7.0095724520
H       -3.5883205669   -1.4666073702    5.2390814228
H       -1.9392754625   -0.9618227676    4.8835422571
H       -3.1219160812   -2.5396009239    7.0834744629
29   
torsion grid (-75,)
C       -5.3073325691   -4.8959978416    1.9985025141
C       -3.9567605433   -4.8317018369    1.6451241040
C       -5.8645555073   -3.8885634670    2.7853526987
C       -3.1395262158   -3.7888208528    2.0962714526
C       -5.0844454100   -2.8194478018    3.2523804567
C       -3.7166685509   -2.8118147025    2.9283364471
C       -2.0914369232   -2.9238917776    5.3871317004
C       -1.6897303435   -3.6941537509    1.6938294780
C       -5.7386593354   -1.6957255051    4.0250273234
C       -2.1991441506   -4.3723788639    7.3766509749
C       -2.6526441095   -1.6509195966    4.7335750795
N       -2.6119235034   -3.1952278948    6.6212133067
O       -1.2136424924   -3.6080645999    4.8695378839
O       -2.8832213150   -1.7703732316    3.3389669004
H       -5.9269042862   -5.7148768890    1.6419899126
H       -3.5257725760   -5.6007269827    1.0083496175
H       -6.9254074110   -3.9113473603    3.0259348828
H       -1.4925145496   -2.7529090358    1.1697246516
H       -1.0451204443   -3.7156563879    2.5755221928
H       -1.4214662477   -4.5209731573    1.0302268101
H       -5.6950178552   -1.8542719476    5.1103721405
H       -5.2652791798   -0.7341180007    3.8080701180
H       -6.7964676102   -1.6197655987    3.7583383035
H       -2.6955131947   -5.2800158805    7.0138902028
H       -2.4387013931   -4.2251600204    8.4324018636
H       -1.1219438453   -4.5041722389    7.2647499547
H       -3.5564727389   -1.3232523200    5.2604368630
H       -1.9051835761   -0.8601988022    4.8483868146
H       -3.4499978485   -2.7086153760    6.9084708050
29   
torsion grid (-60,)
C       -5.2611971004   -4.9592516527    2.2381073075
C       -3.9168810348   -4.8920539884    1.8618782647
C       -5.8351446631   -3.9066960938    2.9512425827
C       -3.1196692141   -3.7973453181    2.2177416047
C       -5.0753177367   -2.7871437274    3.3227057468
C       -3.7129035022   -2.7724791147    2.9775865754
C       -2.0280969147   -2.7935138212    5.3379585894
C       -1.6785735039   -3.6973022358    1.7842455708
C       -5.7387386307   -1.6215722049    4.0219832900
C       -2.3294399055   -4.5207884139    7.0622819532
C       -2.6270673703   -1.5305379856    4.6998969754
N       -2.7180217310   -3.2721998464    6.4160494510
O       -0.9942263881   -3.3117591622    4.9236995654
O       -2.9040425514   -1.6856494820    3.3112698765
H       -5.8643939618   -5.8180331132    1.9549755399
H       -3.4757701306   -5.6982677911    1.2804530727
H       -6.8922130112   -3.9362148678    3.2073875434
H       -1.5182091124   -2.7982703262    1.1797320627
H       -1.0141095282   -3.6261381302    2.6485836134
H       -1.3974044320   -4.5690200113    1.1868788735
H       -5.7109440040   -1.7185304782    5.1153372526
H       -5.2588154173   -0.6750788552    3.7597630210
H       -6.7927588579   -1.5589276721    3.7371631271
H       -2.6365417214   -5.3925039824    6.4726021568
H       -2.7880904588   -4.5710928905    8.0525106428
H       -1.2436155955   -4.5421953453    7.1648916995
H       -3.5229543781   -1.2125060587    5.2460237467
H       -1.8886608947   -0.7286551109    4.7765425776
H       -3.6601115292   -2.9348046898    6.5610953377
29   
torsion grid (-45,)
C       -5.2377672581   -4.9944304096    2.4729445655
C       -3.8909300617   -4.9416471020    2.1033740613
C       -5.8306260422   -3.8942174767    3.0933750678
C       -3.1093130724   -3.8116286097    2.3752235412
C       -5.0859842985   -2.7401405582    3.3798550861
C       -3.7209220401   -2.7360157157    3.0444469158
C       -1.9764423394   -2.6622832440    5.3328102867
C       -1.6663599687   -3.7286150700    1.9406967148
C       -5.7601006260   -1.5303952423    3.9879052619
C       -2.3768398839   -4.6561951647    6.7101468698
C       -2.6204475756   -1.4211588302    4.6979130570
N       -2.7843697469   -3.3563651292    6.1886843714
O       -0.8241029261   -3.0036106333    5.0736360597
O       -2.9300208369   -1.6193363700    3.3149874343
H       -5.8284252216   -5.8804957157    2.2551592854
H       -3.4361485156   -5.7866868556    1.5917696522
H       -6.8894492314   -3.9161318232    3.3429015349
H       -1.5158248477   -2.8795332543    1.2658024785
H       -0.9988739243   -3.5803423412    2.7927677239
H       -1.3726085152   -4.6418562136    1.4159774374
H       -5.7342468808   -1.5431104273    5.0853788323
H       -5.2824722086   -0.6043294374    3.6579180644
H       -6.8136436548   -1.4959407260    3.6967921750
H       -2.4647071581   -5.4399580103    5.9483605527
H       -3.0027104047   -4.9112018186    7.5683606502
H       -1.3345560422   -4.5990060852    7.0265589727
H       -3.5152017632   -1.1206299411    5.2562309806
H       -1.9008958515   -0.6017509299    4.7380092098
H       -3.7743077128   -3.1492667324    6.1647123973
29   
torsion grid (-30,)
C       -5.3367046024   -4.9644057596    2.5653019497
C       -3.9669177736   -4.9792955736    2.2848305584
C       -5.9284144332   -3.8094327221    3.0775613118
C       -3.1656317777   -3.8604558892    2.5413080362
C       -5.1644455741   -2.6620274299    3.3427396310
C       -3.7819588284   -2.7240163420    3.0967785491
C       -1.9311880581   -2.5393205399    5.3903792762
C       -1.6911916702   -3.8555492602    2.2159109450
C       -5.8274591615   -1.3968080274    3.8391028647
C       -2.1353711470   -4.7775556751    6.3852914994
C       -2.7095291296   -1.3820382927    4.7495050580
N       -2.7119055078   -3.5069537960    5.9606029950
O       -0.7028462142   -2.5941949464    5.3637894254
O       -2.9758653525   -1.6182724684    3.3586692340
H       -5.9435030969   -5.8431496417    2.3631272035
H       -3.5105385588   -5.8699260923    1.8591641854
H       -7.0007858286   -3.7832540267    3.2589651003
H       -1.4515036985   -3.0450860486    1.5202616402
H       -1.0745084685   -3.6956432274    3.1037202907
H       -1.3982444152   -4.8031323917    1.7559298073
H       -5.8875535811   -1.3621002577    4.9341037116
H       -5.2804632133   -0.5100484478    3.5097360248
H       -6.8513824291   -1.3305031460    3.4607588100
H       -1.9155873227   -5.4266320375    5.5288034188
H       -2.8367112669   -5.2845778774    7.0517791678
H       -1.2044672786   -4.5829631798    6.9192250948
H       -3.6432818517   -1.1952325099    5.2932738806
H       -2.0896984661   -0.4866606612    4.7955642823
H       -3.6975865782   -3.5000561277    5.7277195004
29   
torsion grid (-15,)
C       -5.4310669601   -4.9274619348    2.5398399818
C       -4.0524653170   -4.9821637742    2.3101587968
C       -6.0069817398   -3.7537976720    3.0267210082
C       -3.2316552036   -3.8834848860    2.5886055754
C       -5.2220276493   -2.6251207915    3.3112781185
C       -3.8343537586   -2.7233606994    3.1104718216
C       -1.9211900380   -2.4322196794    5.4500162194
C       -1.7442604183   -3.9233297513    2.3370773968
C       -5.8652514035   -1.3418335193    3.7844396158
C       -1.9246643673   -4.7434674399    6.2955033072
C       -2.7595004643   -1.3477348461    4.7588583373
N       -2.6149947223   -3.5510153413    5.8201129801
O       -0.7175796313   -2.2868001292    5.6583630769
O       -3.0083376487   -1.6358372400    3.3725751865
H       -6.0546409509   -5.7903909637    2.3214629956
H       -3.6054015081   -5.8891745659    1.9099918796
H       -7.0833903881   -3.6982298709    3.1739107182
H       -1.4403992029   -3.1174840331    1.6620761254
H       -1.1701655397   -3.7875465173    3.2581942065
H       -1.4550242992   -4.8781208966    1.8901281004
H       -5.9512062503   -1.3033164576    4.8773488071
H       -5.2873606066   -0.4706897632    3.4663762446
H       -6.8769979885   -1.2510533859    3.3794680587
H       -1.4921402050   -5.3191210463    5.4675473838
H       -2.6309254989   -5.3745978162    6.8397694474
H       -1.1176387483   -4.4419583422    6.9643332657
H       -3.7018286634   -1.1898455630    5.2966165260
H       -2.1789267132   -0.4261471412    4.7694473766
H       -3.5507045641   -3.6670573473    5.4506126004
29   
torsion grid (0,)
C       -5.3041148666   -4.0298960589    0.5058902561
C       -3.9865703106   -4.3681828137    0.8233946682
C       -6.0570088453   -3.2535320320    1.3888215595
C       -3.4088164391   -3.9431560437    2.0262931360
C       -5.5171234114   -2.8134336249    2.6056201551
C       -4.1956317559   -3.1785799616    2.9038550805
C       -4.7438615221   -3.3382615752    6.1647923889
C       -1.9787247515   -4.2803524261    2.3741979659
C       -6.3364973109   -1.9794840936    3.5608875549
C       -5.8633521915   -1.5288247185    7.4017704407
C       -3.6058867929   -3.6358080813    5.1816221945
N       -4.7422328410   -2.0548803320    6.6340148700
O       -5.5763436975   -4.1848236692    6.4848607480
O       -3.6042362503   -2.7145829013    4.0806829149
H       -5.7398176101   -4.3622393656   -0.4327185589
H       -3.3943284856   -4.9595870438    0.1288324859
H       -7.0792780545   -2.9823101829    1.1354297342
H       -1.4457723530   -3.3987945027    2.7423333382
H       -1.9222347833   -5.0413620386    3.1614677912
H       -1.4486409209   -4.6702513215    1.5013878137
H       -6.6765546855   -2.5754062196    4.4141923128
H       -5.7557261508   -1.1412141951    3.9555609896
H       -7.2223336006   -1.5802046728    3.0598103386
H       -6.7009394173   -1.2365726201    6.7553030318
H       -5.5334742229   -0.6605030467    7.9773609601
H       -6.2123541220   -2.3027259361    8.0862544307
H       -2.6425459620   -3.5130147305    5.6901232592
H       -3.6976746588   -4.6753932989    4.8619991295
H       -4.1689501967   -1.3963136529    6.1200611099
29   
torsion grid (15,)
C       -4.6289079314   -4.0553464607    0.0711956840
C       -3.4529251760   -3.8940300005    0.8092779005
C       -5.8667634623   -3.8008309224    0.6644790376
C       -3.4980167530   -3.4867535043    2.1481497548
C       -5.9549705222   -3.3936679701    2.0034553656
C       -4.7583460843   -3.2537853935    2.7218600384
C       -4.7621698084   -3.3136454199    6.4099962308
C       -2.2380511340   -3.2736407201    2.9534747899
C       -7.2895864026   -3.1078756714    2.6498855974
C       -3.3489921884   -1.7875306230    7.7310118042
C       -5.0192726207   -3.8525719920    5.0041115813
N       -3.6694367648   -2.5033926184    6.5035537767
O       -5.4895797951   -3.6150764790    7.3541190003
O       -4.8028182136   -2.8116397041    4.0437649307
H       -4.5788894553   -4.3692890564   -0.9681140694
H       -2.4888029329   -4.0805537949    0.3419435116
H       -6.7797508361   -3.9113337522    0.0836553717
H       -2.1439570555   -2.2268798267    3.2642261812
H       -2.2237323984   -3.8830634448    3.8633149361
H       -1.3531158205   -3.5304575560    2.3656761728
H       -7.6666681872   -3.9828619761    3.1927267830
H       -7.2135829582   -2.2874575733    3.3678933943
H       -8.0368233206   -2.8455543519    1.8960754776
H       -3.8547836056   -0.8152049359    7.7808069148
H       -2.2684402514   -1.6330036306    7.7942485222
H       -3.6769610421   -2.3902101417    8.5784135354
H       -4.3234943757   -4.6820261555    4.8131463276
H       -6.0312017904   -4.2651627557    4.9751644988
H       -3.3050014021   -2.1547888834    5.6248195780
29   
torsion grid (30,)
C       -4.5988958189   -4.0556427468    0.0765615584
C       -3.4353914367   -3.9029431521    0.8358076370
C       -5.8450579462   -3.7890670228    0.6467515834
C       -3.5021379052   -3.4907345212    2.1724258187
C       -5.9537935508   -3.3772859026    1.9828001708
C       -4.7700042883   -3.2438012955    2.7231126389
C       -4.7045621644   -3.3466750637    6.4090481193
C       -2.2553616297   -3.2877800931    3.0001457025
C       -7.2978312217   -3.0823282667    2.6049056926
C       -3.3105788329   -1.7622360346    7.6827399052
C       -5.0772087237   -3.8269577237    5.0086488629
N       -3.7286639602   -2.3993961094    6.4424522921
O       -5.2482859149   -3.8295797734    7.4013170310
O       -4.8338554340   -2.7972319414    4.0428380185
H       -4.5326884386   -4.3733108759   -0.9607043229
H       -2.4644598051   -4.1003762950    0.3874126368
H       -6.7483968537   -3.8946229899    0.0501485643
H       -2.1403698902   -2.2355586288    3.2845365415
H       -2.2779234436   -3.8688956489    3.9276659018
H       -1.3649932290   -3.5830563673    2.4392388438
H       -7.6850564972   -3.9518169141    3.1495075125
H       -7.2312856108   -2.2550069242    3.3160986374
H       -8.0325464020   -2.8253286137    1.8371188738
H       -3.8913325492   -0.8550677670    7.8905664349
H       -2.2501835981   -1.5018841996    7.6238085929
H       -3.4644269358   -2.4655527870    8.5018150039
H       -4.4663124661   -4.7100575423    4.7779017552
H       -6.1226685143   -4.1479109505    5.0267663882
H       -3.4962997547   -1.9702376070    5.5547928215
29   
torsion grid (45,)
C       -4.6079634693   -3.9778904241   -0.0794518521
C       -3.4775537850   -3.8808304771    0.7367675987
C       -5.8729789743   -3.6993290436    0.4418732786
C       -3.5958416621   -3.5104232028    2.0821759059
C       -6.0330345652   -3.3292578233    1.7848447977
C       -4.8817631012   -3.2483863551    2.5813959628
C       -4.8658170420   -3.5119874902    6.2555908819
C       -2.3850831684   -3.3691614387    2.9735686215
C       -7.3970644943   -3.0304111188    2.3596122333
C       -3.6156903982   -1.8727105249    7.6148766185
C       -5.2783412883   -3.8997713619    4.8383627406
N       -4.0703370612   -2.4148452463    6.3440403394
O       -5.2361979840   -4.1962371655    7.2093607963
O       -4.9976742579   -2.8441439189    3.9105189748
H       -4.5014283352   -4.2630134647   -1.1227979439
H       -2.4920076867   -4.0894721507    0.3269966758
H       -6.7499531490   -3.7634097885   -0.1983439629
H       -2.2593044253   -2.3322439432    3.3045211085
H       -2.4656767761   -3.9818536654    3.8770545013
H       -1.4768415199   -3.6665804887    2.4433208104
H       -7.8171082893   -3.9096324704    2.8629933622
H       -7.3481959585   -2.2244613887    3.0963833502
H       -8.0966374081   -2.7411101207    1.5707617101
H       -4.1626399769   -0.9599781266    7.8795496921
H       -2.5458242895   -1.6462326044    7.5703417024
H       -3.7925711457   -2.6229168487    8.3862589083
H       -4.7266128201   -4.8070465005    4.5645243777
H       -6.3441057819   -4.1496937178    4.8528737185
H       -3.9115600164   -1.9040467982    5.4840478817
29   
torsion grid (60,)
C       -4.9807677886   -4.0238060162    0.2010255140
C       -3.6931935542   -4.2166970578    0.7051088739
C       -5.9783709684   -3.4831224261    1.0174020148
C       -3.3805303549   -3.8827264515    2.0306732106
C       -5.7051051578   -3.1347670244    2.3458401699
C       -4.4039406257   -3.3501852801    2.8278136409
C       -4.5179428074   -3.4651315219    6.5005269948
C       -1.9915181387   -4.0893571453    2.5859276425
C       -6.7591929638   -2.5269147222    3.2399852694
C       -4.9731301757   -1.4167352104    7.8048095026
C       -4.2240386027   -4.0195332291    5.1092982757
N       -4.6825014615   -2.1196469086    6.5655076674
O       -4.5986998142   -4.2369484522    7.4565143401
O       -4.1233363967   -2.9687922039    4.1386733960
H       -5.2059097277   -4.2873103600   -0.8290778215
H       -2.9155386049   -4.6267615930    0.0646274637
H       -6.9786981112   -3.3258259306    0.6207796627
H       -1.7306126121   -3.3042314651    3.3003143722
H       -1.9116647473   -5.0496881770    3.1096482244
H       -1.2484301703   -4.0925706467    1.7839096450
H       -6.9037826498   -3.1086692049    4.1560999463
H       -6.4767359266   -1.5146324875    3.5492771873
H       -7.7199456967   -2.4678696260    2.7222966673
H       -5.9557914058   -0.9335410990    7.7622274603
H       -4.2116740781   -0.6560154027    8.0078156558
H       -4.9726404297   -2.1473541795    8.6143450372
H       -3.2890118225   -4.5880769271    5.1646256195
H       -5.0270927656   -4.7171956738    4.8492270704
H       -4.5949895791   -1.6108827926    5.6942017306
29   
torsion grid (75,)
C       -4.9607702035   -4.0318712475    0.2089705178
C       -3.6802109537   -4.2413766544    0.7243156481
C       -5.9556901490   -3.4752145700    1.0175658808
C       -3.3727600235   -3.9107302290    2.0518203009
C       -5.6885807131   -3.1282247799    2.3476957302
C       -4.3949031542   -3.3633785412    2.8409178714
C       -4.4331375538   -3.4749971159    6.5221132874
C       -1.9896087535   -4.1322724482    2.6158663831
C       -6.7407211623   -2.4977209433    3.2287567005
C       -4.9976536167   -1.4463323557    7.8130968798
C       -4.2345729197   -4.0427630600    5.1194131684
N       -4.8094722248   -2.1708397206    6.5658589494
O       -4.2728851979   -4.2000751092    7.5039651422
O       -4.1176002057   -2.9852245844    4.1535227869
H       -5.1816638781   -4.2935416455   -0.8225375829
H       -2.9030104726   -4.6622468232    0.0903735890
H       -6.9502205073   -3.3030072706    0.6126658692
H       -1.7185965464   -3.3412247564    3.3199355598
H       -1.9264092180   -5.0857928239    3.1539668920
H       -1.2440347205   -4.1593310792    1.8166561710
H       -6.8948475455   -3.0625407696    4.1537761807
H       -6.4512963046   -1.4820677598    3.5210048695
H       -7.6989641743   -2.4377385941    2.7064835118
H       -6.0032941345   -1.0153289765    7.8642474909
H       -4.2603422605   -0.6421957166    7.9155129562
H       -4.8701394605   -2.1517478870    8.6347947668
H       -3.3387594639   -4.6703146150    5.1297636222
H       -5.1016795522   -4.6692029641    4.8793391542
H       -4.8162630589   -1.6765925867    5.6818217223
29   
torsion grid (90,)
C       -4.9675784984   -4.1057756246    0.3226778209
C       -3.6688710600   -4.2971073934    0.7976777427
C       -5.9380332251   -3.5373341513    1.1525631540
C       -3.3193495717   -3.9364766501    2.1069692917
C       -5.6275744985   -3.1620021376    2.4653391342
C       -4.3170875707   -3.3798605705    2.9210727743
C       -4.0734613187   -3.4113181196    6.5985710302
C       -1.9141571268   -4.1343671847    2.6234909236
C       -6.6533226878   -2.5171558378    3.3669680617
C       -4.7021992393   -1.4296349846    7.9161114786
C       -4.0485242929   -4.0204691132    5.1986715697
N       -4.6794086235   -2.1958190881    6.6778440688
O       -3.5996994997   -4.0199044396    7.5570520575
O       -3.9995254290   -2.9711957547    4.2153357262
H       -5.2215722058   -4.3897895938   -0.6951875300
H       -2.9104429939   -4.7253908771    0.1461082042
H       -6.9465373223   -3.3780185552    0.7780099428
H       -1.6334290475   -3.3403403174    3.3201356643
H       -1.8145982680   -5.0882127009    3.1554489276
H       -1.1961683983   -4.1458125378    1.7989835948
H       -6.7751422076   -3.0633275556    4.3080473829
H       -6.3597847883   -1.4935622944    3.6262496863
H       -7.6285606513   -2.4724084500    2.8754827586
H       -5.5571339266   -0.7487421154    7.9055176876
H       -3.7818307006   -0.8490128492    8.0547467432
H       -4.8014575828   -2.1205176414    8.7542323888
H       -3.1815954183   -4.6812388283    5.1252142524
H       -4.9666453176   -4.6031086445    5.0516828301
H       -4.8462006973   -1.7260391301    5.7959879655
29   
torsion grid (105,)
C       -4.9691498680   -4.1116691313    0.3670122866
C       -3.6758375423   -4.3197366940    0.8493634767
C       -5.9375456996   -3.5310924295    1.1910575492
C       -3.3291373889   -3.9650367809    2.1611263214
C       -5.6303185180   -3.1615664463    2.5060679921
C       -4.3256998538   -3.3979014753    2.9695274979
C       -4.0010521565   -3.4247351974    6.6363736357
C       -1.9287418268   -4.1787928936    2.6847309148
C       -6.6534391402   -2.5044966690    3.4021005503
C       -4.6712556393   -1.4900139116    7.9994069166
C       -4.0911738501   -4.0495858228    5.2445757938
N       -4.7520035910   -2.2967433220    6.7886369764
O       -3.3130884997   -3.9257739856    7.5235185732
O       -4.0107339554   -2.9965026402    4.2666620277
H       -5.2204507742   -4.3912003319   -0.6527602681
H       -2.9188368033   -4.7560801162    0.2014663952
H       -6.9411509177   -3.3572222537    0.8098750860
H       -1.6502161573   -3.3999161973    3.3988419084
H       -1.8369282642   -5.1431842608    3.1987334965
H       -1.2046165027   -4.1772401723    1.8654534658
H       -6.8247873491   -3.0780895406    4.3194843591
H       -6.3257979145   -1.5029822912    3.7029385495
H       -7.6127586676   -2.4040542727    2.8880777874
H       -5.5728799036   -0.8785221643    8.0861434691
H       -3.7903664902   -0.8360580997    7.9984252658
H       -4.6030493506   -2.1547837133    8.8613631377
H       -3.2781153984   -4.7699325758    5.1328884462
H       -5.0605172090   -4.5520476829    5.1302647339
H       -5.0613185167   -1.8571845909    5.9298525918
29   
torsion grid (120,)
C       -4.9360184850   -4.1200466123    0.3352706507
C       -3.6530278919   -4.3343376469    0.8419248901
C       -5.9125197768   -3.5213633003    1.1365256451
C       -3.3246124147   -3.9677807819    2.1551964043
C       -5.6230646649   -3.1408254236    2.4523980179
C       -4.3286863347   -3.3828309090    2.9413682941
C       -3.9255358002   -3.3560009931    6.5928590734
C       -1.9343826544   -4.1855756239    2.7034781384
C       -6.6551473450   -2.4662908245    3.3249547526
C       -4.6474344933   -1.4872706996    8.0196553974
C       -4.1271594524   -4.0094511052    5.2252440847
N       -4.8141385877   -2.3520766164    6.8577062821
O       -3.0355526459   -3.7103988469    7.3620229339
O       -4.0304960134   -2.9657941583    4.2369872476
H       -5.1725476456   -4.4079657470   -0.6857143724
H       -2.8891702842   -4.7841180057    0.2114707411
H       -6.9077462912   -3.3415843789    0.7364631594
H       -1.6623113113   -3.4021727833    3.4149928386
H       -1.8567428740   -5.1453354410    3.2284157362
H       -1.1974424085   -4.1968664058    1.8957796204
H       -6.8814872624   -3.0562915781    4.2204813931
H       -6.3032044136   -1.4849894339    3.6615296023
H       -7.5913345108   -2.3218096155    2.7796653818
H       -5.6005913463   -1.0046729051    8.2497177613
H       -3.8828595376   -0.7183234757    7.8527105967
H       -4.3393611606   -2.0976317013    8.8692373581
H       -3.3590551437   -4.7722502987    5.0841175660
H       -5.1282447778   -4.4548285660    5.1568975212
H       -5.3006252433   -1.9761355428    6.0522429488
29   
torsion grid (135,)
C       -5.9917397823   -3.8948467495    1.0756864804
C       -4.6137111290   -4.0903969902    0.9378027076
C       -6.4932170974   -3.2582435275    2.2113177969
C       -3.7216582261   -3.6297500246    1.9127160093
C       -5.6341603699   -2.7886347720    3.2174850198
C       -4.2515090435   -2.9614816551    3.0326951451
C       -2.4333164076   -0.5539399462    2.8021899830
C       -2.2328359387   -3.8394692014    1.7837701643
C       -6.1922692875   -2.1500461763    4.4685914658
C       -2.6980796914   -0.0691395626    0.4016311781
C       -3.1364531916   -1.0957413226    4.0544687178
N       -3.2474535057   -0.3646585724    1.7191777583
O       -1.2289886390   -0.3038687279    2.7935689283
O       -3.3543953682   -2.5174373623    3.9974933617
H       -6.6721571427   -4.2552375935    0.3086813604
H       -4.2236303615   -4.6059508170    0.0632836776
H       -7.5670517887   -3.1358593411    2.3351084049
H       -1.6901180993   -2.8915392215    1.7249723710
H       -1.8359882599   -4.3692431250    2.6550164425
H       -2.0027237658   -4.4224581688    0.8880954726
H       -5.5351838817   -2.3206355591    5.3248359548
H       -6.3180670787   -1.0660795755    4.3562917836
H       -7.1769422782   -2.5648766300    4.7014398618
H       -3.4646962707    0.4126600653   -0.2098986851
H       -2.3521117888   -0.9782537202   -0.1062028014
H       -1.8500717960    0.6062250835    0.5188195388
H       -2.4708126300   -0.9359241692    4.9015376810
H       -4.0823899235   -0.5688017442    4.2252196201
H       -4.1730315245   -0.7745102500    1.7552588823
29   
torsion grid (150,)
C       -5.9396550091   -3.8879874091    1.0611817608
C       -4.5629971907   -4.0985159477    0.9356445293
C       -6.4425641137   -3.2392985302    2.1892770531
C       -3.6704916616   -3.6388272895    1.9113937087
C       -5.5835177475   -2.7695203502    3.1951277855
C       -4.2009362908   -2.9528803305    3.0195805384
C       -2.4067499891   -0.6031019589    2.7077013045
C       -2.1850827309   -3.8828850879    1.7959238757
C       -6.1448562824   -2.1228509384    4.4412184237
C       -2.7630906963   -0.0236011592    0.3402496144
C       -3.1044325982   -1.0712428971    3.9911851618
N       -3.2549719030   -0.2520528278    1.6935523657
O       -1.1817733900   -0.5851792223    2.6015807272
O       -3.3087640405   -2.4945853684    3.9863120919
H       -6.6183045070   -4.2492947865    0.2929470755
H       -4.1728520744   -4.6293826833    0.0703312140
H       -7.5161630303   -3.1090169360    2.3077449523
H       -1.6223016912   -2.9518754268    1.6889447089
H       -1.8009081995   -4.3744911881    2.6946832580
H       -1.9685191121   -4.5180166990    0.9327771166
H       -5.4847875130   -2.2792194378    5.2977816776
H       -6.2817860172   -1.0410083714    4.3200492511
H       -7.1253406321   -2.5444750831    4.6797646444
H       -3.4790128263    0.5948845370   -0.2063999655
H       -2.6152037043   -0.9671471977   -0.1996223548
H       -1.8061099267    0.4956585508    0.3994972632
H       -2.4491994340   -0.8646312220    4.8368915088
H       -4.0634062627   -0.5578037600    4.1253307151
H       -4.2292119629   -0.5087694879    1.7965139781
29   
torsion grid (165,)
C       -5.8964425979   -4.2846645995    1.9960906568
C       -4.6165203139   -4.7861185266    2.2351382191
C       -6.1701997849   -2.9356187116    2.2381609477
C       -3.6021576381   -3.9614486817    2.7446452457
C       -5.1889535096   -2.0783465415    2.7519123574
C       -3.9215015674   -2.6223772880    3.0290983657
C       -3.8344000906   -1.9985172049    5.8307951101
C       -2.2019099306   -4.5029030127    2.9290883636
C       -5.4630435987   -0.6110541710    2.9746185833
C       -5.4728775581   -3.4010696784    7.0048371232
C       -2.6018176134   -2.0023703235    4.9149994089
N       -4.2087930140   -3.2273106694    6.2976088599
O       -4.4390207830   -0.9640678485    6.1055323877
O       -2.9559337306   -1.7598921556    3.5471028584
H       -6.6710826431   -4.9354951450    1.5988660034
H       -4.3883688421   -5.8250544985    2.0061895476
H       -7.1584675451   -2.5363960006    2.0222631209
H       -1.4532206335   -3.7197246869    2.7850853011
H       -2.0453805409   -4.9311982359    3.9278033584
H       -2.0056293570   -5.3016891751    2.2084441565
H       -5.3198054261   -0.3309193811    4.0208155712
H       -4.7760498891    0.0029438629    2.3829172531
H       -6.4866169124   -0.3648409362    2.6791210596
H       -5.4664532044   -4.3643996222    7.5197801702
H       -6.3263468701   -3.3595868198    6.3176838709
H       -5.5813197096   -2.6000885287    7.7372255858
H       -1.9499048573   -1.1768832120    5.2039173824
H       -2.0538630977   -2.9476676185    5.0005406828
H       -3.8154336719   -4.0375799836    5.8367278066
29   
torsion grid (180,)
C       -5.8984109696   -4.1837209473    1.7351799589
C       -4.6629650058   -4.7271459209    2.0871720370
C       -6.1512693302   -2.8287774371    1.9660150526
C       -3.6740758085   -3.9394884096    2.6959213656
C       -5.1959440201   -2.0082167444    2.5777317466
C       -3.9763326034   -2.5933495793    2.9652201718
C       -3.9637655200   -2.0952529749    5.8190934280
C       -2.3135682894   -4.5313277986    2.9892749729
C       -5.4458532008   -0.5375829412    2.7987153930
C       -5.2547250999   -3.4930958633    7.3781471256
C       -2.7192712038   -2.0301552723    4.9200134614
N       -4.0829794193   -3.2457982196    6.5457072927
O       -4.7691449204   -1.1709565577    5.8958080312
O       -3.0346938475   -1.7514272629    3.5576390623
H       -6.6525789143   -4.8065744707    1.2610531396
H       -4.4465679996   -5.7709874164    1.8693868341
H       -7.1029279968   -2.3963008257    1.6661086136
H       -1.5239637478   -3.7816184552    2.8903706052
H       -2.2492275058   -4.9523650881    4.0013091417
H       -2.0971288319   -5.3470927533    2.2938966509
H       -5.3900743946   -0.2891701953    3.8611787041
H       -4.6888935433    0.0652389251    2.2858864862
H       -6.4300054131   -0.2546588598    2.4149806742
H       -5.0259136327   -4.2851611263    8.0948611741
H       -6.1227871554   -3.7854162069    6.7757452507
H       -5.5047473750   -2.5781233763    7.9170653049
H       -2.0983302325   -1.1960764112    5.2554656046
H       -2.1366035689   -2.9549954654    4.9983912527
H       -3.5076173110   -4.0347832430    6.2839190581
