23   
torsion grid (-165,)
C        1.9874574935   -1.0315595657   -0.0110065377
C        0.8510727320   -0.6187423834    0.6976559295
C        2.0351758026   -0.9993360723    2.7857293356
C        3.1766621265   -1.4113600620    2.0880520042
C        3.1229861696   -1.4154867742    0.6814471103
C        0.8788750150   -0.5981359011    2.0939204132
C        5.8153300619   -2.3425250998    4.4496127896
C       -0.1761976763    1.6920916601    3.2533354494
C        4.4285572284   -1.8453914803    4.0825552542
O        4.3457608936   -1.8195338680    2.6506674464
F        4.2196239801   -1.8155287726   -0.0030429351
S       -0.5682612051   -0.0867829304    3.0230433348
H        2.0003237218   -1.0597433444   -1.0964852167
H       -0.0468177634   -0.3185825790    0.1673636223
H        2.0238409947   -0.9905774283    3.8689309891
H        5.9827071110   -3.3471008768    4.0512139657
H        6.5834909892   -1.6771232256    4.0456781855
H        5.9210170572   -2.3770626297    5.5386766342
H        0.8564851920    1.8087991744    3.5900361589
H       -0.8427810743    2.0690820616    4.0333501111
H       -0.3293493405    2.2554233365    2.3300336387
H        4.2545276617   -0.8360317463    4.4784983025
H        3.6526288091   -2.5108837947    4.4829631512
23   
torsion grid (-150,)
C        2.0071534203   -1.0456906403   -0.0262291832
C        0.8670406479   -0.6298237998    0.6747854678
C        2.0362368047   -1.0014360467    2.7733310871
C        3.1813686395   -1.4149670976    2.0826359998
C        3.1380418983   -1.4257840869    0.6755862960
C        0.8852340943   -0.6023547565    2.0711183123
C        5.8047861622   -2.3356191952    4.4648361085
C       -0.1753315936    1.6866245260    3.2618849017
C        4.4201852316   -1.8407462980    4.0866992115
O        4.3468923468   -1.8204768349    2.6541873258
F        4.2396500167   -1.8284832023    0.0006656446
S       -0.5692506559   -0.0902114544    2.9881074406
H        2.0267424875   -1.0780608905   -1.1115053283
H       -0.0269983304   -0.3304691421    0.1377887464
H        2.0178484078   -0.9895175234    3.8563988642
H        5.9753847449   -3.3416185112    4.0714289317
H        6.5752225810   -1.6713137044    4.0634321280
H        5.9032712716   -2.3658950216    5.5546989604
H        0.9053417551    1.8094113191    3.3609540636
H       -0.6430934797    1.9904639705    4.2015949139
H       -0.5415657663    2.3066516287    2.4409626844
H        4.2428869246   -0.8299675140    4.4775509143
H        3.6419680938   -2.5051322400    4.4844764550
23   
torsion grid (-135,)
C        2.0265509143   -1.0590745083   -0.0378897538
C        0.8817763638   -0.6400907840    0.6537372125
C        2.0383176502   -1.0048466258    2.7596221642
C        3.1892906320   -1.4199912495    2.0796457014
C        3.1532538581   -1.4358005153    0.6724163972
C        0.8910504918   -0.6072971672    2.0500668110
C        5.7987690850   -2.3309707880    4.4812475377
C       -0.1720708592    1.6769657305    3.2733715866
C        4.4160632490   -1.8385107039    4.0931399314
O        4.3515146076   -1.8226224514    2.6601399408
F        4.2589029862   -1.8404448986    0.0054679740
S       -0.5715253505   -0.0955811531    2.9538484585
H        2.0531140031   -1.0953910351   -1.1229034982
H       -0.0081615135   -0.3410896003    0.1099637532
H        2.0125834257   -0.9900772887    3.8423455575
H        5.9726679229   -3.3380033351    4.0919539133
H        6.5710573593   -1.6671908160    4.0825398508
H        5.8906304091   -2.3578507995    5.5717789222
H        0.8960892110    1.8377861423    3.1175951570
H       -0.4098915326    1.9059278783    4.3147551512
H       -0.7393083491    2.3297694628    2.6063818460
H        4.2354588443   -0.8267180888    4.4798314360
H        3.6360467882   -2.5024311968    4.4881492638
23   
torsion grid (-120,)
C        2.0338263819   -1.0411451459   -0.0300541976
C        0.8879974867   -0.6248047120    0.6612205532
C        2.0391016982   -1.0034849082    2.7676557944
C        3.1906472119   -1.4176401923    2.0877119489
C        3.1582328444   -1.4247113871    0.6804696169
C        0.8942737854   -0.5996908824    2.0579515602
C        5.7922741058   -2.3474191733    4.4904861844
C       -0.1906975772    1.6952137150    3.2535798893
C        4.4114930823   -1.8501062512    4.1017366179
O        4.3507918433   -1.8254244175    2.6686527654
F        4.2645202453   -1.8276462782    0.0135359159
S       -0.5705386091   -0.0882606530    2.9582285942
H        2.0626309271   -1.0715534223   -1.1151972126
H       -0.0004686383   -0.3218595790    0.1172782736
H        2.0117891179   -0.9928215804    3.8502951474
H        5.9654193805   -3.3523913036    4.0955696135
H        6.5668095245   -1.6826222863    4.0978774501
H        5.8811729238   -2.3810602601    5.5810768623
H        0.7808970779    1.9331776000    2.8184317364
H       -0.1641904693    1.8952376294    4.3271292962
H       -0.9565084654    2.3164084732    2.7837261168
H        4.2316849496   -0.8403528131    4.4940337975
H        3.6292200771   -2.5149946143    4.4906072274
23   
torsion grid (-105,)
C        2.0515147310   -1.0438747234   -0.0348203115
C        0.9019869262   -0.6280753070    0.6505848961
C        2.0422006454   -1.0076522907    2.7627372539
C        3.1977591873   -1.4207064068    2.0889523213
C        3.1722901121   -1.4272012953    0.6815929673
C        0.9009151381   -0.6043226898    2.0473733924
C        5.7883198882   -2.3490993214    4.5043237592
C       -0.1803514618    1.6851163871    3.2438609516
C        4.4089558368   -1.8530299379    4.1089718874
O        4.3553857577   -1.8275553361    2.6756384194
F        4.2821969955   -1.8292882795    0.0201590703
S       -0.5706992547   -0.0915705517    2.9357614086
H        2.0859321636   -1.0741813337   -1.1198073372
H        0.0162006950   -0.3250677064    0.1022554906
H        2.0094159300   -0.9976555853    3.8452493501
H        5.9645140963   -3.3536491934    4.1096796593
H        6.5640760564   -1.6832344130    4.1159598264
H        5.8718455074   -2.3832917407    5.5953241436
H        0.6280964353    2.0020130005    2.5836978650
H        0.1014576395    1.8458216745    4.2870431758
H       -1.0732852920    2.2746344662    3.0215873319
H        4.2261573809   -0.8436915370    4.5009480478
H        3.6254940399   -2.5190143367    4.4935751600
23   
torsion grid (-90,)
C        1.7528767102   -1.0744119698    0.0623905184
C        0.6836496522   -0.6484930233    0.8617047310
C        2.0479544593   -0.9915281995    2.8433919045
C        3.1236825781   -1.4172313050    2.0548431787
C        2.9454742321   -1.4465210963    0.6590400053
C        0.8347997009   -0.6017168487    2.2497820218
C        5.9632218604   -2.3048696028    4.1892795932
C       -0.1420716487    1.7189694337    3.4471558893
C        4.5483866875   -1.8148223969    3.9380134384
O        4.3388584617   -1.8145939853    2.5188492947
F        3.9774186117   -1.8597684098   -0.1126073882
S       -0.5315619524   -0.0719256848    3.2847182549
H        1.6691584045   -1.1232937868   -1.0192255389
H       -0.2582349785   -0.3577251433    0.4081799080
H        2.1337378133   -0.9612631532    3.9226978844
H        6.0965344742   -3.3163601722    3.7955439710
H        6.6912058841   -1.6465300272    3.7069666851
H        6.1652545322   -2.3198600892    5.2650996158
H        0.3342885474    2.0822297533    2.5350201475
H        0.4957671827    1.9109686172    4.3132955948
H       -1.0906321350    2.2443130808    3.5865404677
H        4.4082721847   -0.7985882991    4.3297340358
H        3.8123342811   -2.4733351089    4.4174574236
23   
torsion grid (-75,)
C        1.7663001161   -1.0724320136    0.0568641024
C        0.6925676497   -0.6501125646    0.8519971164
C        2.0479130393   -0.9945509157    2.8396033076
C        3.1278979644   -1.4168412672    2.0551442385
C        2.9566942484   -1.4437050067    0.6584038042
C        0.8368354568   -0.6065234949    2.2407872540
C        5.9583241489   -2.3043914513    4.2016318989
C       -0.1368803344    1.7065007085    3.4262886739
C        4.5439986019   -1.8160058498    3.9443401221
O        4.3414416578   -1.8133108743    2.5241982859
F        3.9931501801   -1.8535418652   -0.1090551672
S       -0.5331751263   -0.0793559464    3.2724418271
H        1.6879478600   -1.1190894477   -1.0252426776
H       -0.2478325732   -0.3605406881    0.3944398841
H        2.1282888743   -0.9669811743    3.9195066794
H        6.0951128456   -3.3149064937    3.8065886243
H        6.6876608875   -1.6440055412    3.7241878245
H        6.1550760241   -2.3211739829    5.2784036695
H        0.0917038421    2.1320921186    2.4470851406
H        0.6962535545    1.8705967871    4.1140409570
H       -1.0289344791    2.1936533680    3.8293403799
H        4.4004483432   -0.8007548016    4.3373902036
H        3.8066014888   -2.4765602201    4.4188950755
23   
torsion grid (-60,)
C        1.7668344042   -1.0590538919    0.0574299192
C        0.6904119399   -0.6341281240    0.8476501402
C        2.0349778129   -0.9835241522    2.8415922083
C        3.1177401795   -1.4081538726    2.0624539286
C        2.9530926375   -1.4337897618    0.6647980685
C        0.8277615962   -0.5920603127    2.2370441735
C        5.9350107141   -2.3053712800    4.2222894459
C       -0.1348544355    1.7189446681    3.4226751785
C        4.5234728570   -1.8125113546    3.9583253711
O        4.3277126354   -1.8088004863    2.5372421952
F        3.9922725963   -1.8459987511   -0.0976476519
S       -0.5433120600   -0.0625899504    3.2660564397
H        1.6939119439   -1.1044444384   -1.0251089600
H       -0.2467908420   -0.3415615284    0.3854363035
H        2.1095343203   -0.9575572435    3.9220072482
H        6.0705325855   -3.3161957969    3.8276023594
H        6.6687086416   -1.6471403721    3.7485682618
H        6.1264984362   -2.3230896739    5.2999931863
H       -0.1470454394    2.2065125658    2.4451032624
H        0.8431992893    1.8538427068    3.8906222275
H       -0.9033592180    2.1658430635    4.0589087658
H        4.3811788831   -0.7969314649    4.3510103471
H        3.7817613467   -2.4708876407    4.4291632518
23   
torsion grid (-45,)
C        1.7754409839   -1.0582298138    0.0499825727
C        0.6947119219   -0.6301177639    0.8328305931
C        2.0283572507   -0.9784153545    2.8343105292
C        3.1150674279   -1.4051363263    2.0620084607
C        2.9583763724   -1.4332760553    0.6633831134
C        0.8248060583   -0.5858110323    2.2227304225
C        5.9184139819   -2.3029440036    4.2395278969
C       -0.1341796851    1.7246291563    3.4248092084
C        4.5091504873   -1.8085018642    3.9665555612
O        4.3216997498   -1.8067307887    2.5443401484
F        4.0011989725   -1.8478712615   -0.0928070660
S       -0.5495847186   -0.0555056533    3.2466477287
H        1.7084560224   -1.1048982298   -1.0328587098
H       -0.2391098703   -0.3363127975    0.3647034387
H        2.0965097325   -0.9515615074    3.9151202505
H        6.0547809101   -3.3145833719    3.8472288563
H        6.6558162155   -1.6465165022    3.7690649846
H        6.1035671657   -2.3192314339    5.3183580227
H       -0.3746706472    2.2752725832    2.5120198399
H        0.9280708195    1.8442454028    3.6489285614
H       -0.7296697540    2.1161390579    4.2533017720
H        4.3659518565   -0.7921197498    4.3568479136
H        3.7637378908   -2.4650784367    4.4340331785
23   
torsion grid (-30,)
C        1.7842801169   -1.0528937506    0.0459791596
C        0.7016267954   -0.6227207423    0.8250039315
C        2.0253437172   -0.9737739759    2.8328433378
C        3.1143186343   -1.4026074534    2.0648355981
C        2.9632729319   -1.4301371081    0.6655361633
C        0.8256476734   -0.5778603968    2.2155193273
C        5.9066774916   -2.3077710096    4.2534939647
C       -0.1464954143    1.7387468525    3.4239488198
C        4.4996948645   -1.8098799920    3.9750847751
O        4.3180795313   -1.8068359598    2.5520636434
F        4.0086556450   -1.8468046482   -0.0858448891
S       -0.5523525340   -0.0469113589    3.2340150960
H        1.7219525384   -1.0992016128   -1.0371826975
H       -0.2294086789   -0.3264663298    0.3530951862
H        2.0888019473   -0.9465740547    3.9138326786
H        6.0422743377   -3.3195311503    3.8612401950
H        6.6475191890   -1.6528384482    3.7863560890
H        6.0874305419   -2.3250195444    5.3330536850
H       -0.6068430110    2.3290730379    2.6278203357
H        0.9358201905    1.8765470710    3.3880795761
H       -0.5284274068    2.0704723432    4.3922297879
H        4.3572483611   -0.7934048934    4.3653867058
H        3.7508169893   -2.4649675118    4.4390696518
23   
torsion grid (-15,)
C        1.8025546064   -1.0670320011    0.0316646364
C        0.7152013048   -0.6338180560    0.8025170397
C        2.0265429603   -0.9776116081    2.8195706550
C        3.1206937308   -1.4080092805    2.0598210458
C        2.9780316944   -1.4410253024    0.6597293168
C        0.8305882063   -0.5833066993    2.1936500265
C        5.9005818208   -2.3024694181    4.2686778642
C       -0.1430880976    1.7318330590    3.4330539238
C        4.4946911890   -1.8073777792    3.9799528972
O        4.3217742222   -1.8094882980    2.5558381407
F        4.0281555546   -1.8599302803   -0.0837247483
S       -0.5564572516   -0.0513560264    3.1990851536
H        1.7467160919   -1.1173185317   -1.0516834343
H       -0.2124432322   -0.3379703142    0.3239292946
H        2.0832741716   -0.9475225104    3.9007602478
H        6.0398997280   -3.3153693900    3.8806943138
H        6.6434363589   -1.6481447103    3.8038888395
H        6.0747169706   -2.3158402007    5.3493807634
H       -0.7834871221    2.3564012965    2.8056653322
H        0.8985613692    1.9016500341    3.1562201530
H       -0.2906592389    1.9941461290    4.4829803071
H        4.3485174928   -0.7897419659    4.3658229848
H        3.7438336633   -2.4618507763    4.4416001978
23   
torsion grid (0,)
C        1.8107019577   -1.0503719667    0.0384374702
C        0.7218777577   -0.6196927503    0.8084792664
C        2.0278200501   -0.9752784455    2.8266445536
C        3.1229368289   -1.4047225774    2.0674358343
C        2.9842121790   -1.4301899864    0.6669469111
C        0.8340112721   -0.5756968769    2.2002881583
C        5.8946779666   -2.3161271052    4.2794528747
C       -0.1633590182    1.7477274785    3.4165702412
C        4.4906907305   -1.8165091736    3.9892812177
O        4.3220497437   -1.8104526349    2.5646431669
F        4.0352155947   -1.8474002456   -0.0762694059
S       -0.5558068366   -0.0445753339    3.2024463550
H        1.7571580061   -1.0955552808   -1.0452499220
H       -0.2043501057   -0.3207010296    0.3291578990
H        2.0828663952   -0.9488379871    3.9079378430
H        6.0330354237   -3.3272130763    3.8864247429
H        6.6402692713   -1.6608628492    3.8204048949
H        6.0655856584   -2.3356810627    5.3605781554
H       -0.9694051911    2.3528764298    2.9954698548
H        0.7670353402    1.9773270878    2.8954531838
H       -0.0491275007    1.9773908864    4.4783604034
H        4.3454986545   -0.8006973540    4.3802597971
H        3.7370810299   -2.4719283694    4.4450648251
23   
torsion grid (15,)
C        1.8119779713   -1.0174751950    0.0544929845
C        0.7230888214   -0.5908447886    0.8262210466
C        2.0254519403   -0.9677973762    2.8449683675
C        3.1193981129   -1.3958364585    2.0831071420
C        2.9825849180   -1.4077198677    0.6824298216
C        0.8347013933   -0.5600098591    2.2186581815
C        5.8851722451   -2.3368303266    4.2902217448
C       -0.1889991883    1.7693659224    3.3830311017
C        4.4835385488   -1.8290014774    4.0029038995
O        4.3164475164   -1.8101515384    2.5781810330
F        4.0331075675   -1.8224705631   -0.0628047035
S       -0.5558133029   -0.0312539038    3.2209543636
H        1.7602084145   -1.0538027079   -1.0296188153
H       -0.2025118583   -0.2869582437    0.3485061816
H        2.0795295957   -0.9482924066    3.9265118452
H        6.0195972619   -3.3454170029    3.8894797449
H        6.6338549461   -1.6811625585    3.8368155605
H        6.0551857182   -2.3654601108    5.3712877534
H       -1.1087019527    2.3313542839    3.2049348684
H        0.5628369870    2.0536558992    2.6451844019
H        0.1899606201    1.9949614898    4.3825556032
H        4.3421668315   -0.8159585888    4.4023323154
H        3.7267781306   -2.4851696511    4.4523498369
23   
torsion grid (30,)
C        1.8254713695   -1.0159438191    0.0487488742
C        0.7327564536   -0.5920588074    0.8165937377
C        2.0249079464   -0.9709831309    2.8396046364
C        3.1235881380   -1.3963899222    2.0830272361
C        2.9934671542   -1.4059373295    0.6817180565
C        0.8361058053   -0.5638064166    2.2096540471
C        5.8798858579   -2.3370550570    4.3022099925
C       -0.1832035916    1.7583498533    3.3685859668
C        4.4789446813   -1.8307591058    4.0088512980
O        4.3187292025   -1.8100151072    2.5833944561
F        4.0481143303   -1.8180437517   -0.0591713183
S       -0.5603160098   -0.0363539946    3.2047536552
H        1.7787800711   -1.0504863406   -1.0356616384
H       -0.1909739590   -0.2887877968    0.3348203034
H        2.0738583364   -0.9538933422    3.9214714402
H        6.0177793768   -3.3446781466    3.9002243014
H        6.6298449207   -1.6794327170    3.8537748852
H        6.0445640065   -2.3675004769    5.3840523502
H       -1.1313070332    2.2949715959    3.4491191995
H        0.3600005808    2.1014430880    2.4862131263
H        0.4215988085    1.9522791475    4.2581031185
H        4.3342666706   -0.8184952722    4.4090885893
H        3.7209703652   -2.4886655600    4.4537045845
23   
torsion grid (45,)
C        1.8330311697   -1.0066438680    0.0483792438
C        0.7369195292   -0.5839346819    0.8119739833
C        2.0201550791   -0.9677552451    2.8397885677
C        3.1219081970   -1.3920338621    2.0871286846
C        2.9982644046   -1.3986200871    0.6852220452
C        0.8341358178   -0.5595958479    2.2054219025
C        5.8677910902   -2.3382312887    4.3168029191
C       -0.1760795855    1.7561071140    3.3537509049
C        4.4684237238   -1.8307293103    4.0180665167
O        4.3145480561   -1.8074753192    2.5919838915
F        4.0560347917   -1.8094804437   -0.0519779506
S       -0.5647646837   -0.0321368091    3.1971755381
H        1.7912451610   -1.0386516625   -1.0362906836
H       -0.1847417302   -0.2797679064    0.3265881408
H        2.0641616515   -0.9535461808    3.9220081969
H        6.0068945384   -3.3453358499    3.9139356992
H        6.6200462851   -1.6803552330    3.8726089127
H        6.0277228219   -2.3703563807    5.3993085748
H       -1.0857365186    2.2571190442    3.6939793283
H        0.1257586044    2.1614268275    2.3856674317
H        0.6229249264    1.9229766896    4.0806597717
H        4.3224965923   -0.8190801430    4.4194215529
H        3.7081625960   -2.4890121836    4.4584540957
23   
torsion grid (60,)
C        1.8410683306   -1.0023463957    0.0473245959
C        0.7417933071   -0.5795606930    0.8064272861
C        2.0158178161   -0.9652690446    2.8398085460
C        3.1206698794   -1.3894030935    2.0918435852
C        3.0031272672   -1.3950904302    0.6893162703
C        0.8327745120   -0.5564884457    2.2001610273
C        5.8560849056   -2.3388129925    4.3330511090
C       -0.1722303903    1.7559764665    3.3467949164
C        4.4584519530   -1.8300525386    4.0283994814
O        4.3107539034   -1.8061813348    2.6016907907
F        4.0641085567   -1.8059164982   -0.0432656549
S       -0.5677325868   -0.0285105176    3.1896307218
H        1.8043467275   -1.0332389340   -1.0375585780
H       -0.1774898396   -0.2746942470    0.3169178114
H        2.0545398864   -0.9523221627    3.9223116171
H        5.9957872086   -3.3463177291    3.9313953768
H        6.6107601934   -1.6819780280    3.8914291918
H        6.0116660770   -2.3703881541    5.4162069256
H       -0.9792622720    2.2098555082    3.9279963314
H       -0.1248496165    2.2291766313    2.3633294381
H        0.7749395653    1.9001946195    3.8720939253
H        4.3115982397   -0.8184345966    4.4295191860
H        3.6957472697   -2.4878583552    4.4652597901
23   
torsion grid (75,)
C        1.8589641071   -1.0143504384    0.0348462757
C        0.7541063896   -0.5903422358    0.7854173301
C        2.0168022571   -0.9698471218    2.8265591429
C        3.1270362099   -1.3940955865    2.0868346975
C        3.0182450700   -1.4039343054    0.6835337980
C        0.8368049426   -0.5633783168    2.1794420254
C        5.8490926045   -2.3345720773    4.3479101599
C       -0.1707213832    1.7469317988    3.3415234615
C        4.4528650719   -1.8282540393    4.0329432301
O        4.3142707276   -1.8083765052    2.6052702776
F        4.0840548787   -1.8151976525   -0.0418277762
S       -0.5682292519   -0.0363811488    3.1630701125
H        1.8288340838   -1.0475875435   -1.0501423184
H       -0.1619891132   -0.2868741427    0.2892158494
H        2.0485523227   -0.9549471922    3.9092562589
H        5.9928610003   -3.3425006467    3.9487608908
H        6.6059024350   -1.6774137621    3.9104426951
H        5.9972966757   -2.3643006574    5.4321505086
H       -0.8206128691    2.1385665118    4.1287580848
H       -0.3693018867    2.2898505583    2.4144387213
H        0.8714624981    1.8789728647    3.6398532087
H        4.3022381403   -0.8157391625    4.4304092928
H        3.6881149496   -2.4857519770    4.4666711910
23   
torsion grid (90,)
C        1.8793592587   -1.0289581754    0.0178179069
C        0.7699562630   -0.6018572085    0.7600232168
C        2.0180212376   -0.9723575116    2.8120770504
C        3.1333214117   -1.3982789440    2.0810973968
C        3.0339220715   -1.4144654738    0.6770322138
C        0.8427836075   -0.5681758979    2.1544633592
C        5.8409766922   -2.3281472992    4.3637725211
C       -0.1680754005    1.7409167932    3.3468055394
C        4.4464306939   -1.8242363389    4.0376853013
O        4.3172936585   -1.8097990885    2.6090424602
F        4.1051240059   -1.8282803260   -0.0387734374
S       -0.5701124493   -0.0410690698    3.1264221208
H        1.8566671933   -1.0665479873   -1.0672342844
H       -0.1423067746   -0.2992017092    0.2565557743
H        2.0418663113   -0.9541357716    3.8948770317
H        5.9883528172   -3.3372851237    3.9690192339
H        6.6001247330   -1.6717721910    3.9291844229
H        5.9818964623   -2.3540710425    5.4490793181
H       -0.6140262329    2.0599186478    4.2925861371
H       -0.5885177417    2.3433080006    2.5381415395
H        0.9133882663    1.8778400736    3.3994022314
H        4.2922586159   -0.8103851523    4.4303644896
H        3.6793697417   -2.4807782918    4.4687549408
23   
torsion grid (105,)
C        1.8982017993   -1.0395246843    0.0053379922
C        0.7843736263   -0.6106939994    0.7398942959
C        2.0194741197   -0.9755797758    2.8014183164
C        3.1398202533   -1.4018035688    2.0783932522
C        3.0484909592   -1.4218005770    0.6737737286
C        0.8485562128   -0.5730688177    2.1347476699
C        5.8347190190   -2.3239199449    4.3793808795
C       -0.1667391304    1.7333379603    3.3560003105
C        4.4415582409   -1.8223332308    4.0439180543
O        4.3210452878   -1.8107186197    2.6144659035
F        4.1245490210   -1.8365777460   -0.0339993714
S       -0.5734476345   -0.0470033647    3.0933390525
H        1.8824088301   -1.0800090727   -1.0797575818
H       -0.1244352603   -0.3082650319    0.2302874768
H        2.0361751654   -0.9553910871    3.8842058240
H        5.9857537515   -3.3335671047    3.9873243540
H        6.5956974051   -1.6673659380    3.9482752658
H        5.9690504643   -2.3477556649    5.4655697777
H       -0.3656203823    1.9816886598    4.4012726521
H       -0.7822888584    2.3677553426    2.7141713979
H        0.8898392508    1.9031895728    3.1436900918
H        4.2837557417   -0.8079400013    4.4337314121
H        3.6727031543   -2.4790183381    4.4715443892
23   
torsion grid (120,)
C        1.9161923847   -1.0405786370    0.0019442857
C        0.7980031148   -0.6141226485    0.7312873076
C        2.0238742469   -0.9813451815    2.7971372181
C        3.1483332661   -1.4051445872    2.0788952232
C        3.0644392096   -1.4230479016    0.6738682479
C        0.8553731176   -0.5783925344    2.1266035624
C        5.8324380520   -2.3272881140    4.3922379530
C       -0.1725527233    1.7276954602    3.3504371877
C        4.4402809077   -1.8272915301    4.0503194871
O        4.3274563443   -1.8129697779    2.6202565423
F        4.1441246814   -1.8354605454   -0.0298603108
S       -0.5738993359   -0.0542846119    3.0753561329
H        1.9051886967   -1.0794715808   -1.0832529641
H       -0.1085186907   -0.3115308280    0.2178002927
H        2.0361336074   -0.9625148720    3.8799377196
H        5.9872614728   -3.3358681718    3.9989148888
H        6.5946361735   -1.6685789354    3.9666109875
H        5.9609476925   -2.3531564672    5.4790859245
H       -0.0992446987    1.9299273009    4.4213423996
H       -0.9549576561    2.3516253492    2.9125397753
H        0.7804854286    1.9600428686    2.8731874374
H        4.2787110680   -0.8139403996    4.4412792838
H        3.6702103452   -2.4861150427    4.4724434376
23   
torsion grid (135,)
C        1.9219364767   -1.0208692485    0.0096923270
C        0.8015995400   -0.5973220733    0.7372256378
C        2.0217592987   -0.9784801450    2.8041997791
C        3.1481010453   -1.4009609026    2.0879834476
C        3.0674882767   -1.4097531807    0.6828183924
C        0.8556890422   -0.5704326016    2.1329613556
C        5.8244422851   -2.3405186622    4.4035323369
C       -0.1825477419    1.7372528781    3.3305074899
C        4.4340214212   -1.8363052965    4.0607235348
O        4.3251007133   -1.8136169127    2.6304729237
F        4.1482252348   -1.8199325947   -0.0205573098
S       -0.5763859251   -0.0475833395    3.0782252586
H        1.9142438793   -1.0540314630   -1.0757230136
H       -0.1034350837   -0.2916501716    0.2228298900
H        2.0311576315   -0.9644532622    3.8870911039
H        5.9786910211   -3.3471151437    4.0049355293
H        6.5888345614   -1.6806562285    3.9836703501
H        5.9500144090   -2.3727293081    5.4905574314
H        0.1624809674    1.9233266941    4.3502609787
H       -1.0838404900    2.3211020898    3.1296372705
H        0.5912915481    2.0372418152    2.6222768351
H        4.2730750881   -0.8249315411    4.4570058593
H        3.6617830373   -2.4963046217    4.4770259262
23   
torsion grid (150,)
C        1.9437708102   -1.0213362593    0.0071716564
C        0.8195923308   -0.6040670946    0.7322506585
C        2.0319940812   -0.9892420646    2.8029950536
C        3.1617487734   -1.4060925775    2.0887852723
C        3.0876985244   -1.4099129524    0.6832937057
C        0.8676472402   -0.5827311192    2.1283263079
C        5.8316302394   -2.3456193701    4.4116204669
C       -0.1811200038    1.7190369473    3.2994965061
C        4.4411012259   -1.8443314489    4.0649651944
O        4.3376411350   -1.8176441390    2.6343971026
F        4.1724702863   -1.8146448933   -0.0171500481
S       -0.5697669103   -0.0649039500    3.0685235557
H        1.9403035363   -1.0506413564   -1.0783678582
H       -0.0847873661   -0.3002061627    0.2153895677
H        2.0374136639   -0.9791939558    3.8860767440
H        5.9903241087   -3.3505161875    4.0104851082
H        6.5957376855   -1.6822523946    3.9967941994
H        5.9530716224   -2.3808777320    5.4990200171
H        0.4033373841    1.8894819968    4.2064673230
H       -1.1299433494    2.2580955026    3.3576535142
H        0.3696272143    2.0860460934    2.4311024219
H        4.2757937513   -0.8346192004    4.4636721590
H        3.6691570594   -2.5077771377    4.4763279811
23   
torsion grid (165,)
C        1.9507416648   -1.0160390795    0.0036112137
C        0.8235600865   -0.5984370953    0.7238385111
C        2.0251835382   -0.9850854275    2.8002123283
C        3.1582102900   -1.4020259405    2.0914287232
C        3.0909372749   -1.4053204359    0.6855435566
C        0.8641951188   -0.5783979009    2.1200076721
C        5.8160516920   -2.3442329907    4.4269845279
C       -0.1689998165    1.7167093131    3.2886864511
C        4.4275766955   -1.8419335237    4.0736197170
O        4.3311858301   -1.8146276035    2.6426099709
F        4.1790839546   -1.8101938636   -0.0095712753
S       -0.5758488412   -0.0584440025    3.0552582848
H        1.9527152619   -1.0446312211   -1.0819548423
H       -0.0781485750   -0.2938823392    0.2026011943
H        2.0249835300   -0.9765155663    3.8834165354
H        5.9760799165   -3.3490835312    4.0262663719
H        6.5826180811   -1.6812044517    4.0161776023
H        5.9320888375   -2.3799630423    5.5149586054
H        0.6098838157    1.8533013105    4.0425553087
H       -1.0868698632    2.2154067100    3.6107412680
H        0.1524970497    2.1541868738    2.3408833653
H        4.2609722151   -0.8322656774    4.4719328447
H        3.6531966980   -2.5050399801    4.4809457308
23   
torsion grid (180,)
C        1.9695231559   -1.0188237282    0.0014340521
C        0.8388955944   -0.6073005535    0.7197103398
C        2.0344741293   -0.9953708583    2.7994314590
C        3.1706356835   -1.4073071145    2.0928193576
C        3.1082146487   -1.4066582820    0.6866686976
C        0.8745526458   -0.5911133059    2.1159958092
C        5.8233441732   -2.3489062804    4.4344295421
C       -0.1785655172    1.7024625618    3.2573126180
C        4.4348529481   -1.8489140809    4.0778851632
O        4.3428354813   -1.8185780920    2.6466424142
F        4.2000926859   -1.8062247557   -0.0056306259
S       -0.5677119626   -0.0784219264    3.0520356620
H        1.9753623109   -1.0440479365   -1.0842089328
H       -0.0623704066   -0.3052020553    0.1962246665
H        2.0305327368   -0.9890847873    3.8826946279
H        5.9868718869   -3.3524777758    4.0319192521
H        6.5897092096   -1.6832331144    4.0275422402
H        5.9360506990   -2.3868764153    5.5226763767
H        0.7535374518    1.8356938487    3.8114881165
H       -1.0013434669    2.1429942668    3.8266199153
H       -0.1055640270    2.1974299911    2.2861035873
H        4.2647249803   -0.8405458660    4.4779995692
H        3.6606993360   -2.5146631569    4.4813013918
