
  -OEChem-05262117493D

 66 70  0     1  0  0  0  0  0999 V2000
   -1.4468   -1.8916   -5.0305 C   0  0  0  0  0  0  0  0  0  0  0  0
   -0.3650   -3.6339   -3.6713 C   0  0  0  0  0  0  0  0  0  0  0  0
   -0.9483   -4.0074   -6.0047 C   0  0  0  0  0  0  0  0  0  0  0  0
   -0.8960   -2.3420   -3.8044 C   0  0  0  0  0  0  0  0  0  0  0  0
   -1.4729   -2.7243   -6.1454 C   0  0  0  0  0  0  0  0  0  0  0  0
   -0.8758   -5.0518   -6.9719 C   0  0  0  0  0  0  0  0  0  0  0  0
   -0.4021   -4.4686   -4.7887 C   0  0  0  0  0  0  0  0  0  0  0  0
   -0.2899   -6.1357   -6.3496 C   0  0  0  0  0  0  0  0  0  0  0  0
    0.8675   -1.6874  -10.9087 C   0  0  0  0  0  0  0  0  0  0  0  0
   -1.4042   -4.7981   -8.3588 C   0  0  0  0  0  0  0  0  0  0  0  0
   -0.8636   -1.7003   -8.3710 C   0  0  0  0  0  0  0  0  0  0  0  0
   -1.9952   -2.5966  -10.4930 C   0  0  0  0  0  0  0  0  0  0  0  0
    0.3740   -1.2932   -0.1523 C   0  0  0  0  0  0  0  0  0  0  0  0
   -1.1282   -1.0837    0.0235 C   0  0  0  0  0  0  0  0  0  0  0  0
   -1.9652   -2.3755   -7.5346 C   0  0  1  0  0  0  0  0  0  0  0  0
   -0.9065   -1.4022   -2.6221 C   0  0  0  0  0  0  0  0  0  0  0  0
   -1.3290   -1.3941   -9.8038 C   0  0  2  0  0  0  0  0  0  0  0  0
   -2.4566   -3.6695   -8.2339 C   0  0  1  0  0  0  0  0  0  0  0  0
    0.0453   -7.4971   -6.8655 C   0  0  0  0  0  0  0  0  0  0  0  0
    3.1144   -2.5777  -13.1090 C   0  0  0  0  0  0  0  0  0  0  0  0
    2.3431    1.3338  -10.9423 C   0  0  0  0  0  0  0  0  0  0  0  0
   -3.7247   -4.3700  -10.3189 C   0  0  0  0  0  0  0  0  0  0  0  0
    3.1366   -1.8733  -11.7513 C   0  0  0  0  0  0  0  0  0  0  0  0
    1.9075    0.3075  -11.9950 C   0  0  0  0  0  0  0  0  0  0  0  0
    0.0001   -5.7753   -5.0301 N   0  0  0  0  0  0  0  0  0  0  0  0
   -0.2736   -0.8975  -10.6857 N   0  0  0  0  0  0  0  0  0  0  0  0
    1.9254   -1.0742  -11.5051 N   0  0  0  0  0  0  0  0  0  0  0  0
   -3.0212   -3.2564   -9.5995 N   0  3  2  0  0  0  0  0  0  0  0  0
    0.8702   -2.8905  -10.5978 O   0  0  0  0  0  0  0  0  0  0  0  0
    0.7988   -1.0861   -1.9301 S   0  0  0  0  0  0  0  0  0  0  0  0
   -1.9742   -2.0525   -1.2717 S   0  0  0  0  0  0  0  0  0  0  0  0
   -1.8511   -0.8826   -5.0850 H   0  0  0  0  0  0  0  0  0  0  0  0
    0.0559   -3.9467   -2.7206 H   0  0  0  0  0  0  0  0  0  0  0  0
   -0.5978   -4.4973   -9.0366 H   0  0  0  0  0  0  0  0  0  0  0  0
   -1.8698   -5.6967   -8.7755 H   0  0  0  0  0  0  0  0  0  0  0  0
   -0.5706   -0.7648   -7.8850 H   0  0  0  0  0  0  0  0  0  0  0  0
    0.0190   -2.3398   -8.4002 H   0  0  0  0  0  0  0  0  0  0  0  0
   -2.5126   -2.2771  -11.4004 H   0  0  0  0  0  0  0  0  0  0  0  0
   -1.2505   -3.3460  -10.7470 H   0  0  0  0  0  0  0  0  0  0  0  0
    0.9424   -0.5498    0.4139 H   0  0  0  0  0  0  0  0  0  0  0  0
    0.6652   -2.2930    0.1766 H   0  0  0  0  0  0  0  0  0  0  0  0
   -1.4723   -1.4532    0.9941 H   0  0  0  0  0  0  0  0  0  0  0  0
   -1.3925   -0.0265   -0.0649 H   0  0  0  0  0  0  0  0  0  0  0  0
   -2.8259   -1.6938   -7.4529 H   0  0  0  0  0  0  0  0  0  0  0  0
   -1.3033   -0.4346   -2.9347 H   0  0  0  0  0  0  0  0  0  0  0  0
   -2.0752   -0.5902   -9.7560 H   0  0  0  0  0  0  0  0  0  0  0  0
   -3.3208   -4.0556   -7.6851 H   0  0  0  0  0  0  0  0  0  0  0  0
    1.1279   -7.6691   -6.8706 H   0  0  0  0  0  0  0  0  0  0  0  0
   -0.4140   -8.2839   -6.2562 H   0  0  0  0  0  0  0  0  0  0  0  0
   -0.3120   -7.6145   -7.8910 H   0  0  0  0  0  0  0  0  0  0  0  0
    2.2802   -3.2828  -13.1563 H   0  0  0  0  0  0  0  0  0  0  0  0
    3.0133   -1.8619  -13.9318 H   0  0  0  0  0  0  0  0  0  0  0  0
    4.0448   -3.1342  -13.2607 H   0  0  0  0  0  0  0  0  0  0  0  0
    1.6761    1.3367  -10.0729 H   0  0  0  0  0  0  0  0  0  0  0  0
    3.3511    1.1123  -10.5799 H   0  0  0  0  0  0  0  0  0  0  0  0
    2.3474    2.3415  -11.3696 H   0  0  0  0  0  0  0  0  0  0  0  0
   -2.9845   -5.0836  -10.6749 H   0  0  0  0  0  0  0  0  0  0  0  0
   -4.4172   -4.8561   -9.6310 H   0  0  0  0  0  0  0  0  0  0  0  0
   -4.2679   -3.9508  -11.1666 H   0  0  0  0  0  0  0  0  0  0  0  0
    3.9924   -1.1949  -11.6794 H   0  0  0  0  0  0  0  0  0  0  0  0
    3.2259   -2.6045  -10.9474 H   0  0  0  0  0  0  0  0  0  0  0  0
    2.5845    0.3540  -12.8521 H   0  0  0  0  0  0  0  0  0  0  0  0
    0.9156    0.5431  -12.3934 H   0  0  0  0  0  0  0  0  0  0  0  0
    0.4285   -6.3924   -4.3532 H   0  0  0  0  0  0  0  0  0  0  0  0
   -0.1317    0.1021  -10.6314 H   0  0  0  0  0  0  0  0  0  0  0  0
   -3.7323   -2.5494   -9.3854 H   0  0  0  0  0  0  0  0  0  0  0  0
  1  4  2  0  0  0  0
  1  5  1  0  0  0  0
  1 32  1  0  0  0  0
  2  4  1  0  0  0  0
  2  7  2  0  0  0  0
  2 33  1  0  0  0  0
  3  5  2  0  0  0  0
  3  6  1  0  0  0  0
  3  7  1  0  0  0  0
  4 16  1  0  0  0  0
  5 15  1  0  0  0  0
  6  8  2  0  0  0  0
  6 10  1  0  0  0  0
  7 25  1  0  0  0  0
  8 19  1  0  0  0  0
  8 25  1  0  0  0  0
  9 26  1  0  0  0  0
  9 27  1  0  0  0  0
  9 29  2  0  0  0  0
 10 18  1  0  0  0  0
 10 34  1  0  0  0  0
 10 35  1  0  0  0  0
 11 15  1  0  0  0  0
 11 17  1  0  0  0  0
 11 36  1  0  0  0  0
 11 37  1  0  0  0  0
 12 17  1  0  0  0  0
 12 28  1  0  0  0  0
 12 38  1  0  0  0  0
 12 39  1  0  0  0  0
 13 14  1  0  0  0  0
 13 30  1  0  0  0  0
 13 40  1  0  0  0  0
 13 41  1  0  0  0  0
 14 31  1  0  0  0  0
 14 42  1  0  0  0  0
 14 43  1  0  0  0  0
 15 18  1  0  0  0  0
 15 44  1  0  0  0  0
 16 30  1  0  0  0  0
 16 31  1  0  0  0  0
 16 45  1  0  0  0  0
 17 26  1  0  0  0  0
 17 46  1  0  0  0  0
 18 28  1  0  0  0  0
 18 47  1  0  0  0  0
 19 48  1  0  0  0  0
 19 49  1  0  0  0  0
 19 50  1  0  0  0  0
 20 23  1  0  0  0  0
 20 51  1  0  0  0  0
 20 52  1  0  0  0  0
 20 53  1  0  0  0  0
 21 24  1  0  0  0  0
 21 54  1  0  0  0  0
 21 55  1  0  0  0  0
 21 56  1  0  0  0  0
 22 28  1  0  0  0  0
 22 57  1  0  0  0  0
 22 58  1  0  0  0  0
 22 59  1  0  0  0  0
 23 27  1  0  0  0  0
 23 60  1  0  0  0  0
 23 61  1  0  0  0  0
 24 27  1  0  0  0  0
 24 62  1  0  0  0  0
 24 63  1  0  0  0  0
 25 64  1  0  0  0  0
 26 65  1  0  0  0  0
 28 66  1  0  0  0  0
M  CHG  1  28   1
M  END
$$$$
