65
0 1 C24H34N4OS2
C                    -1.812138512490    -2.352857173376    -4.424398693210
C                     0.615324461220    -2.766053043127    -4.373896967741
C                    -0.864809486403    -3.949515662325    -5.906537645658
C                    -0.521031786953    -2.094300907779    -3.897308229369
C                    -2.000178586241    -3.286124579823    -5.441890658896
C                    -0.785348347576    -4.955018313954    -6.916336422472
C                     0.425928683081    -3.706503548657    -5.388030033999
C                     0.540981418539    -5.317444197140    -7.006727451996
C                    -4.409831434161    -1.973393196909   -10.170415845494
C                    -2.047681707878    -5.374689349516    -7.616079148249
C                    -3.625210694666    -2.647691902332    -7.256527411705
C                    -4.919452303041    -4.514661481929    -8.408639017016
C                     1.633715017435     0.405967653019    -1.580223747648
C                     0.774998773775    -0.283202921730    -0.520217997072
C                    -3.302547986147    -3.641073231357    -6.124349525620
C                    -0.393795656405    -1.085440928380    -2.783763953481
C                    -3.269203916257    -5.092280140684    -6.681919490816
C                    -4.924337555923    -3.044165364760    -7.970645929632
C                     1.221458326106    -6.314750444120    -7.886929798565
C                    -4.183763299608    -1.619518711611   -13.398301123591
C                    -5.987271439801     1.047048290937   -10.214006336672
C                    -4.778556161313    -6.787318859177    -7.602754836508
C                    -3.868923888761    -0.729602714079   -12.191730674422
C                    -6.032544592798    -0.258058008211   -11.021401349867
N                     1.276805060530    -4.552707693511    -6.084723741232
N                    -4.582379019553    -5.381212479949    -7.276359401905
N                    -5.270426018790    -2.158528548158    -9.094631173518
N                    -4.758114172667    -0.969874663481   -11.053010353519
O                    -3.405965670523    -2.674770365878   -10.348569338460
S                     0.760890025612     0.330004783021    -3.197032320510
S                     0.196804745931    -1.864324767774    -1.222650244855
H                    -2.664288608901    -1.812369334297    -4.015716133554
H                     1.592250823791    -2.542091684760    -3.955175561850
H                    -2.162646631670    -4.824422633090    -8.556644040724
H                    -2.030118406216    -6.439194180613    -7.872749510935
H                    -3.724206854734    -1.636793188352    -6.842767920599
H                    -2.805242404486    -2.621309777786    -7.977025504872
H                    -5.927649244562    -4.776132915987    -8.748627828805
H                    -4.243177004317    -4.643174067287    -9.264085326522
H                     1.794115477542     1.459253821414    -1.330237596938
H                     2.602632849143    -0.091429804389    -1.668324598749
H                     1.354596915138    -0.505150776687     0.381252987030
H                    -0.079871462836     0.341091543011    -0.243466502263
H                    -4.121428319732    -3.611218386657    -5.394971441976
H                    -1.370648442177    -0.641235708008    -2.586358681376
H                    -3.168503556858    -5.760250437011    -5.817690067304
H                    -5.748217476418    -2.937147624318    -7.255350950222
H                     1.922853926317    -5.834037764244    -8.580568237671
H                     1.784783596185    -7.055587320501    -7.305580054176
H                     0.480444826247    -6.850644696921    -8.484508111521
H                    -4.053638390666    -2.670642974139   -13.128606550851
H                    -5.212532079279    -1.473244229677   -13.746649130813
H                    -3.509955432506    -1.388192502956   -14.231033861314
H                    -5.732027908211     0.863942424252    -9.164570768584
H                    -5.230648900303     1.725725805484   -10.619985790342
H                    -6.957038251675     1.556047429512   -10.245171186015
H                    -4.514174316097    -7.405545486973    -6.738308196335
H                    -4.186819922428    -7.136350711526    -8.468037857138
H                    -5.835294919960    -6.963597556663    -7.832392647064
H                    -3.954679040165     0.329223823293   -12.461236362647
H                    -2.844374101405    -0.904431460715   -11.860605946044
H                    -6.313194970043    -0.032523448330   -12.055485270111
H                    -6.813832611263    -0.923685912199   -10.641286871730
H                     2.270833324570    -4.643561626092    -5.931059971605
H                    -5.822883999836    -1.356820745323    -8.825540757108
