
  -OEChem-05262117493D

 47 49  0     0  0  0  0  0  0999 V2000
    0.6190    1.3528   -4.4810 C   0  0  0  0  0  0  0  0  0  0  0  0
    0.1112    0.7982   -3.3082 C   0  0  0  0  0  0  0  0  0  0  0  0
    2.1666    1.3615   -2.0979 C   0  0  0  0  0  0  0  0  0  0  0  0
    1.9019    1.9002   -4.4416 C   0  0  0  0  0  0  0  0  0  0  0  0
    2.6642    1.9029   -3.2788 C   0  0  0  0  0  0  0  0  0  0  0  0
    0.8802    0.8134   -2.1320 C   0  0  0  0  0  0  0  0  0  0  0  0
    2.6852    2.5394   -5.5246 C   0  0  0  0  0  0  0  0  0  0  0  0
    1.0092   -0.7945   -0.2504 C   0  0  0  0  0  0  0  0  0  0  0  0
   -0.8548    0.5884   -0.3097 C   0  0  0  0  0  0  0  0  0  0  0  0
    3.9835    2.5572   -3.5920 C   0  0  0  0  0  0  0  0  0  0  0  0
    0.1120   -1.1703    0.9297 C   0  0  0  0  0  0  0  0  0  0  0  0
    0.8783   -0.9800    2.2461 C   0  0  0  0  0  0  0  0  0  0  0  0
   -0.3573   -2.6244    0.7558 C   0  0  0  0  0  0  0  0  0  0  0  0
   -3.2302    1.1642    3.5832 C   0  0  0  0  0  0  0  0  0  0  0  0
   -1.9675    1.0117    2.7296 C   0  0  0  0  0  0  0  0  0  0  0  0
   -3.0951    2.2632    4.6427 C   0  0  0  0  0  0  0  0  0  0  0  0
   -2.1161   -0.1139    1.6992 C   0  0  0  0  0  0  0  0  0  0  0  0
   -4.3643    2.4426    5.4635 C   0  0  0  0  0  0  0  0  0  0  0  0
    0.3578    0.2199   -0.9435 N   0  0  0  0  0  0  0  0  0  0  0  0
   -0.9916   -0.2132    0.7732 N   0  0  0  0  0  0  0  0  0  0  0  0
    2.3946    2.7346   -6.6812 O   0  0  0  0  0  0  0  0  0  0  0  0
    2.0821   -1.2958   -0.5292 O   0  0  0  0  0  0  0  0  0  0  0  0
    3.9012    2.9147   -4.9881 O   0  0  0  0  0  0  0  0  0  0  0  0
   -4.1225    3.4648    6.4371 O   0  0  0  0  0  0  0  0  0  0  0  0
   -1.8827    1.7898   -0.8137 S   0  0  0  0  0  0  0  0  0  0  0  0
    0.0436    1.3576   -5.4018 H   0  0  0  0  0  0  0  0  0  0  0  0
   -0.8797    0.3599   -3.2867 H   0  0  0  0  0  0  0  0  0  0  0  0
    2.7432    1.3476   -1.1786 H   0  0  0  0  0  0  0  0  0  0  0  0
    4.1574    3.4703   -3.0136 H   0  0  0  0  0  0  0  0  0  0  0  0
    4.8359    1.8832   -3.4591 H   0  0  0  0  0  0  0  0  0  0  0  0
    0.2550   -1.2657    3.0981 H   0  0  0  0  0  0  0  0  0  0  0  0
    1.1885    0.0607    2.3729 H   0  0  0  0  0  0  0  0  0  0  0  0
    1.7690   -1.6132    2.2372 H   0  0  0  0  0  0  0  0  0  0  0  0
   -0.9836   -2.9317    1.5981 H   0  0  0  0  0  0  0  0  0  0  0  0
    0.5140   -3.2826    0.7129 H   0  0  0  0  0  0  0  0  0  0  0  0
   -0.9313   -2.7402   -0.1678 H   0  0  0  0  0  0  0  0  0  0  0  0
   -4.0800    1.3888    2.9251 H   0  0  0  0  0  0  0  0  0  0  0  0
   -3.4625    0.2082    4.0738 H   0  0  0  0  0  0  0  0  0  0  0  0
   -1.1033    0.8132    3.3736 H   0  0  0  0  0  0  0  0  0  0  0  0
   -1.7669    1.9461    2.1968 H   0  0  0  0  0  0  0  0  0  0  0  0
   -2.2689    2.0299    5.3252 H   0  0  0  0  0  0  0  0  0  0  0  0
   -2.8505    3.2183    4.1632 H   0  0  0  0  0  0  0  0  0  0  0  0
   -2.2177   -1.0813    2.1997 H   0  0  0  0  0  0  0  0  0  0  0  0
   -3.0194    0.0476    1.1044 H   0  0  0  0  0  0  0  0  0  0  0  0
   -4.6301    1.4939    5.9556 H   0  0  0  0  0  0  0  0  0  0  0  0
   -5.1992    2.7233    4.8034 H   0  0  0  0  0  0  0  0  0  0  0  0
   -4.9380    3.6037    6.9425 H   0  0  0  0  0  0  0  0  0  0  0  0
  1  2  1  0  0  0  0
  1  4  2  0  0  0  0
  1 26  1  0  0  0  0
  2  6  2  0  0  0  0
  2 27  1  0  0  0  0
  3  5  2  0  0  0  0
  3  6  1  0  0  0  0
  3 28  1  0  0  0  0
  4  5  1  0  0  0  0
  4  7  1  0  0  0  0
  5 10  1  0  0  0  0
  6 19  1  0  0  0  0
  7 21  2  0  0  0  0
  7 23  1  0  0  0  0
  8 11  1  0  0  0  0
  8 19  1  0  0  0  0
  8 22  2  0  0  0  0
  9 19  1  0  0  0  0
  9 20  1  0  0  0  0
  9 25  2  0  0  0  0
 10 23  1  0  0  0  0
 10 29  1  0  0  0  0
 10 30  1  0  0  0  0
 11 12  1  0  0  0  0
 11 13  1  0  0  0  0
 11 20  1  0  0  0  0
 12 31  1  0  0  0  0
 12 32  1  0  0  0  0
 12 33  1  0  0  0  0
 13 34  1  0  0  0  0
 13 35  1  0  0  0  0
 13 36  1  0  0  0  0
 14 15  1  0  0  0  0
 14 16  1  0  0  0  0
 14 37  1  0  0  0  0
 14 38  1  0  0  0  0
 15 17  1  0  0  0  0
 15 39  1  0  0  0  0
 15 40  1  0  0  0  0
 16 18  1  0  0  0  0
 16 41  1  0  0  0  0
 16 42  1  0  0  0  0
 17 20  1  0  0  0  0
 17 43  1  0  0  0  0
 17 44  1  0  0  0  0
 18 24  1  0  0  0  0
 18 45  1  0  0  0  0
 18 46  1  0  0  0  0
 24 47  1  0  0  0  0
M  END
$$$$
