
  -OEChem-05262117493D

 39 41  0     1  0  0  0  0  0999 V2000
    2.6696   -1.3080    5.6422 C   0  0  0  0  0  0  0  0  0  0  0  0
   -0.3264   -4.8450    3.5854 C   0  0  0  0  0  0  0  0  0  0  0  0
   -0.4570   -3.6860    2.8153 C   0  0  0  0  0  0  0  0  0  0  0  0
    0.3895   -4.8018    4.7859 C   0  0  0  0  0  0  0  0  0  0  0  0
    0.1217   -2.4873    3.2405 C   0  0  0  0  0  0  0  0  0  0  0  0
    0.9642   -3.6045    5.2156 C   0  0  0  0  0  0  0  0  0  0  0  0
   -2.9256   -1.1784    5.2131 C   0  0  0  0  0  0  0  0  0  0  0  0
   -1.5416    0.2846    4.6042 C   0  0  0  0  0  0  0  0  0  0  0  0
    0.8331   -2.4451    4.4435 C   0  0  0  0  0  0  0  0  0  0  0  0
    3.3670    0.6682    1.7458 C   0  0  0  0  0  0  0  0  0  0  0  0
    2.1203    1.5974    1.6470 C   0  0  0  0  0  0  0  0  0  0  0  0
    3.6987    0.5573    3.2536 C   0  0  0  0  0  0  0  0  0  0  0  0
    1.8158    2.0334    3.0979 C   0  0  0  0  0  0  0  0  0  0  0  0
    2.3824    0.9047    3.9606 C   0  0  0  0  0  0  0  0  0  0  0  0
    0.3919   -0.5205    6.0353 C   0  0  0  0  0  0  0  0  0  0  0  0
    1.3657   -1.1087    4.9590 C   0  0  1  0  0  0  0  0  0  0  0  0
    3.6618   -1.4427    6.2320 N   0  0  0  0  0  0  0  0  0  0  0  0
   -2.7833   -0.1123    4.3673 N   0  0  0  0  0  0  0  0  0  0  0  0
   -1.8584   -1.4567    5.9503 N   0  0  0  0  0  0  0  0  0  0  0  0
   -0.9706   -0.4964    5.5550 N   0  0  0  0  0  0  0  0  0  0  0  0
    1.4578   -0.2105    3.8658 O   0  0  0  0  0  0  0  0  0  0  0  0
   -0.7776   -5.7761    3.2526 H   0  0  0  0  0  0  0  0  0  0  0  0
   -1.0131   -3.7108    1.8819 H   0  0  0  0  0  0  0  0  0  0  0  0
    0.4996   -5.6986    5.3896 H   0  0  0  0  0  0  0  0  0  0  0  0
    0.0211   -1.5883    2.6443 H   0  0  0  0  0  0  0  0  0  0  0  0
    1.5177   -3.5815    6.1509 H   0  0  0  0  0  0  0  0  0  0  0  0
   -3.8358   -1.7586    5.2916 H   0  0  0  0  0  0  0  0  0  0  0  0
   -1.0239    1.1041    4.1270 H   0  0  0  0  0  0  0  0  0  0  0  0
    3.1369   -0.3188    1.3367 H   0  0  0  0  0  0  0  0  0  0  0  0
    4.2178    1.0593    1.1813 H   0  0  0  0  0  0  0  0  0  0  0  0
    2.2917    2.4598    0.9970 H   0  0  0  0  0  0  0  0  0  0  0  0
    1.2694    1.0483    1.2349 H   0  0  0  0  0  0  0  0  0  0  0  0
    4.0821   -0.4229    3.5418 H   0  0  0  0  0  0  0  0  0  0  0  0
    4.4505    1.2993    3.5468 H   0  0  0  0  0  0  0  0  0  0  0  0
    2.3558    2.9538    3.3471 H   0  0  0  0  0  0  0  0  0  0  0  0
    0.7540    2.2132    3.2858 H   0  0  0  0  0  0  0  0  0  0  0  0
    2.5162    1.1943    5.0083 H   0  0  0  0  0  0  0  0  0  0  0  0
    0.4053   -1.1334    6.9363 H   0  0  0  0  0  0  0  0  0  0  0  0
    0.7137    0.4922    6.2913 H   0  0  0  0  0  0  0  0  0  0  0  0
  1 16  1  0  0  0  0
  1 17  3  0  0  0  0
  2  3  1  0  0  0  0
  2  4  2  0  0  0  0
  2 22  1  0  0  0  0
  3  5  2  0  0  0  0
  3 23  1  0  0  0  0
  4  6  1  0  0  0  0
  4 24  1  0  0  0  0
  5  9  1  0  0  0  0
  5 25  1  0  0  0  0
  6  9  2  0  0  0  0
  6 26  1  0  0  0  0
  7 18  1  0  0  0  0
  7 19  2  0  0  0  0
  7 27  1  0  0  0  0
  8 18  2  0  0  0  0
  8 20  1  0  0  0  0
  8 28  1  0  0  0  0
  9 16  1  0  0  0  0
 10 11  1  0  0  0  0
 10 12  1  0  0  0  0
 10 29  1  0  0  0  0
 10 30  1  0  0  0  0
 11 13  1  0  0  0  0
 11 31  1  0  0  0  0
 11 32  1  0  0  0  0
 12 14  1  0  0  0  0
 12 33  1  0  0  0  0
 12 34  1  0  0  0  0
 13 14  1  0  0  0  0
 13 35  1  0  0  0  0
 13 36  1  0  0  0  0
 14 21  1  0  0  0  0
 14 37  1  0  0  0  0
 15 16  1  0  0  0  0
 15 20  1  0  0  0  0
 15 38  1  0  0  0  0
 15 39  1  0  0  0  0
 16 21  1  0  0  0  0
 19 20  1  0  0  0  0
M  END
$$$$
