47
0 1 C18H22N2O4S
C                     2.210525066953     0.757406594912    -4.404270030391
C                     1.624212873311     0.186356522914    -3.275878830590
C                     1.457531296675     2.378095576633    -2.192757492304
C                     2.399292288401     2.139215395046    -4.410144654152
C                     2.030192406358     2.935084833341    -3.330495268713
C                     1.252144402368     0.993821292249    -2.187972470878
C                     2.983686204070     3.005232543221    -5.460756313299
C                     1.277851561382    -0.682071614842    -0.361149846428
C                    -0.568806503503     0.722246494671    -0.456687129618
C                     2.367157049764     4.362037656649    -3.671688027448
C                     0.343744985715    -1.060800876378     0.788347639338
C                     1.074339219133    -0.897927872796     2.128433266501
C                    -0.141583008456    -2.505562380820     0.582203053225
C                    -3.123201865334     1.254618512207     3.336520215845
C                    -1.831166439085     1.104953681843     2.522647364493
C                    -3.462600491071     0.033232656920     4.200846806876
C                    -1.912712361493    -0.022863995696     1.485243359971
C                    -4.676052043181     0.267669644392     5.089021689675
N                     0.673472887343     0.371086508544    -1.041453538419
N                    -0.741258932249    -0.084941525567     0.615839509399
O                     3.429699247255     2.716106890228    -6.546141715114
O                     2.340942515640    -1.208092008278    -0.629407417285
O                     2.949739755886     4.303400191406    -4.991494276831
O                    -4.916031077122    -0.931288204302     5.835302137937
S                    -1.612338523003     1.885003325091    -1.020398852523
H                     2.508194021423     0.153857332067    -5.256397107593
H                     1.456610909336    -0.883687846352    -3.222634914107
H                     1.162030317736     2.978512438482    -1.339609753973
H                     1.484393215615     5.008162787455    -3.713437368232
H                     3.101880151326     4.805426473003    -2.991921783708
H                     0.419358831592    -1.180287418347     2.957659924740
H                     1.399149005975     0.135793143008     2.274400439354
H                     1.953641969735    -1.546660947650     2.140740637229
H                    -0.785558319802    -2.821041090655     1.407799973848
H                     0.723044679117    -3.172634827466     0.543503429499
H                    -0.700771234604    -2.598965619322    -0.353134896645
H                    -3.022271451434     2.136685123630     3.981213102072
H                    -3.955006336270     1.469455855317     2.652675222334
H                    -0.985875590596     0.922170295750     3.196432043049
H                    -1.627398964628     2.039081784439     1.991161634117
H                    -3.668082161017    -0.843576398995     3.576203180428
H                    -2.608157342803    -0.224279563208     4.839560826723
H                    -2.006658805694    -0.995668390595     1.971639276087
H                    -2.793936681550     0.119307923494     0.852824792063
H                    -5.549488785027     0.521551200845     4.469024101550
H                    -4.486709135138     1.115473767126     5.765100573693
H                    -5.690518200035    -0.789157550351     6.400941118952
