66
1 1 C24H35N4OS2
C                    -1.476473750567    -1.643723880490    -4.496254364871
C                    -0.684123393641    -3.331771723521    -2.889824470558
C                    -0.995470187271    -3.854544900381    -5.245943270006
C                    -1.103922924013    -2.027940884329    -3.180335186690
C                    -1.418704405830    -2.555598806060    -5.537986716178
C                    -0.884784534370    -4.973275001806    -6.119970203194
C                    -0.639153019969    -4.253536389064    -3.944531432138
C                    -0.463739040380    -6.044002644686    -5.355032210050
C                    -0.060390915097    -0.140615609014   -11.122676300465
C                    -1.218895732545    -4.794448014421    -7.575173453525
C                    -0.544051048535    -1.634527346788    -7.727263476586
C                    -1.346485924982    -2.641564099026    -9.888964648500
C                    -2.372610617802     1.458217665977    -1.676267289384
C                    -0.895169716506     1.532008316442    -1.298004211804
C                    -1.736033362615    -2.277994087083    -6.992701049100
C                    -1.153086228023    -1.014835157415    -2.063467910756
C                    -0.897655653456    -1.355612549083    -9.187058810331
C                    -2.190528656102    -3.593561383587    -7.684818712279
C                    -0.173648316324    -7.462167099258    -5.726131291844
C                     0.935982699383     0.446937409936   -14.181004336545
C                     2.560426712007     1.742803020836   -10.157585843477
C                    -3.109987733580    -4.401580698888    -9.915653256612
C                     0.664150541760     1.298267212878   -12.939272173144
C                     2.315692168853     0.614902871028   -11.167255532802
N                    -0.310545476455    -5.598528325070    -4.039451313693
N                     0.237914195048    -0.808712712076    -9.916969643133
N                     0.945145164656     0.581676961117   -11.685265760217
N                    -2.511779673285    -3.259465177002    -9.147424098723
O                    -1.187966695151    -0.258524499089   -11.624431759749
S                    -2.863802408769    -0.309116957283    -1.814623258791
S                     0.011050008633     0.374625688063    -2.380455537656
H                    -1.812832152686    -0.623521437380    -4.659262493853
H                    -0.410110068099    -3.605015572481    -1.874055331241
H                    -0.312746943612    -4.609140966334    -8.163589131871
H                    -1.691149599377    -5.691122266405    -7.987465832565
H                    -0.289031686995    -0.700156970989    -7.217517885929
H                     0.333717268076    -2.286724415663    -7.660095505370
H                    -1.680627508513    -2.414279327855   -10.901107574522
H                    -0.542603404899    -3.376819976204    -9.921787362419
H                    -2.997515170950     1.917316880573    -0.904867275191
H                    -2.552463346418     1.961802120454    -2.628685597918
H                    -0.488906274594     2.533900640676    -1.465163016323
H                    -0.741596690187     1.260363011292    -0.250272107491
H                    -2.581091441924    -1.576673899917    -7.042300580342
H                    -0.867173109332    -1.494086768428    -1.125658195303
H                    -1.738319127701    -0.646965437758    -9.226294744576
H                    -3.149129347279    -3.892269626223    -7.250211046683
H                     0.889624860106    -7.700999131011    -5.607421634938
H                    -0.743417329672    -8.165378449357    -5.108326561163
H                    -0.438629576441    -7.644905595249    -6.770133818677
H                     1.976567603993     0.107073372842   -14.215814767069
H                     0.282425343445    -0.429411468185   -14.189967677725
H                     0.742574678466     1.029451084891   -15.087460106470
H                     2.339911350344     2.717161037691   -10.603117256023
H                     1.929112785651     1.638983151196    -9.267804881386
H                     3.605495250456     1.744656760355    -9.832177446083
H                    -2.334522527137    -5.136428315848   -10.122407121490
H                    -3.907904161621    -4.851205535288    -9.323594415424
H                    -3.508002414050    -4.014970575782   -10.854195940711
H                    -0.379505448085     1.613637679514   -12.918915461406
H                     1.283648750642     2.200589992369   -12.943726633442
H                     2.566518658266    -0.360190442853   -10.738700225718
H                     2.982495280174     0.741244967262   -12.024593460333
H                    -0.020172706238    -6.188770601437    -3.271158278823
H                     0.943600157704    -0.386735157097    -9.325655380740
H                    -3.231340720614    -2.529592513752    -9.104942948191
