65
0 1 C24H34N4OS2
C                    -2.488261805060    -2.204227493013    -4.179093157262
C                    -0.058080077595    -2.596177416350    -4.250273059041
C                    -1.608826463815    -3.837686198175    -5.662927551159
C                    -1.172846112536    -1.917925434365    -3.733710036046
C                    -2.723257857671    -3.170873985006    -5.155042663994
C                    -1.573363928215    -4.874639915225    -6.643081587793
C                    -0.294308557472    -3.569949014895    -5.221924059292
C                    -0.250541268188    -5.232882694895    -6.790620125914
C                    -7.488957806820    -2.021973935019    -9.005383198519
C                    -2.866730864869    -5.328159866320    -7.258265102662
C                    -4.487906684333    -2.573158398190    -6.851891845895
C                    -5.805521563259    -4.448371627377    -7.904336606650
C                     1.087450452378     0.673889863110    -1.632308141611
C                     0.298948356796     0.015495245372    -0.500797955455
C                    -4.061746422721    -3.556327263228    -5.745441566232
C                    -0.993877136320    -0.870661979974    -2.663034432453
C                    -4.047973485124    -5.017807528963    -6.281167715308
C                    -5.832957030919    -2.981972595968    -7.451827442238
C                     0.390212957352    -6.261171738383    -7.665228074513
C                    -9.895935965572    -0.084462678401   -10.021660808342
C                    -5.880992510122    -1.087730381831   -11.859923953039
C                    -5.588389559594    -6.731137607000    -7.123407978888
C                    -9.066878628166    -1.199539620828   -10.666826678451
C                    -6.690666578437    -0.407201244473   -10.747122763665
N                     0.525666051084    -4.433952617324    -5.934510677987
N                    -5.379368636044    -5.323416819230    -6.817030810155
N                    -6.177265833784    -2.076868498100    -8.547664035754
N                    -7.700133910396    -1.274822603946   -10.146743060640
O                    -8.412727498356    -2.587710787358    -8.409610057198
S                     0.119016939529     0.540020342764    -3.189863853176
S                    -0.306232608103    -1.592157487515    -1.114706280250
H                    -3.322038376582    -1.658991283322    -3.740361915295
H                     0.938100519498    -2.352508149255    -3.892500522116
H                    -3.033339065793    -4.821552037226    -8.216727588628
H                    -2.856109976620    -6.401477074922    -7.474506945591
H                    -4.551291107285    -1.557833116842    -6.447426553437
H                    -3.715804409646    -2.552487413398    -7.633941535578
H                    -6.816475380462    -4.735013698259    -8.205435851845
H                    -5.161850650520    -4.535953773684    -8.803219067509
H                     1.254222724696     1.735846838232    -1.427472131363
H                     2.053081347468     0.179378130743    -1.762406411772
H                     0.932779065841    -0.172604762990     0.371347699831
H                    -0.543395969483     0.642818688716    -0.194460152214
H                    -4.829640976567    -3.526912058955    -4.963556323659
H                    -1.962913863564    -0.429205845796    -2.425334797596
H                    -3.906868064393    -5.667233524332    -5.408547864323
H                    -6.614721023117    -2.881009224911    -6.696408807353
H                     1.069035000779    -5.807764375031    -8.398581046317
H                     0.970172796630    -6.987703864654    -7.082385547672
H                    -0.375497385807    -6.811061241418    -8.217341238397
H                    -9.991434131983    -0.266464067579    -8.948265424390
H                    -9.431208596792     0.896983354977   -10.169497908245
H                   -10.899975468673    -0.051314345869   -10.459643804317
H                    -5.331530439396    -1.957603056953   -11.483639273253
H                    -6.541729282070    -1.438906608407   -12.658823703464
H                    -5.156936150014    -0.389933943376   -12.295054514511
H                    -5.276261890905    -7.343506110780    -6.270651884611
H                    -5.041571856182    -7.084893170303    -8.016544284336
H                    -6.654912492652    -6.910041224538    -7.295060053562
H                    -9.001507573421    -1.053006365945   -11.751102580867
H                    -9.545903682540    -2.164000917863   -10.491644436146
H                    -7.204706315155     0.467711399072   -11.158507000527
H                    -6.028424344951    -0.022912060863    -9.965283649469
H                     1.526980328592    -4.514213581046    -5.829181018139
H                    -5.443289152553    -1.945670438942    -9.231564301824
