
  -OEChem-05262117493D

 39 41  0     1  0  0  0  0  0999 V2000
    3.6650   -0.4373    5.3660 C   0  0  0  0  0  0  0  0  0  0  0  0
    0.0007   -3.6323    4.3134 C   0  0  0  0  0  0  0  0  0  0  0  0
   -0.3390   -2.8291    5.4032 C   0  0  0  0  0  0  0  0  0  0  0  0
    1.0698   -3.2629    3.4876 C   0  0  0  0  0  0  0  0  0  0  0  0
    0.3813   -1.6582    5.6691 C   0  0  0  0  0  0  0  0  0  0  0  0
    1.7877   -2.0985    3.7531 C   0  0  0  0  0  0  0  0  0  0  0  0
    2.5987    4.1177    7.0250 C   0  0  0  0  0  0  0  0  0  0  0  0
    3.5801    2.6270    5.9060 C   0  0  0  0  0  0  0  0  0  0  0  0
    1.4460   -1.2840    4.8432 C   0  0  0  0  0  0  0  0  0  0  0  0
    1.8670    3.4309    2.6174 C   0  0  0  0  0  0  0  0  0  0  0  0
    2.2810    2.4681    1.4643 C   0  0  0  0  0  0  0  0  0  0  0  0
    0.8556    2.6401    3.4798 C   0  0  0  0  0  0  0  0  0  0  0  0
    1.4655    1.1733    1.6895 C   0  0  0  0  0  0  0  0  0  0  0  0
    1.1724    1.1664    3.1913 C   0  0  0  0  0  0  0  0  0  0  0  0
    1.7420    0.8443    6.2226 C   0  0  0  0  0  0  0  0  0  0  0  0
    2.2767   -0.0046    5.0495 C   0  0  1  0  0  0  0  0  0  0  0  0
    4.7383   -0.7895    5.6372 N   0  0  0  0  0  0  0  0  0  0  0  0
    3.7333    3.8835    6.3033 N   0  0  0  0  0  0  0  0  0  0  0  0
    1.7585    3.0919    7.0956 N   0  0  0  0  0  0  0  0  0  0  0  0
    2.4049    2.1312    6.3697 N   0  0  0  0  0  0  0  0  0  0  0  0
    2.4024    0.7409    3.8437 O   0  0  0  0  0  0  0  0  0  0  0  0
   -0.5595   -4.5407    4.1091 H   0  0  0  0  0  0  0  0  0  0  0  0
   -1.1647   -3.1092    6.0516 H   0  0  0  0  0  0  0  0  0  0  0  0
    1.3445   -3.8843    2.6396 H   0  0  0  0  0  0  0  0  0  0  0  0
    0.0943   -1.0567    6.5250 H   0  0  0  0  0  0  0  0  0  0  0  0
    2.6153   -1.8087    3.1121 H   0  0  0  0  0  0  0  0  0  0  0  0
    2.3819    5.0622    7.5072 H   0  0  0  0  0  0  0  0  0  0  0  0
    4.2687    2.0660    5.2926 H   0  0  0  0  0  0  0  0  0  0  0  0
    2.7370    3.7091    3.2170 H   0  0  0  0  0  0  0  0  0  0  0  0
    1.4273    4.3597    2.2436 H   0  0  0  0  0  0  0  0  0  0  0  0
    2.0893    2.8955    0.4761 H   0  0  0  0  0  0  0  0  0  0  0  0
    3.3509    2.2503    1.5188 H   0  0  0  0  0  0  0  0  0  0  0  0
    0.8932    2.9061    4.5364 H   0  0  0  0  0  0  0  0  0  0  0  0
   -0.1698    2.8255    3.1368 H   0  0  0  0  0  0  0  0  0  0  0  0
    0.5104    1.2177    1.1538 H   0  0  0  0  0  0  0  0  0  0  0  0
    1.9860    0.2661    1.3732 H   0  0  0  0  0  0  0  0  0  0  0  0
    0.3619    0.4838    3.4627 H   0  0  0  0  0  0  0  0  0  0  0  0
    0.6843    1.0554    6.0591 H   0  0  0  0  0  0  0  0  0  0  0  0
    1.8381    0.2822    7.1558 H   0  0  0  0  0  0  0  0  0  0  0  0
  1 16  1  0  0  0  0
  1 17  3  0  0  0  0
  2  3  1  0  0  0  0
  2  4  2  0  0  0  0
  2 22  1  0  0  0  0
  3  5  2  0  0  0  0
  3 23  1  0  0  0  0
  4  6  1  0  0  0  0
  4 24  1  0  0  0  0
  5  9  1  0  0  0  0
  5 25  1  0  0  0  0
  6  9  2  0  0  0  0
  6 26  1  0  0  0  0
  7 18  1  0  0  0  0
  7 19  2  0  0  0  0
  7 27  1  0  0  0  0
  8 18  2  0  0  0  0
  8 20  1  0  0  0  0
  8 28  1  0  0  0  0
  9 16  1  0  0  0  0
 10 11  1  0  0  0  0
 10 12  1  0  0  0  0
 10 29  1  0  0  0  0
 10 30  1  0  0  0  0
 11 13  1  0  0  0  0
 11 31  1  0  0  0  0
 11 32  1  0  0  0  0
 12 14  1  0  0  0  0
 12 33  1  0  0  0  0
 12 34  1  0  0  0  0
 13 14  1  0  0  0  0
 13 35  1  0  0  0  0
 13 36  1  0  0  0  0
 14 21  1  0  0  0  0
 14 37  1  0  0  0  0
 15 16  1  0  0  0  0
 15 20  1  0  0  0  0
 15 38  1  0  0  0  0
 15 39  1  0  0  0  0
 16 21  1  0  0  0  0
 19 20  1  0  0  0  0
M  END
$$$$
