47
0 1 C18H22N2O4S
C                     2.502392630495     2.625825527388    -3.586680195977
C                     2.031095473726     1.981954347534    -2.443633951921
C                    -0.053233655737     1.379321238610    -3.582799363775
C                     1.675260566783     2.645577257280    -4.709557363951
C                     0.424543932156     2.036743720769    -4.710773265011
C                     0.765175202121     1.372559682092    -2.447978623823
C                     1.905625027610     3.259445978452    -6.038496915650
C                     1.048824024444    -0.280849062121    -0.621697194198
C                    -0.886934777173     1.000434922570    -0.574145801015
C                    -0.193035559537     2.251196558427    -6.066607168921
C                     0.223758344822    -0.726397387170     0.586508380801
C                     1.034344259556    -0.520342766475     1.873758351699
C                    -0.175382625839    -2.200000271993     0.402343953315
C                    -3.121124982368     1.365805751018     3.429320986093
C                    -1.893422481595     1.304803376946     2.515244058897
C                    -3.001869203997     2.453623907473     4.502257679238
C                    -2.023388568581     0.191435094814     1.469130506585
C                    -4.237835976396     2.540756104981     5.386369618790
N                     0.318382876701     0.714858815678    -1.262638684969
N                    -0.934833501110     0.172755779582     0.496002228774
O                     2.856288939061     3.879732634920    -6.453246084559
O                     2.130514372301    -0.722502066097    -0.958923097685
O                     0.788364573009     3.006117856694    -6.809192933649
O                    -4.013200758476     3.563388498092     6.363652329295
S                    -2.006065635083     2.146935820669    -1.011514279370
H                     3.476894382464     3.104280382735    -3.607720011993
H                     2.635720273377     1.940272709683    -1.544313078327
H                    -1.025283221679     0.899598543460    -3.559533262192
H                    -0.386001823319     1.317136216973    -6.604068490071
H                    -1.117453149190     2.836032427028    -6.024422267667
H                     0.463712094676    -0.855502031866     2.744540581902
H                     1.294827598051     0.532668060434     2.009916907446
H                     1.955865831672    -1.104744868516     1.814277092226
H                    -0.746913132536    -2.556562099087     1.264002533394
H                     0.726883103057    -2.809221817111     0.308389846629
H                    -0.782403174768    -2.329493406847    -0.498097103765
H                    -4.013390230377     1.549156039366     2.815983124915
H                    -3.271973285813     0.389465055325     3.911556680315
H                    -0.989629690147     1.146460659465     3.114307147854
H                    -1.773319744515     2.259209005202     1.993746643624
H                    -2.130419554328     2.261016171835     5.139688507850
H                    -2.839936479525     3.429769172731     4.030252144688
H                    -2.049597662763    -0.788950742605     1.953520269561
H                    -2.958672537083     0.312632413788     0.915500689065
H                    -4.418867944675     1.570560225642     5.875006155884
H                    -5.120361495587     2.776625845043     4.772144570852
H                    -4.809017432512     3.641771983405     6.911734057143
