39
0 1 C16H15NO6S
C                    -1.674592866854    -0.187746401566     1.883038786447
C                    -2.470262979970     0.601386510294     1.056482541626
C                     2.486575274955     4.150244812909     1.352766909216
C                    -0.437234617688    -0.644213890891     1.432506501091
C                     3.098317693301     3.686055326304     0.188882317491
C                     2.047337239973     1.897880503256     2.036426865331
C                    -2.050619906131     0.943121093576    -0.235799878087
C                     1.941884424713     3.266991981975     2.295290508803
C                     0.033885180047    -0.288008120684     0.161178101894
C                    -0.789851613888     0.490272440815    -0.679234468269
C                     3.184376745885     2.314032854333    -0.074352954170
C                     2.652826609351     1.417501824160     0.868748009504
C                    -3.001100187799     1.802260250371    -1.036783083858
C                     1.467179012159    -0.721433482680    -1.767363632754
C                     0.952311123689     0.583776080109    -2.347849437137
C                     1.243362770058     3.770520475962     3.536628207636
N                     1.304495210597    -0.741814335482    -0.308053131169
O                    -4.057382277097     2.184181630552    -0.573183703928
O                     3.841550890472    -0.776605593916    -0.148023640162
O                     2.442258784395    -0.945470688017     1.967310241371
O                    -0.425054043112     0.789973673904    -1.974778619889
O                     3.741165851897     1.834551998460    -1.229792121034
O                    -2.646635362989     2.150120509667    -2.293916584844
S                     2.690370049664    -0.368337454101     0.648145788694
H                    -2.021442302426    -0.466093778423     2.873689412895
H                    -3.439463027176     0.965537855152     1.379733811622
H                     2.432768996558     5.222305686021     1.526515044237
H                     0.185603694247    -1.273966194131     2.055732218370
H                     3.512862298177     4.393809059494    -0.527201294716
H                     1.667388865271     1.176170832406     2.751364343201
H                     0.901728328271    -1.566379778595    -2.173400301065
H                     2.520239174259    -0.859606097474    -2.010303683069
H                     1.544539301584     1.430330910700    -1.997931620427
H                     0.956998840010     0.564930608525    -3.439457767154
H                     0.174119961389     3.921169507145     3.347632217588
H                     1.334767401487     3.057814945856     4.360778632937
H                     1.658577604329     4.726728709345     3.867583165380
H                     4.156669669843     2.570821922051    -1.707291176502
H                    -1.773974754774     1.760362792886    -2.508963164623
