25
0 1 C10ClFH10O3
C                    -1.804651559852    -1.279109203941    -4.502728562288
C                    -2.745353620352    -1.767799436646    -5.412004698576
C                    -1.980685581670    -0.149073009155    -7.056162991222
C                    -0.938419597480    -0.236312317422    -4.845691651631
C                    -1.045179750331     0.304662782741    -6.134355626370
C                    -2.828592555286    -1.193270109156    -6.681469351513
C                     0.963223996048    -0.231311799160    -1.045072840659
C                     2.198614086998    -0.021858685999    -1.945755414219
C                     0.748720854805     1.725331912427    -2.258685215015
C                    -0.007446624043     1.564162780087    -3.574731147014
O                     0.170838665800     0.953241189680    -1.219806568236
O                     2.108228820213     1.350303811555    -2.354653560670
O                     0.005932542208     0.171639326795    -3.942685011139
F                    -0.202628436386     1.301032163803    -6.503697696947
Cl                   -4.011285771986    -1.788688019107    -7.832148918624
H                    -1.726675001230    -1.700906272448    -3.505254227459
H                    -3.410943047865    -2.578402687225    -5.134827258447
H                    -2.025994840428     0.299840740077    -8.042661899654
H                     0.386971429430    -1.111548367619    -1.346928190128
H                     1.220977589777    -0.310055251979     0.015541066827
H                     3.144212539561    -0.145295482928    -1.412331133091
H                     2.177476510784    -0.679089156207    -2.819870534789
H                     0.712185708749     2.783092925027    -1.970372150672
H                     0.473439620666     2.170081301599    -4.348454238579
H                    -1.041482225115     1.900385136037    -3.434211313784
