41
0 1 BrC19H17N2O2
C                    -5.824861672658     8.686122819000    -4.851713513660
C                    -4.919001549893     7.632078143866    -4.976307277184
C                    -1.356964813819    -0.365510017931    -2.340474828821
C                    -0.764450187008    -1.444404966005    -2.992589488929
C                    -1.375678223938     2.239889544298    -5.004130668781
C                    -0.543851072467    -0.123587787063    -5.025404561044
C                    -5.737502860301     6.756295411276    -2.872412624705
C                    -1.145273191096     0.975247150988    -4.374267550541
C                    -1.982544089077     3.297061238697    -4.366548569572
C                    -6.694378550191     8.802827100657    -3.759638253548
C                    -6.643129891089     7.813270844431    -2.753100118537
C                    -4.872640583179     6.655319038336    -3.974262020736
C                    -1.542840632154     0.829334954355    -3.036318370531
C                    -0.362720026339    -1.310381661470    -4.332350063699
C                    -2.345068896651     3.112469971581    -2.946666273480
C                    -2.159225294624     4.577486432276    -5.095351098915
C                    -7.660588762032     9.960310034577    -3.664049306786
C                    -7.555143201791     7.891808494941    -1.550879982299
C                    -1.239357126119     4.799725429950    -6.284474628366
N                    -3.039736865895     5.528164160544    -4.949518485243
N                    -4.008738540440     5.550378390127    -4.036544548566
O                    -2.811115991061     3.955842065838    -2.197013056055
O                    -2.121360712536     1.874278654608    -2.375143408102
Br                    0.454621152995    -2.801721545082    -5.213478290466
H                    -5.855395340592     9.443316827552    -5.632592319388
H                    -4.252439589918     7.559602768649    -5.827641228875
H                    -1.675880392050    -0.438070331382    -1.305489137693
H                    -0.613082316211    -2.382503876803    -2.469407416839
H                    -1.056197182815     2.346330878463    -6.034765533676
H                    -0.229083566221    -0.030394282656    -6.060157583536
H                    -5.695562227247     5.996389766403    -2.094021295833
H                    -8.702105500085     9.618746947046    -3.621977210238
H                    -7.488065111325    10.560617954713    -2.762340991997
H                    -7.563935211266    10.624044299084    -4.527600637329
H                    -7.397057230509     8.819544221500    -0.988414064259
H                    -8.610639277720     7.877188217628    -1.847277837234
H                    -7.387059813558     7.054363508241    -0.868717714109
H                    -1.495995431251     4.154747169036    -7.135271983782
H                    -1.342600451896     5.833134363494    -6.615827786670
H                    -0.189833121936     4.612223624674    -6.031097372504
H                    -3.903802990612     4.983286965839    -3.193179868082
