
  -OEChem-05262117483D

 15 15  0     0  0  0  0  0  0999 V2000
    0.2407   -0.3839    0.9305 C   0  0  0  0  0  0  0  0  0  0  0  0
    1.6384   -0.6257    2.8878 C   0  0  0  0  0  0  0  0  0  0  0  0
   -0.6386   -1.2888    1.5238 C   0  0  0  0  0  0  0  0  0  0  0  0
    1.3991   -0.0565    1.6418 C   0  0  0  0  0  0  0  0  0  0  0  0
    0.6731   -1.5232    3.3744 C   0  0  0  0  0  0  0  0  0  0  0  0
   -0.4365   -3.3212    5.2411 C   0  0  0  0  0  0  0  0  0  0  0  0
   -0.4367   -1.8541    2.7229 N   0  0  0  0  0  0  0  0  0  0  0  0
   -0.5448   -4.3014    4.3311 F   0  0  0  0  0  0  0  0  0  0  0  0
   -1.6030   -2.6596    5.2883 F   0  0  0  0  0  0  0  0  0  0  0  0
   -0.2389   -3.8987    6.4503 F   0  0  0  0  0  0  0  0  0  0  0  0
    1.0136   -2.2361    4.9827 S   0  0  0  0  0  0  0  0  0  0  0  0
    2.5511    1.0692    0.9672 Cl  0  0  0  0  0  0  0  0  0  0  0  0
    0.0328    0.0470   -0.0425 H   0  0  0  0  0  0  0  0  0  0  0  0
    2.5320   -0.3840    3.4544 H   0  0  0  0  0  0  0  0  0  0  0  0
   -1.5541   -1.5761    1.0108 H   0  0  0  0  0  0  0  0  0  0  0  0
  1  3  1  0  0  0  0
  1  4  2  0  0  0  0
  1 13  1  0  0  0  0
  2  4  1  0  0  0  0
  2  5  2  0  0  0  0
  2 14  1  0  0  0  0
  3  7  2  0  0  0  0
  3 15  1  0  0  0  0
  4 12  1  0  0  0  0
  5  7  1  0  0  0  0
  5 11  1  0  0  0  0
  6  8  1  0  0  0  0
  6  9  1  0  0  0  0
  6 10  1  0  0  0  0
  6 11  1  0  0  0  0
M  END
$$$$
