25
0 1 C10ClFH10O3
C                     0.322280515571    -1.864665526147    -3.223207483849
C                     0.959026297824    -2.764984438544    -4.079526279573
C                     0.275214785356    -1.417225646574    -5.982073924739
C                    -0.343334296573    -0.740199270760    -3.716925381607
C                    -0.362438467021    -0.550131495773    -5.104283329767
C                     0.936794822356    -2.527434317416    -5.454284915230
C                     2.878696021987     2.102357228637    -2.693957093262
C                     2.204212967099     3.448172051080    -2.418180432835
C                     0.723027687236     1.681460221772    -2.156710845606
C                    -0.632307789951     1.470163026575    -2.816332244288
O                     1.766136402010     1.263295155758    -3.017418404277
O                     0.911325427955     3.077292731290    -1.911161898725
O                    -1.008497900477     0.083029237881    -2.840895623803
F                    -1.026935027175     0.515575303148    -5.619396518333
Cl                    1.745985836546    -3.639676102977    -6.545715208866
H                     0.335243034144    -2.019980429214    -2.148731826955
H                     1.473220337326    -3.634210258027    -3.683276029384
H                     0.237222041840    -1.226577067848    -7.049262657980
H                     3.559664884439     2.108848925944    -3.546580940863
H                     3.401681848708     1.721524381853    -1.805677851426
H                     2.724449490665     4.046737115489    -1.665020437413
H                     2.081482113736     4.037052860319    -3.334469553610
H                     0.780131094204     1.138387579565    -1.199504552254
H                    -0.624181469531     1.907724606986    -3.817020102981
H                    -1.394620053401     1.964338360989    -2.211750112195
