
  -OEChem-05262117483D

 41 43  0     0  0  0  0  0  0999 V2000
   -6.4783    7.9680   -3.4236 C   0  0  0  0  0  0  0  0  0  0  0  0
   -5.5826    6.9074   -3.2799 C   0  0  0  0  0  0  0  0  0  0  0  0
   -2.0357    0.5003   -0.7294 C   0  0  0  0  0  0  0  0  0  0  0  0
   -1.9073    0.8525    0.6120 C   0  0  0  0  0  0  0  0  0  0  0  0
   -1.8242    3.8162   -2.4245 C   0  0  0  0  0  0  0  0  0  0  0  0
   -1.7179    3.1985    0.0020 C   0  0  0  0  0  0  0  0  0  0  0  0
   -4.2866    7.7962   -5.1193 C   0  0  0  0  0  0  0  0  0  0  0  0
   -1.8484    2.8519   -1.3580 C   0  0  0  0  0  0  0  0  0  0  0  0
   -1.9685    3.4476   -3.7277 C   0  0  0  0  0  0  0  0  0  0  0  0
   -6.3049    8.9544   -4.4012 C   0  0  0  0  0  0  0  0  0  0  0  0
   -5.1873    8.8562   -5.2599 C   0  0  0  0  0  0  0  0  0  0  0  0
   -4.4748    6.8177   -4.1324 C   0  0  0  0  0  0  0  0  0  0  0  0
   -2.0079    1.4987   -1.7054 C   0  0  0  0  0  0  0  0  0  0  0  0
   -1.7510    2.2023    0.9665 C   0  0  0  0  0  0  0  0  0  0  0  0
   -2.1624    2.0251   -4.0677 C   0  0  0  0  0  0  0  0  0  0  0  0
   -1.9043    4.4403   -4.8390 C   0  0  0  0  0  0  0  0  0  0  0  0
   -7.2914   10.0914   -4.5314 C   0  0  0  0  0  0  0  0  0  0  0  0
   -4.9568    9.8930   -6.3349 C   0  0  0  0  0  0  0  0  0  0  0  0
   -0.8976    4.2182   -5.9379 C   0  0  0  0  0  0  0  0  0  0  0  0
   -2.6292    5.5091   -4.8950 N   0  0  0  0  0  0  0  0  0  0  0  0
   -3.5576    5.7692   -3.9409 N   0  0  0  0  0  0  0  0  0  0  0  0
   -2.3417    1.5786   -5.1792 O   0  0  0  0  0  0  0  0  0  0  0  0
   -2.1425    1.1167   -3.0093 O   0  0  0  0  0  0  0  0  0  0  0  0
   -1.5849    2.6720    2.8154 Br  0  0  0  0  0  0  0  0  0  0  0  0
   -7.3356    8.0250   -2.7564 H   0  0  0  0  0  0  0  0  0  0  0  0
   -5.7459    6.1551   -2.5101 H   0  0  0  0  0  0  0  0  0  0  0  0
   -2.1591   -0.5354   -1.0300 H   0  0  0  0  0  0  0  0  0  0  0  0
   -1.9293    0.0869    1.3804 H   0  0  0  0  0  0  0  0  0  0  0  0
   -1.6808    4.8658   -2.1769 H   0  0  0  0  0  0  0  0  0  0  0  0
   -1.5949    4.2401    0.2822 H   0  0  0  0  0  0  0  0  0  0  0  0
   -3.4288    7.7146   -5.7776 H   0  0  0  0  0  0  0  0  0  0  0  0
   -6.8082   11.0666   -4.3953 H   0  0  0  0  0  0  0  0  0  0  0  0
   -7.7646   10.1082   -5.5207 H   0  0  0  0  0  0  0  0  0  0  0  0
   -8.0864   10.0084   -3.7852 H   0  0  0  0  0  0  0  0  0  0  0  0
   -5.8010    9.9404   -7.0327 H   0  0  0  0  0  0  0  0  0  0  0  0
   -4.8441   10.8958   -5.9059 H   0  0  0  0  0  0  0  0  0  0  0  0
   -4.0559    9.6717   -6.9126 H   0  0  0  0  0  0  0  0  0  0  0  0
   -1.1257    3.3061   -6.4960 H   0  0  0  0  0  0  0  0  0  0  0  0
   -0.9133    5.0720   -6.6181 H   0  0  0  0  0  0  0  0  0  0  0  0
    0.1131    4.1085   -5.5257 H   0  0  0  0  0  0  0  0  0  0  0  0
   -3.8763    5.0005   -3.3534 H   0  0  0  0  0  0  0  0  0  0  0  0
  1  2  1  0  0  0  0
  1 10  2  0  0  0  0
  1 25  1  0  0  0  0
  2 12  2  0  0  0  0
  2 26  1  0  0  0  0
  3  4  2  0  0  0  0
  3 13  1  0  0  0  0
  3 27  1  0  0  0  0
  4 14  1  0  0  0  0
  4 28  1  0  0  0  0
  5  8  1  0  0  0  0
  5  9  2  0  0  0  0
  5 29  1  0  0  0  0
  6  8  1  0  0  0  0
  6 14  2  0  0  0  0
  6 30  1  0  0  0  0
  7 11  2  0  0  0  0
  7 12  1  0  0  0  0
  7 31  1  0  0  0  0
  8 13  2  0  0  0  0
  9 15  1  0  0  0  0
  9 16  1  0  0  0  0
 10 11  1  0  0  0  0
 10 17  1  0  0  0  0
 11 18  1  0  0  0  0
 12 21  1  0  0  0  0
 13 23  1  0  0  0  0
 14 24  1  0  0  0  0
 15 22  2  0  0  0  0
 15 23  1  0  0  0  0
 16 19  1  0  0  0  0
 16 20  2  0  0  0  0
 17 32  1  0  0  0  0
 17 33  1  0  0  0  0
 17 34  1  0  0  0  0
 18 35  1  0  0  0  0
 18 36  1  0  0  0  0
 18 37  1  0  0  0  0
 19 38  1  0  0  0  0
 19 39  1  0  0  0  0
 19 40  1  0  0  0  0
 20 21  1  0  0  0  0
 21 41  1  0  0  0  0
M  END
$$$$
