15
0 1 C6ClF3H3NS
C                     0.355061382155    -0.577176462402     0.770862735280
C                     0.898325073211    -0.268377371286     3.112458128595
C                    -0.474393822429    -1.628065484492     1.165106213191
C                     1.044585373196     0.101616254024     1.776530939999
C                     0.035457947634    -1.340831311937     3.377573725639
C                     0.657669861922    -1.001667471545     6.124044989427
N                    -0.637043322724    -2.009016290168     2.437605379925
F                     0.331625806278     0.311612705178     6.097030593366
F                     1.988616381694    -1.075749524026     5.890518366678
F                     0.429437778876    -1.459449828653     7.369161770268
S                    -0.338515672394    -2.022936206734     4.994256629496
Cl                    2.102379242409     1.428458665854     1.365392722914
H                     0.457741324707    -0.301650335634    -0.272827338869
H                     1.434904758669     0.261225837623     3.887783701048
H                    -1.035328418040    -2.191183047224     0.422089084368
