
  -OEChem-05262117483D

 39 41  0     1  0  0  0  0  0999 V2000
   -1.4347   -1.3998   -0.0658 C   0  0  0  0  0  0  0  0  0  0  0  0
   -2.0980   -0.4920    0.7574 C   0  0  0  0  0  0  0  0  0  0  0  0
   -0.4290   -2.7837    4.1054 C   0  0  0  0  0  0  0  0  0  0  0  0
   -0.0667   -1.2472   -0.3174 C   0  0  0  0  0  0  0  0  0  0  0  0
   -0.0068   -1.4577    4.1154 C   0  0  0  0  0  0  0  0  0  0  0  0
    1.1036   -3.2830    2.3313 C   0  0  0  0  0  0  0  0  0  0  0  0
   -1.4181    0.6321    1.2563 C   0  0  0  0  0  0  0  0  0  0  0  0
    0.1252   -3.7253    3.2227 C   0  0  0  0  0  0  0  0  0  0  0  0
    0.6293   -0.1500    0.2022 C   0  0  0  0  0  0  0  0  0  0  0  0
   -0.0868    0.8600    0.8725 C   0  0  0  0  0  0  0  0  0  0  0  0
    0.9923   -1.0231    3.2339 C   0  0  0  0  0  0  0  0  0  0  0  0
    1.5346   -1.9508    2.3305 C   0  0  0  0  0  0  0  0  0  0  0  0
   -1.9664    1.4040    2.3929 C   0  0  0  0  0  0  0  0  0  0  0  0
    2.6990    1.1747    0.5766 C   0  0  0  0  0  0  0  0  0  0  0  0
    1.6859    2.2867    0.3987 C   0  0  0  0  0  0  0  0  0  0  0  0
   -0.3333   -5.1653    3.2340 C   0  0  0  0  0  0  0  0  0  0  0  0
    2.0554   -0.1199    0.2405 N   0  0  1  0  0  0  0  0  0  0  0  0
   -1.3013    1.7678    3.3567 O   0  0  0  0  0  0  0  0  0  0  0  0
    3.9899   -1.0083    1.6653 O   0  0  0  0  0  0  0  0  0  0  0  0
    2.7658   -2.5953    0.1103 O   0  0  0  0  0  0  0  0  0  0  0  0
    0.5109    2.0378    1.1927 O   0  0  0  0  0  0  0  0  0  0  0  0
    1.4249    0.2688    3.2172 O   0  0  0  0  0  0  0  0  0  0  0  0
   -3.3046    1.6000    2.3341 O   0  0  0  0  0  0  0  0  0  0  0  0
    2.7443   -1.4891    1.0689 S   0  0  0  0  0  0  0  0  0  0  0  0
   -1.9608   -2.2625   -0.4625 H   0  0  0  0  0  0  0  0  0  0  0  0
   -3.1291   -0.6567    1.0519 H   0  0  0  0  0  0  0  0  0  0  0  0
   -1.2075   -3.0943    4.7992 H   0  0  0  0  0  0  0  0  0  0  0  0
    0.4889   -2.0066   -0.8572 H   0  0  0  0  0  0  0  0  0  0  0  0
   -0.4477   -0.7390    4.8015 H   0  0  0  0  0  0  0  0  0  0  0  0
    1.5320   -3.9622    1.6016 H   0  0  0  0  0  0  0  0  0  0  0  0
    3.5496    1.3328   -0.0933 H   0  0  0  0  0  0  0  0  0  0  0  0
    3.0603    1.1702    1.6043 H   0  0  0  0  0  0  0  0  0  0  0  0
    2.0932    3.2342    0.7530 H   0  0  0  0  0  0  0  0  0  0  0  0
    1.3806    2.3929   -0.6498 H   0  0  0  0  0  0  0  0  0  0  0  0
   -1.4219   -5.2368    3.1346 H   0  0  0  0  0  0  0  0  0  0  0  0
    0.1167   -5.7317    2.4145 H   0  0  0  0  0  0  0  0  0  0  0  0
   -0.0576   -5.6611    4.1717 H   0  0  0  0  0  0  0  0  0  0  0  0
    0.6971    0.8649    3.4919 H   0  0  0  0  0  0  0  0  0  0  0  0
   -3.5550    2.0338    3.1730 H   0  0  0  0  0  0  0  0  0  0  0  0
  1  2  1  0  0  0  0
  1  4  2  0  0  0  0
  1 25  1  0  0  0  0
  2  7  2  0  0  0  0
  2 26  1  0  0  0  0
  3  5  2  0  0  0  0
  3  8  1  0  0  0  0
  3 27  1  0  0  0  0
  4  9  1  0  0  0  0
  4 28  1  0  0  0  0
  5 11  1  0  0  0  0
  5 29  1  0  0  0  0
  6  8  2  0  0  0  0
  6 12  1  0  0  0  0
  6 30  1  0  0  0  0
  7 10  1  0  0  0  0
  7 13  1  0  0  0  0
  8 16  1  0  0  0  0
  9 10  2  0  0  0  0
  9 17  1  0  0  0  0
 10 21  1  0  0  0  0
 11 12  2  0  0  0  0
 11 22  1  0  0  0  0
 12 24  1  0  0  0  0
 13 18  2  0  0  0  0
 13 23  1  0  0  0  0
 14 15  1  0  0  0  0
 14 17  1  0  0  0  0
 14 31  1  0  0  0  0
 14 32  1  0  0  0  0
 15 21  1  0  0  0  0
 15 33  1  0  0  0  0
 15 34  1  0  0  0  0
 16 35  1  0  0  0  0
 16 36  1  0  0  0  0
 16 37  1  0  0  0  0
 17 24  1  0  0  0  0
 19 24  2  0  0  0  0
 20 24  2  0  0  0  0
 22 38  1  0  0  0  0
 23 39  1  0  0  0  0
M  END
$$$$
