
  -OEChem-05262117483D

 35 37  0     0  0  0  0  0  0999 V2000
   -3.2552   -2.9353   -1.2037 C   0  0  0  0  0  0  0  0  0  0  0  0
    0.2586    2.0648   -0.5606 C   0  0  0  0  0  0  0  0  0  0  0  0
   -4.2541   -3.5708   -1.9426 C   0  0  0  0  0  0  0  0  0  0  0  0
    1.2835    2.7138    0.1218 C   0  0  0  0  0  0  0  0  0  0  0  0
   -3.6329   -0.8797   -2.4019 C   0  0  0  0  0  0  0  0  0  0  0  0
    2.0058    0.5708    0.9937 C   0  0  0  0  0  0  0  0  0  0  0  0
   -2.9124   -1.5869   -1.4190 C   0  0  0  0  0  0  0  0  0  0  0  0
    0.0628    0.6756   -0.4619 C   0  0  0  0  0  0  0  0  0  0  0  0
    0.9755   -0.0841    0.3096 C   0  0  0  0  0  0  0  0  0  0  0  0
    2.1562    1.9601    0.9149 C   0  0  0  0  0  0  0  0  0  0  0  0
   -4.9580   -2.8668   -2.9217 C   0  0  0  0  0  0  0  0  0  0  0  0
   -4.6212   -1.5242   -3.1219 C   0  0  0  0  0  0  0  0  0  0  0  0
   -1.0561    0.0341   -1.1714 C   0  0  0  0  0  0  0  0  0  0  0  0
   -1.8263   -0.9465   -0.6434 C   0  0  0  0  0  0  0  0  0  0  0  0
    0.8939   -1.5956    0.3102 C   0  0  0  0  0  0  0  0  0  0  0  0
   -1.6077   -1.3705    0.7996 C   0  0  0  0  0  0  0  0  0  0  0  0
   -0.3218   -2.1782    1.0568 C   0  0  0  0  0  0  0  0  0  0  0  0
    3.1544    2.6337    1.5787 O   0  0  0  0  0  0  0  0  0  0  0  0
   -5.9445   -3.4823   -3.6416 O   0  0  0  0  0  0  0  0  0  0  0  0
   -5.3382   -0.8416   -4.0700 F   0  0  0  0  0  0  0  0  0  0  0  0
   -2.7164   -3.5125   -0.4586 H   0  0  0  0  0  0  0  0  0  0  0  0
   -0.4226    2.6506   -1.1738 H   0  0  0  0  0  0  0  0  0  0  0  0
   -4.5007   -4.6150   -1.7746 H   0  0  0  0  0  0  0  0  0  0  0  0
    1.4219    3.7885    0.0528 H   0  0  0  0  0  0  0  0  0  0  0  0
   -3.4521    0.1735   -2.5903 H   0  0  0  0  0  0  0  0  0  0  0  0
    2.7140   -0.0158    1.5793 H   0  0  0  0  0  0  0  0  0  0  0  0
   -1.2554    0.3857   -2.1827 H   0  0  0  0  0  0  0  0  0  0  0  0
    0.8396   -1.9247   -0.7338 H   0  0  0  0  0  0  0  0  0  0  0  0
    1.8142   -2.0179    0.7267 H   0  0  0  0  0  0  0  0  0  0  0  0
   -1.5470   -0.4536    1.3969 H   0  0  0  0  0  0  0  0  0  0  0  0
   -2.4738   -1.9237    1.1723 H   0  0  0  0  0  0  0  0  0  0  0  0
   -0.4496   -3.2230    0.7474 H   0  0  0  0  0  0  0  0  0  0  0  0
   -0.1346   -2.1884    2.1375 H   0  0  0  0  0  0  0  0  0  0  0  0
    3.6863    1.9958    2.0801 H   0  0  0  0  0  0  0  0  0  0  0  0
   -6.3183   -2.8355   -4.2641 H   0  0  0  0  0  0  0  0  0  0  0  0
  1  3  1  0  0  0  0
  1  7  2  0  0  0  0
  1 21  1  0  0  0  0
  2  4  2  0  0  0  0
  2  8  1  0  0  0  0
  2 22  1  0  0  0  0
  3 11  2  0  0  0  0
  3 23  1  0  0  0  0
  4 10  1  0  0  0  0
  4 24  1  0  0  0  0
  5  7  1  0  0  0  0
  5 12  2  0  0  0  0
  5 25  1  0  0  0  0
  6  9  1  0  0  0  0
  6 10  2  0  0  0  0
  6 26  1  0  0  0  0
  7 14  1  0  0  0  0
  8  9  2  0  0  0  0
  8 13  1  0  0  0  0
  9 15  1  0  0  0  0
 10 18  1  0  0  0  0
 11 12  1  0  0  0  0
 11 19  1  0  0  0  0
 12 20  1  0  0  0  0
 13 14  2  0  0  0  0
 13 27  1  0  0  0  0
 14 16  1  0  0  0  0
 15 17  1  0  0  0  0
 15 28  1  0  0  0  0
 15 29  1  0  0  0  0
 16 17  1  0  0  0  0
 16 30  1  0  0  0  0
 16 31  1  0  0  0  0
 17 32  1  0  0  0  0
 17 33  1  0  0  0  0
 18 34  1  0  0  0  0
 19 35  1  0  0  0  0
M  END
$$$$
