35
0 1 C17FH15O2
C                    -3.473987019367    -1.018646778529     3.624886674168
C                     0.907942440381     1.548509876949     0.288998163619
C                    -4.276637667822    -0.698469403697     4.720902637592
C                     1.937993024843     1.689673634176    -0.638083732746
C                    -3.139352438472     1.317078642492     3.150760742410
C                     1.465456027036    -0.547453377536    -1.421870033865
C                    -2.874609530354    -0.027443574654     2.823979320658
C                     0.122833190944     0.381577970631     0.382843064005
C                     0.434888928575    -0.690959754649    -0.491535920198
C                     2.216391387924     0.629875257565    -1.506016475964
C                    -4.522088584625     0.636817591601     5.047474415209
C                    -3.939059131225     1.616104608418     4.238821833539
C                    -0.925327927917     0.391896608732     1.411727209600
C                    -2.010249495323    -0.382110767413     1.662771481893
C                    -0.319214991989    -1.996434461679    -0.443917728976
C                    -2.474505097328    -1.591558099072     0.877732766487
C                    -1.845908411281    -1.821623029721    -0.494560707718
O                     3.212330944797     0.679859458306    -2.451305238148
O                    -5.316115814172     0.953828391171     6.115656260613
F                    -4.210745405275     2.922540766939     4.554097058861
H                    -3.297748586976    -2.066918855267     3.407438682915
H                     0.697221757296     2.376746127120     0.961536852098
H                    -4.720499515684    -1.474535157482     5.337558016539
H                     2.515864460967     2.611414730166    -0.682179635786
H                    -2.755658372844     2.132299207656     2.545924287751
H                     1.708818667688    -1.361152716972    -2.099818199338
H                    -0.781106590058     1.208555636308     2.117053215333
H                     0.010870390012    -2.621693240760    -1.278664308784
H                    -0.052423416635    -2.538743749885     0.473509535559
H                    -2.309372247760    -2.492289319892     1.485602258539
H                    -3.563116834387    -1.519265739793     0.762335097448
H                    -2.098258904602    -0.997348041396    -1.170919335977
H                    -2.298566263906    -2.724987155878    -0.918772268960
H                     3.651217278021     1.543856610065    -2.401565543737
H                    -5.372391037638     1.922584257610     6.177502751713
