59
0 1 C26FH26NO5
C                     0.798874275834     1.149061824752     0.591458330889
C                     0.199519223934     3.245516325025    -0.454414609838
C                    -1.516358937624    -0.000153932359    -0.992570618954
C                     2.017835393516     1.692650700495     0.983651146565
C                     1.416849454495     3.795536217325    -0.061540542004
C                    -2.739959844046    -0.558331509411    -1.337286581349
C                    -4.561480144596    -1.839926692635     1.608624042949
C                    -3.260188414079    -3.513724010346     0.438512501275
C                    -3.398270909995    -1.311157858602     2.165911961983
C                    -2.090011852402    -2.994292957996     1.003741560455
C                    -2.612366963389     2.080279881323    -0.486594664493
C                    -0.132110746968     1.914315308057    -0.138732870583
C                    -1.427755378757     1.331795134806    -0.548876086342
C                     2.338523419064     3.020722258691     0.660489455686
C                    -3.856538268599     1.537456185243    -0.818054912389
C                    -3.914948378145     0.194773742629    -1.226304954343
C                    -4.502191674965    -2.934489784151     0.733492944468
C                    -2.176913196352    -1.896536980528     1.846782797245
C                     3.646955544063     3.558405379177     1.100616296711
C                    -5.136960043693     2.328706896050    -0.705492225587
C                    -6.296267808182     1.379452897900    -0.401233903572
C                    -6.337502709340     0.230995668695    -1.408841225262
C                    -7.383018545410    -0.803855304499    -1.001502976809
C                    -8.043873577880    -3.145031139663    -1.396101596130
C                    -5.644863224514    -3.985112100927    -1.078705751346
C                    -7.046708806428    -4.302240700636    -1.571117010027
N                    -7.536887709879    -1.891269090188    -1.964782689926
O                     4.489353777625     2.938318640567     1.728632628820
O                    -5.079819779533    -0.467756797184    -1.502096103642
O                     3.847007771160     4.858700319749     0.733731026587
O                    -7.502035458480    -5.473040400230    -0.881069271134
O                    -5.694149339970    -3.383765300091     0.223133365369
F                    -1.032191767750    -1.367473754629     2.365845219458
H                     0.543348883295     0.135021793139     0.884281900688
H                    -0.493993223369     3.843806497749    -1.038922542029
H                    -0.615735362032    -0.601616321373    -1.076115455359
H                     2.730874934985     1.106809696825     1.555513669627
H                     1.663354132461     4.819770752650    -0.320595445995
H                    -2.811902724112    -1.589236471646    -1.665461633620
H                    -5.528714578928    -1.401659327411     1.833422469703
H                    -3.187925074878    -4.365730525105    -0.227443021616
H                    -3.428229203547    -0.447545196421     2.822846209372
H                    -1.120183158545    -3.427775338837     0.779125805674
H                    -2.576613369739     3.105074481932    -0.122768991165
H                    -5.045846147515     3.090050722871     0.075806143584
H                    -5.336168227847     2.862925138789    -1.644248543819
H                    -6.178108141026     0.966413865690     0.607722846464
H                    -7.254496101481     1.908462444062    -0.431259053373
H                    -6.561231388488     0.631043104043    -2.409114288398
H                    -8.329168347708    -0.272478367666    -0.797143310719
H                    -7.046426649139    -1.243613319592    -0.061324637702
H                    -8.993083548487    -3.435714229980    -1.869359269796
H                    -8.247513742884    -3.040162779465    -0.326024269708
H                    -5.168648783767    -3.284695923065    -1.771275871623
H                    -5.085427872609    -4.926609795239    -1.049691568147
H                    -6.938387342676    -4.517294223221    -2.646188202954
H                    -8.102619238695    -1.592378800008    -2.751837956805
H                     4.730598354740     5.092511814467     1.075586436901
H                    -8.397773077385    -5.680080269515    -1.191163735144
