
  -OEChem-05262117483D

 25 27  0     0  0  0  0  0  0999 V2000
    1.9665    0.4399   -1.3475 C   0  0  0  0  0  0  0  0  0  0  0  0
    2.5213    1.7200   -1.3588 C   0  0  0  0  0  0  0  0  0  0  0  0
    0.8238    2.5417    0.2195 C   0  0  0  0  0  0  0  0  0  0  0  0
   -0.8895    0.6785    0.8949 C   0  0  0  0  0  0  0  0  0  0  0  0
    0.2510    1.2556    0.2373 C   0  0  0  0  0  0  0  0  0  0  0  0
    0.8444    0.2192   -0.5429 C   0  0  0  0  0  0  0  0  0  0  0  0
    1.9404    2.7311   -0.5772 C   0  0  0  0  0  0  0  0  0  0  0  0
   -0.9525   -0.6438    0.5141 C   0  0  0  0  0  0  0  0  0  0  0  0
   -1.8915   -1.7414    0.9213 C   0  0  0  0  0  0  0  0  0  0  0  0
    0.2209   -2.1737   -1.0923 C   0  0  0  0  0  0  0  0  0  0  0  0
   -0.5741   -3.2751   -0.3938 C   0  0  0  0  0  0  0  0  0  0  0  0
    0.1064   -0.9364   -0.3336 N   0  0  0  0  0  0  0  0  0  0  0  0
   -1.9259   -2.7819   -0.1169 N   0  0  0  0  0  0  0  0  0  0  0  0
    2.5152    3.9697   -0.6150 F   0  0  0  0  0  0  0  0  0  0  0  0
    2.4027   -0.3515   -1.9502 H   0  0  0  0  0  0  0  0  0  0  0  0
    3.3936    1.9528   -1.9612 H   0  0  0  0  0  0  0  0  0  0  0  0
    0.4178    3.3672    0.7965 H   0  0  0  0  0  0  0  0  0  0  0  0
   -1.5741    1.1750    1.5707 H   0  0  0  0  0  0  0  0  0  0  0  0
   -1.5644   -2.1448    1.8983 H   0  0  0  0  0  0  0  0  0  0  0  0
   -2.8960   -1.3303    1.0557 H   0  0  0  0  0  0  0  0  0  0  0  0
    1.2761   -2.4576   -1.1629 H   0  0  0  0  0  0  0  0  0  0  0  0
   -0.1677   -2.0220   -2.1071 H   0  0  0  0  0  0  0  0  0  0  0  0
   -0.6363   -4.1418   -1.0579 H   0  0  0  0  0  0  0  0  0  0  0  0
   -0.0399   -3.5852    0.5229 H   0  0  0  0  0  0  0  0  0  0  0  0
   -2.5131   -3.5494    0.2003 H   0  0  0  0  0  0  0  0  0  0  0  0
  1  2  1  0  0  0  0
  1  6  2  0  0  0  0
  1 15  1  0  0  0  0
  2  7  2  0  0  0  0
  2 16  1  0  0  0  0
  3  5  2  0  0  0  0
  3  7  1  0  0  0  0
  3 17  1  0  0  0  0
  4  5  1  0  0  0  0
  4  8  2  0  0  0  0
  4 18  1  0  0  0  0
  5  6  1  0  0  0  0
  6 12  1  0  0  0  0
  7 14  1  0  0  0  0
  8  9  1  0  0  0  0
  8 12  1  0  0  0  0
  9 13  1  0  0  0  0
  9 19  1  0  0  0  0
  9 20  1  0  0  0  0
 10 11  1  0  0  0  0
 10 12  1  0  0  0  0
 10 21  1  0  0  0  0
 10 22  1  0  0  0  0
 11 13  1  0  0  0  0
 11 23  1  0  0  0  0
 11 24  1  0  0  0  0
 13 25  1  0  0  0  0
M  END
$$$$
