
  -OEChem-05262117483D

 59 62  0     1  0  0  0  0  0999 V2000
    0.9539    1.7705    0.2355 C   0  0  0  0  0  0  0  0  0  0  0  0
    0.1353    3.5867   -1.1367 C   0  0  0  0  0  0  0  0  0  0  0  0
   -1.4869    0.2562   -0.6666 C   0  0  0  0  0  0  0  0  0  0  0  0
    2.1813    2.4211    0.3553 C   0  0  0  0  0  0  0  0  0  0  0  0
    1.3686    4.2259   -1.0185 C   0  0  0  0  0  0  0  0  0  0  0  0
   -2.7171   -0.3863   -0.7511 C   0  0  0  0  0  0  0  0  0  0  0  0
   -3.9682   -2.1804    1.9264 C   0  0  0  0  0  0  0  0  0  0  0  0
   -3.0689   -3.9634    0.5418 C   0  0  0  0  0  0  0  0  0  0  0  0
   -2.6839   -1.8387    2.3387 C   0  0  0  0  0  0  0  0  0  0  0  0
   -1.7742   -3.6234    0.9592 C   0  0  0  0  0  0  0  0  0  0  0  0
   -2.5996    2.3891   -0.6978 C   0  0  0  0  0  0  0  0  0  0  0  0
   -0.0937    2.3447   -0.5121 C   0  0  0  0  0  0  0  0  0  0  0  0
   -1.3961    1.6644   -0.6276 C   0  0  0  0  0  0  0  0  0  0  0  0
    2.4087    3.6559   -0.2697 C   0  0  0  0  0  0  0  0  0  0  0  0
   -3.8511    1.7689   -0.7867 C   0  0  0  0  0  0  0  0  0  0  0  0
   -3.8835    0.3729   -0.7984 C   0  0  0  0  0  0  0  0  0  0  0  0
   -4.1557   -3.2336    1.0254 C   0  0  0  0  0  0  0  0  0  0  0  0
   -1.6028   -2.5668    1.8433 C   0  0  0  0  0  0  0  0  0  0  0  0
    3.7772    4.3742   -0.1363 C   0  0  0  0  0  0  0  0  0  0  0  0
   -5.1282    2.5785   -0.8822 C   0  0  0  0  0  0  0  0  0  0  0  0
   -6.3556    1.7323   -0.5234 C   0  0  0  0  0  0  0  0  0  0  0  0
   -6.2579    0.3790   -1.2227 C   0  0  2  0  0  0  0  0  0  0  0  0
   -7.4203   -0.5484   -0.8559 C   0  0  0  0  0  0  0  0  0  0  0  0
   -7.8650   -3.0384   -0.5515 C   0  0  0  0  0  0  0  0  0  0  0  0
   -5.7308   -4.4427   -0.3562 C   0  0  0  0  0  0  0  0  0  0  0  0
   -7.2374   -4.4371   -0.6694 C   0  0  1  0  0  0  0  0  0  0  0  0
   -7.0021   -1.9688   -1.1478 N   0  3  0  0  0  0  0  0  0  0  0  0
    3.8553    5.4763   -0.7417 O   0  5  0  0  0  0  0  0  0  0  0  0
    4.6292    3.7608    0.5598 O   0  0  0  0  0  0  0  0  0  0  0  0
   -5.0996   -0.3426   -0.8090 O   0  0  0  0  0  0  0  0  0  0  0  0
   -8.0106   -5.1960    0.2500 O   0  0  0  0  0  0  0  0  0  0  0  0
   -5.4768   -3.4568    0.6352 O   0  0  0  0  0  0  0  0  0  0  0  0
   -0.3545   -2.2271    2.2272 F   0  0  0  0  0  0  0  0  0  0  0  0
    0.7899    0.8289    0.7577 H   0  0  0  0  0  0  0  0  0  0  0  0
   -0.6456    4.0316   -1.7519 H   0  0  0  0  0  0  0  0  0  0  0  0
   -0.5778   -0.3363   -0.6502 H   0  0  0  0  0  0  0  0  0  0  0  0
    2.9972    2.0040    0.9392 H   0  0  0  0  0  0  0  0  0  0  0  0
    1.5720    5.1764   -1.5041 H   0  0  0  0  0  0  0  0  0  0  0  0
   -2.7790   -1.4696   -0.7841 H   0  0  0  0  0  0  0  0  0  0  0  0
   -4.8291   -1.6212    2.2789 H   0  0  0  0  0  0  0  0  0  0  0  0
   -3.1944   -4.7871   -0.1519 H   0  0  0  0  0  0  0  0  0  0  0  0
   -2.5091   -1.0076    3.0137 H   0  0  0  0  0  0  0  0  0  0  0  0
   -0.9084   -4.1673    0.5954 H   0  0  0  0  0  0  0  0  0  0  0  0
   -2.5615    3.4742   -0.6484 H   0  0  0  0  0  0  0  0  0  0  0  0
   -5.0736    3.4478   -0.2206 H   0  0  0  0  0  0  0  0  0  0  0  0
   -5.2402    2.9717   -1.9005 H   0  0  0  0  0  0  0  0  0  0  0  0
   -6.3906    1.5569    0.5583 H   0  0  0  0  0  0  0  0  0  0  0  0
   -7.2826    2.2400   -0.8130 H   0  0  0  0  0  0  0  0  0  0  0  0
   -6.2174    0.5263   -2.3142 H   0  0  0  0  0  0  0  0  0  0  0  0
   -8.3349   -0.3212   -1.4058 H   0  0  0  0  0  0  0  0  0  0  0  0
   -7.6172   -0.5095    0.2170 H   0  0  0  0  0  0  0  0  0  0  0  0
   -8.8469   -3.0074   -1.0251 H   0  0  0  0  0  0  0  0  0  0  0  0
   -7.9681   -2.8056    0.5079 H   0  0  0  0  0  0  0  0  0  0  0  0
   -5.1536   -4.2239   -1.2679 H   0  0  0  0  0  0  0  0  0  0  0  0
   -5.4374   -5.4411   -0.0092 H   0  0  0  0  0  0  0  0  0  0  0  0
   -7.3639   -4.8240   -1.6915 H   0  0  0  0  0  0  0  0  0  0  0  0
   -6.8993   -2.0950   -2.1597 H   0  0  0  0  0  0  0  0  0  0  0  0
   -6.0507   -2.0384   -0.7366 H   0  0  0  0  0  0  0  0  0  0  0  0
   -7.8699   -6.1429    0.0905 H   0  0  0  0  0  0  0  0  0  0  0  0
  1  4  1  0  0  0  0
  1 12  2  0  0  0  0
  1 34  1  0  0  0  0
  2  5  2  0  0  0  0
  2 12  1  0  0  0  0
  2 35  1  0  0  0  0
  3  6  2  0  0  0  0
  3 13  1  0  0  0  0
  3 36  1  0  0  0  0
  4 14  2  0  0  0  0
  4 37  1  0  0  0  0
  5 14  1  0  0  0  0
  5 38  1  0  0  0  0
  6 16  1  0  0  0  0
  6 39  1  0  0  0  0
  7  9  2  0  0  0  0
  7 17  1  0  0  0  0
  7 40  1  0  0  0  0
  8 10  1  0  0  0  0
  8 17  2  0  0  0  0
  8 41  1  0  0  0  0
  9 18  1  0  0  0  0
  9 42  1  0  0  0  0
 10 18  2  0  0  0  0
 10 43  1  0  0  0  0
 11 13  2  0  0  0  0
 11 15  1  0  0  0  0
 11 44  1  0  0  0  0
 12 13  1  0  0  0  0
 14 19  1  0  0  0  0
 15 16  2  0  0  0  0
 15 20  1  0  0  0  0
 16 30  1  0  0  0  0
 17 32  1  0  0  0  0
 18 33  1  0  0  0  0
 19 28  1  0  0  0  0
 19 29  2  0  0  0  0
 20 21  1  0  0  0  0
 20 45  1  0  0  0  0
 20 46  1  0  0  0  0
 21 22  1  0  0  0  0
 21 47  1  0  0  0  0
 21 48  1  0  0  0  0
 22 23  1  0  0  0  0
 22 30  1  0  0  0  0
 22 49  1  0  0  0  0
 23 27  1  0  0  0  0
 23 50  1  0  0  0  0
 23 51  1  0  0  0  0
 24 26  1  0  0  0  0
 24 27  1  0  0  0  0
 24 52  1  0  0  0  0
 24 53  1  0  0  0  0
 25 26  1  0  0  0  0
 25 32  1  0  0  0  0
 25 54  1  0  0  0  0
 25 55  1  0  0  0  0
 26 31  1  0  0  0  0
 26 56  1  0  0  0  0
 27 57  1  0  0  0  0
 27 58  1  0  0  0  0
 31 59  1  0  0  0  0
M  CHG  2  27   1  28  -1
M  END
$$$$
