
  -OEChem-05262117483D

 73 77  0     1  0  0  0  0  0999 V2000
    3.7289    1.8865    0.5766 C   0  0  0  0  0  0  0  0  0  0  0  0
    4.4612   -0.4060    0.7524 C   0  0  0  0  0  0  0  0  0  0  0  0
    2.5475    1.3918    5.9652 C   0  0  0  0  0  0  0  0  0  0  0  0
    1.7128    2.5467    4.0334 C   0  0  0  0  0  0  0  0  0  0  0  0
    2.1474    2.4646    6.7712 C   0  0  0  0  0  0  0  0  0  0  0  0
    1.3266    3.6149    4.8394 C   0  0  0  0  0  0  0  0  0  0  0  0
    5.0188    2.2784    0.2108 C   0  0  0  0  0  0  0  0  0  0  0  0
    5.7576   -0.0359    0.3816 C   0  0  0  0  0  0  0  0  0  0  0  0
   -0.4867   -0.7669    1.9474 C   0  0  0  0  0  0  0  0  0  0  0  0
    3.4355    0.5450    0.8608 C   0  0  0  0  0  0  0  0  0  0  0  0
    2.0559    0.1204    1.2605 C   0  0  0  0  0  0  0  0  0  0  0  0
    1.1090   -0.1044    0.2405 C   0  0  0  0  0  0  0  0  0  0  0  0
    2.3256    1.4141    4.5876 C   0  0  0  0  0  0  0  0  0  0  0  0
    1.5274    3.5990    6.2317 C   0  0  0  0  0  0  0  0  0  0  0  0
    0.4339   -0.5254    2.9640 C   0  0  0  0  0  0  0  0  0  0  0  0
    1.7303   -0.0687    2.6167 C   0  0  0  0  0  0  0  0  0  0  0  0
   -0.1669   -0.5545    0.6037 C   0  0  0  0  0  0  0  0  0  0  0  0
    6.0104    1.3064    0.1202 C   0  0  0  0  0  0  0  0  0  0  0  0
   -2.9294    0.4906   -2.1682 C   0  0  0  0  0  0  0  0  0  0  0  0
   -2.1843   -0.8427   -2.4652 C   0  0  0  0  0  0  0  0  0  0  0  0
   -1.5717    1.1092   -1.7325 C   0  0  0  0  0  0  0  0  0  0  0  0
    0.4327   -0.6021   -2.1140 C   0  0  0  0  0  0  0  0  0  0  0  0
    1.4531    0.1020   -1.2145 C   0  0  1  0  0  0  0  0  0  0  0  0
   -0.9826   -0.3286   -1.6410 C   0  0  0  0  0  0  0  0  0  0  0  0
   -0.4571   -2.2048    4.6359 C   0  0  0  0  0  0  0  0  0  0  0  0
   -1.1010    0.2486    4.8194 C   0  0  0  0  0  0  0  0  0  0  0  0
   -0.4574    4.9780    6.9217 C   0  0  0  0  0  0  0  0  0  0  0  0
    1.7975    6.0685    6.6168 C   0  0  0  0  0  0  0  0  0  0  0  0
    1.3681    4.5854    8.5808 C   0  0  0  0  0  0  0  0  0  0  0  0
    2.7623    0.2728    3.6849 C   0  0  2  0  0  0  0  0  0  0  0  0
   -0.0057   -0.7513    4.4069 C   0  0  0  0  0  0  0  0  0  0  0  0
    1.0680    4.7889    7.0853 C   0  0  0  0  0  0  0  0  0  0  0  0
   -1.1481   -0.8515   -0.3028 O   0  0  0  0  0  0  0  0  0  0  0  0
    1.4746    1.5261   -1.4675 O   0  0  0  0  0  0  0  0  0  0  0  0
    3.1041   -0.8618    4.5053 O   0  0  0  0  0  0  0  0  0  0  0  0
    7.2671    1.6806   -0.2397 F   0  0  0  0  0  0  0  0  0  0  0  0
    2.9383    2.6262    0.6380 H   0  0  0  0  0  0  0  0  0  0  0  0
    4.2419   -1.4509    0.9581 H   0  0  0  0  0  0  0  0  0  0  0  0
    3.0194    0.5233    6.4121 H   0  0  0  0  0  0  0  0  0  0  0  0
    1.5135    2.5831    2.9656 H   0  0  0  0  0  0  0  0  0  0  0  0
    2.3290    2.3970    7.8384 H   0  0  0  0  0  0  0  0  0  0  0  0
    0.8471    4.4697    4.3698 H   0  0  0  0  0  0  0  0  0  0  0  0
    5.2593    3.3156   -0.0024 H   0  0  0  0  0  0  0  0  0  0  0  0
    6.5583   -0.7644    0.2972 H   0  0  0  0  0  0  0  0  0  0  0  0
   -1.4890   -1.1169    2.1752 H   0  0  0  0  0  0  0  0  0  0  0  0
   -3.6281    0.3920   -1.3341 H   0  0  0  0  0  0  0  0  0  0  0  0
   -3.4435    0.9666   -3.0073 H   0  0  0  0  0  0  0  0  0  0  0  0
   -2.6310   -1.7726   -2.1048 H   0  0  0  0  0  0  0  0  0  0  0  0
   -1.9246   -0.9508   -3.5228 H   0  0  0  0  0  0  0  0  0  0  0  0
   -1.0956    1.6868   -2.5280 H   0  0  0  0  0  0  0  0  0  0  0  0
   -1.5377    1.6928   -0.8102 H   0  0  0  0  0  0  0  0  0  0  0  0
    0.5526   -0.2664   -3.1496 H   0  0  0  0  0  0  0  0  0  0  0  0
    0.6091   -1.6852   -2.0929 H   0  0  0  0  0  0  0  0  0  0  0  0
    2.4537   -0.3051   -1.4068 H   0  0  0  0  0  0  0  0  0  0  0  0
   -1.3488   -2.4555    4.0514 H   0  0  0  0  0  0  0  0  0  0  0  0
   -0.6979   -2.3619    5.6932 H   0  0  0  0  0  0  0  0  0  0  0  0
    0.3353   -2.9083    4.3602 H   0  0  0  0  0  0  0  0  0  0  0  0
   -2.0074    0.1249    4.2162 H   0  0  0  0  0  0  0  0  0  0  0  0
   -0.7519    1.2785    4.7047 H   0  0  0  0  0  0  0  0  0  0  0  0
   -1.3728    0.0976    5.8701 H   0  0  0  0  0  0  0  0  0  0  0  0
   -0.8055    5.8222    7.5280 H   0  0  0  0  0  0  0  0  0  0  0  0
   -0.7324    5.1780    5.8819 H   0  0  0  0  0  0  0  0  0  0  0  0
   -0.9964    4.0803    7.2425 H   0  0  0  0  0  0  0  0  0  0  0  0
    1.4819    6.9302    7.2163 H   0  0  0  0  0  0  0  0  0  0  0  0
    2.8819    5.9574    6.7210 H   0  0  0  0  0  0  0  0  0  0  0  0
    1.5849    6.2957    5.5679 H   0  0  0  0  0  0  0  0  0  0  0  0
    1.0237    5.4566    9.1480 H   0  0  0  0  0  0  0  0  0  0  0  0
    0.8543    3.7060    8.9830 H   0  0  0  0  0  0  0  0  0  0  0  0
    2.4409    4.4726    8.7691 H   0  0  0  0  0  0  0  0  0  0  0  0
    3.6731    0.6070    3.1787 H   0  0  0  0  0  0  0  0  0  0  0  0
    0.8501   -0.5869    5.0566 H   0  0  0  0  0  0  0  0  0  0  0  0
    1.9510    1.6676   -2.3013 H   0  0  0  0  0  0  0  0  0  0  0  0
    3.3646   -1.5743    3.9012 H   0  0  0  0  0  0  0  0  0  0  0  0
  1  7  1  0  0  0  0
  1 10  2  0  0  0  0
  1 37  1  0  0  0  0
  2  8  2  0  0  0  0
  2 10  1  0  0  0  0
  2 38  1  0  0  0  0
  3  5  2  0  0  0  0
  3 13  1  0  0  0  0
  3 39  1  0  0  0  0
  4  6  1  0  0  0  0
  4 13  2  0  0  0  0
  4 40  1  0  0  0  0
  5 14  1  0  0  0  0
  5 41  1  0  0  0  0
  6 14  2  0  0  0  0
  6 42  1  0  0  0  0
  7 18  2  0  0  0  0
  7 43  1  0  0  0  0
  8 18  1  0  0  0  0
  8 44  1  0  0  0  0
  9 15  2  0  0  0  0
  9 17  1  0  0  0  0
  9 45  1  0  0  0  0
 10 11  1  0  0  0  0
 11 12  1  0  0  0  0
 11 16  2  0  0  0  0
 12 17  2  0  0  0  0
 12 23  1  0  0  0  0
 13 30  1  0  0  0  0
 14 32  1  0  0  0  0
 15 16  1  0  0  0  0
 15 31  1  0  0  0  0
 16 30  1  0  0  0  0
 17 33  1  0  0  0  0
 18 36  1  0  0  0  0
 19 20  1  0  0  0  0
 19 21  1  0  0  0  0
 19 46  1  0  0  0  0
 19 47  1  0  0  0  0
 20 24  1  0  0  0  0
 20 48  1  0  0  0  0
 20 49  1  0  0  0  0
 21 24  1  0  0  0  0
 21 50  1  0  0  0  0
 21 51  1  0  0  0  0
 22 23  1  0  0  0  0
 22 24  1  0  0  0  0
 22 52  1  0  0  0  0
 22 53  1  0  0  0  0
 23 34  1  0  0  0  0
 23 54  1  0  0  0  0
 24 33  1  0  0  0  0
 25 31  1  0  0  0  0
 25 55  1  0  0  0  0
 25 56  1  0  0  0  0
 25 57  1  0  0  0  0
 26 31  1  0  0  0  0
 26 58  1  0  0  0  0
 26 59  1  0  0  0  0
 26 60  1  0  0  0  0
 27 32  1  0  0  0  0
 27 61  1  0  0  0  0
 27 62  1  0  0  0  0
 27 63  1  0  0  0  0
 28 32  1  0  0  0  0
 28 64  1  0  0  0  0
 28 65  1  0  0  0  0
 28 66  1  0  0  0  0
 29 32  1  0  0  0  0
 29 67  1  0  0  0  0
 29 68  1  0  0  0  0
 29 69  1  0  0  0  0
 30 35  1  0  0  0  0
 30 70  1  0  0  0  0
 31 71  1  0  0  0  0
 34 72  1  0  0  0  0
 35 73  1  0  0  0  0
M  END
$$$$
