
  -OEChem-05262117483D

 59 62  0     1  0  0  0  0  0999 V2000
    1.2571    1.9602   -0.0112 C   0  0  0  0  0  0  0  0  0  0  0  0
    0.2862    3.8817   -1.1116 C   0  0  0  0  0  0  0  0  0  0  0  0
   -1.3087    0.5312   -0.6982 C   0  0  0  0  0  0  0  0  0  0  0  0
    2.5004    2.5915   -0.0163 C   0  0  0  0  0  0  0  0  0  0  0  0
    1.5334    4.5045   -1.1161 C   0  0  0  0  0  0  0  0  0  0  0  0
   -2.5529   -0.0918   -0.7160 C   0  0  0  0  0  0  0  0  0  0  0  0
   -8.4185   -1.8088   -5.8202 C   0  0  0  0  0  0  0  0  0  0  0  0
   -6.3529   -3.0843   -5.9385 C   0  0  0  0  0  0  0  0  0  0  0  0
   -8.3344   -1.5305   -7.1832 C   0  0  0  0  0  0  0  0  0  0  0  0
   -6.2686   -2.8096   -7.3093 C   0  0  0  0  0  0  0  0  0  0  0  0
   -2.3830    2.6663   -0.4295 C   0  0  0  0  0  0  0  0  0  0  0  0
    0.1251    2.5953   -0.5594 C   0  0  0  0  0  0  0  0  0  0  0  0
   -1.1914    1.9315   -0.5605 C   0  0  0  0  0  0  0  0  0  0  0  0
    2.6588    3.8706   -0.5695 C   0  0  0  0  0  0  0  0  0  0  0  0
   -3.6480    2.0678   -0.4483 C   0  0  0  0  0  0  0  0  0  0  0  0
   -3.7071    0.6804   -0.5999 C   0  0  0  0  0  0  0  0  0  0  0  0
   -7.4289   -2.5817   -5.2033 C   0  0  0  0  0  0  0  0  0  0  0  0
   -7.2569   -2.0387   -7.9076 C   0  0  0  0  0  0  0  0  0  0  0  0
    4.0450    4.5664   -0.5796 C   0  0  0  0  0  0  0  0  0  0  0  0
   -4.9091    2.8990   -0.3132 C   0  0  0  0  0  0  0  0  0  0  0  0
   -6.1335    2.0238   -0.0134 C   0  0  0  0  0  0  0  0  0  0  0  0
   -6.0802    0.7907   -0.9085 C   0  0  2  0  0  0  0  0  0  0  0  0
   -7.2518   -0.1640   -0.7031 C   0  0  0  0  0  0  0  0  0  0  0  0
   -7.8348   -2.6123   -1.1683 C   0  0  0  0  0  0  0  0  0  0  0  0
   -6.7538   -3.7459   -3.1946 C   0  0  0  0  0  0  0  0  0  0  0  0
   -7.2149   -3.8897   -1.7269 C   0  0  1  0  0  0  0  0  0  0  0  0
   -6.9100   -1.4556   -1.3989 N   0  3  0  0  0  0  0  0  0  0  0  0
    4.0505    5.7244   -1.0759 O   0  5  0  0  0  0  0  0  0  0  0  0
    4.9826    3.8816   -0.0909 O   0  0  0  0  0  0  0  0  0  0  0  0
   -4.9367   -0.0103   -0.6169 O   0  0  0  0  0  0  0  0  0  0  0  0
   -6.0967   -4.1614   -0.8828 O   0  0  0  0  0  0  0  0  0  0  0  0
   -7.5892   -2.7797   -3.8320 O   0  0  0  0  0  0  0  0  0  0  0  0
   -7.1759   -1.7742   -9.2309 F   0  0  0  0  0  0  0  0  0  0  0  0
    1.1520    0.9821    0.4557 H   0  0  0  0  0  0  0  0  0  0  0  0
   -0.5645    4.3773   -1.5773 H   0  0  0  0  0  0  0  0  0  0  0  0
   -0.4121   -0.0676   -0.8227 H   0  0  0  0  0  0  0  0  0  0  0  0
    3.3834    2.1237    0.4103 H   0  0  0  0  0  0  0  0  0  0  0  0
    1.6817    5.4905   -1.5478 H   0  0  0  0  0  0  0  0  0  0  0  0
   -2.6379   -1.1700   -0.8298 H   0  0  0  0  0  0  0  0  0  0  0  0
   -9.2522   -1.4394   -5.2302 H   0  0  0  0  0  0  0  0  0  0  0  0
   -5.5740   -3.6798   -5.4760 H   0  0  0  0  0  0  0  0  0  0  0  0
   -9.0901   -0.9355   -7.6860 H   0  0  0  0  0  0  0  0  0  0  0  0
   -5.4430   -3.1858   -7.9050 H   0  0  0  0  0  0  0  0  0  0  0  0
   -2.3216    3.7414   -0.2811 H   0  0  0  0  0  0  0  0  0  0  0  0
   -4.7830    3.6426    0.4792 H   0  0  0  0  0  0  0  0  0  0  0  0
   -5.0808    3.4610   -1.2397 H   0  0  0  0  0  0  0  0  0  0  0  0
   -6.1211    1.6908    1.0307 H   0  0  0  0  0  0  0  0  0  0  0  0
   -7.0633    2.5787   -0.1818 H   0  0  0  0  0  0  0  0  0  0  0  0
   -6.0379    1.1064   -1.9649 H   0  0  0  0  0  0  0  0  0  0  0  0
   -8.1863    0.2200   -1.1154 H   0  0  0  0  0  0  0  0  0  0  0  0
   -7.3800   -0.3993    0.3553 H   0  0  0  0  0  0  0  0  0  0  0  0
   -8.7842   -2.3820   -1.6493 H   0  0  0  0  0  0  0  0  0  0  0  0
   -7.9732   -2.7211   -0.0920 H   0  0  0  0  0  0  0  0  0  0  0  0
   -6.8119   -4.7079   -3.7164 H   0  0  0  0  0  0  0  0  0  0  0  0
   -5.7068   -3.4148   -3.1989 H   0  0  0  0  0  0  0  0  0  0  0  0
   -7.9755   -4.6749   -1.6417 H   0  0  0  0  0  0  0  0  0  0  0  0
   -6.8657   -1.2999   -2.4153 H   0  0  0  0  0  0  0  0  0  0  0  0
   -5.9497   -1.6880   -1.0911 H   0  0  0  0  0  0  0  0  0  0  0  0
   -5.7454   -5.0495   -1.0575 H   0  0  0  0  0  0  0  0  0  0  0  0
  1  4  1  0  0  0  0
  1 12  2  0  0  0  0
  1 34  1  0  0  0  0
  2  5  2  0  0  0  0
  2 12  1  0  0  0  0
  2 35  1  0  0  0  0
  3  6  2  0  0  0  0
  3 13  1  0  0  0  0
  3 36  1  0  0  0  0
  4 14  2  0  0  0  0
  4 37  1  0  0  0  0
  5 14  1  0  0  0  0
  5 38  1  0  0  0  0
  6 16  1  0  0  0  0
  6 39  1  0  0  0  0
  7  9  2  0  0  0  0
  7 17  1  0  0  0  0
  7 40  1  0  0  0  0
  8 10  1  0  0  0  0
  8 17  2  0  0  0  0
  8 41  1  0  0  0  0
  9 18  1  0  0  0  0
  9 42  1  0  0  0  0
 10 18  2  0  0  0  0
 10 43  1  0  0  0  0
 11 13  2  0  0  0  0
 11 15  1  0  0  0  0
 11 44  1  0  0  0  0
 12 13  1  0  0  0  0
 14 19  1  0  0  0  0
 15 16  2  0  0  0  0
 15 20  1  0  0  0  0
 16 30  1  0  0  0  0
 17 32  1  0  0  0  0
 18 33  1  0  0  0  0
 19 28  1  0  0  0  0
 19 29  2  0  0  0  0
 20 21  1  0  0  0  0
 20 45  1  0  0  0  0
 20 46  1  0  0  0  0
 21 22  1  0  0  0  0
 21 47  1  0  0  0  0
 21 48  1  0  0  0  0
 22 23  1  0  0  0  0
 22 30  1  0  0  0  0
 22 49  1  0  0  0  0
 23 27  1  0  0  0  0
 23 50  1  0  0  0  0
 23 51  1  0  0  0  0
 24 26  1  0  0  0  0
 24 27  1  0  0  0  0
 24 52  1  0  0  0  0
 24 53  1  0  0  0  0
 25 26  1  0  0  0  0
 25 32  1  0  0  0  0
 25 54  1  0  0  0  0
 25 55  1  0  0  0  0
 26 31  1  0  0  0  0
 26 56  1  0  0  0  0
 27 57  1  0  0  0  0
 27 58  1  0  0  0  0
 31 59  1  0  0  0  0
M  CHG  2  27   1  28  -1
M  END
$$$$
