
  -OEChem-05262117483D

 18 18  0     0  0  0  0  0  0999 V2000
   -1.9324    3.9591   -0.5806 C   0  0  0  0  0  0  0  0  0  0  0  0
   -1.4199    3.3407    0.5626 C   0  0  0  0  0  0  0  0  0  0  0  0
   -3.3100    4.1222   -0.7461 C   0  0  0  0  0  0  0  0  0  0  0  0
   -3.6758    3.0383    1.4057 C   0  0  0  0  0  0  0  0  0  0  0  0
   -2.2888    2.8763    1.5623 C   0  0  0  0  0  0  0  0  0  0  0  0
   -4.1628    3.6563    0.2585 C   0  0  0  0  0  0  0  0  0  0  0  0
   -1.7569    2.2103    2.7760 C   0  0  0  0  0  0  0  0  0  0  0  0
   -2.4613    2.2865    3.8605 N   0  0  0  0  0  0  0  0  0  0  0  0
   -0.5117    1.6048    2.6937 N   0  0  0  0  0  0  0  0  0  0  0  0
   -1.8167    1.5624    4.9056 O   0  0  0  0  0  0  0  0  0  0  0  0
   -6.0594    3.8591    0.0399 Br  0  0  0  0  0  0  0  0  0  0  0  0
   -1.2556    4.3250   -1.3480 H   0  0  0  0  0  0  0  0  0  0  0  0
   -0.3461    3.2492    0.6935 H   0  0  0  0  0  0  0  0  0  0  0  0
   -3.7124    4.5993   -1.6337 H   0  0  0  0  0  0  0  0  0  0  0  0
   -4.3462    2.6763    2.1764 H   0  0  0  0  0  0  0  0  0  0  0  0
   -0.3130    1.1504    1.8105 H   0  0  0  0  0  0  0  0  0  0  0  0
   -0.2892    1.0332    3.5019 H   0  0  0  0  0  0  0  0  0  0  0  0
   -2.4183    1.7008    5.6535 H   0  0  0  0  0  0  0  0  0  0  0  0
  1  2  1  0  0  0  0
  1  3  2  0  0  0  0
  1 12  1  0  0  0  0
  2  5  2  0  0  0  0
  2 13  1  0  0  0  0
  3  6  1  0  0  0  0
  3 14  1  0  0  0  0
  4  5  1  0  0  0  0
  4  6  2  0  0  0  0
  4 15  1  0  0  0  0
  5  7  1  0  0  0  0
  6 11  1  0  0  0  0
  7  8  2  0  0  0  0
  7  9  1  0  0  0  0
  8 10  1  0  0  0  0
  9 16  1  0  0  0  0
  9 17  1  0  0  0  0
 10 18  1  0  0  0  0
M  END
$$$$
