34
0 1 C15ClH10N3O4S
C                     5.439260214233    -4.615442456185     1.739799045856
C                     5.550882669550    -3.302979958796     2.218437319315
C                     4.326400952953    -5.015010467564     0.989123320474
C                     4.548655799484    -2.358486899217     1.955778268718
C                    -0.709644033563    -8.539198274613    -3.022480571684
C                    -2.949986294257    -6.914044079713    -3.649066892341
C                     3.326601466378    -4.075310949164     0.726277570866
C                    -0.755521020092    -7.191802312998    -2.560238065623
C                    -1.756043066397    -9.021544032403    -3.770582278569
C                    -2.857462056144    -8.222781778093    -4.078713299332
C                     3.457569725040    -2.776706840907     1.211539931187
C                    -1.883451512921    -6.402478373457    -2.885299502688
C                     2.044855266561    -4.200587478292    -0.032198702860
C                     0.403087161541    -6.766285366829    -1.777800658382
C                    -3.119129238144   -10.196570386797    -5.105774101346
N                     1.279900477332    -3.154504840513    -0.129233494055
N                     0.581928394377    -5.589478632752    -1.290323458596
N                     1.735337690379    -5.404980723080    -0.588252146713
O                     1.189141928943    -1.486405782383     1.849545271621
O                     2.382947343181    -0.816795200747    -0.277899745855
O                    -1.936924663680   -10.283447277468    -4.291986092977
O                    -3.767482125631    -8.944313105639    -4.806327084989
S                     1.997622385141    -1.847121856959     0.685714544845
Cl                   -2.039663254942    -4.745976355609    -2.368483390108
H                     6.226062105772    -5.333116933841     1.953643520225
H                     6.422893241770    -3.014991946846     2.798770048606
H                     4.265538742048    -6.039744890141     0.630630774452
H                     4.623041610267    -1.338571196071     2.320888805481
H                     0.140281544732    -9.171380543729    -2.783841790156
H                    -3.808427947863    -6.295584984368    -3.885204142066
H                     1.156970843841    -7.553376215584    -1.622663617066
H                    -2.835466260330   -10.209146489588    -6.165460699855
H                    -3.792928225651   -11.018647352910    -4.855702869524
H                     2.389113781716    -6.178214378643    -0.473202268812
