23
0 1 C9FH8N3O2
C                     3.295133816543    -4.729457898474     2.968933198529
C                     2.065110593237    -2.094828322830    -0.290327128682
C                     1.064260044303    -1.254067654606     0.183544702763
C                     2.219653749553    -1.154840847359     2.327738787510
C                     3.242270881192    -1.990526489170     1.860089868392
C                     3.144185080555    -2.441331570670     0.529802306542
C                     1.168822492447    -0.796780559741     1.493713735537
C                     3.723110838771    -3.569206362306     3.756539513513
C                     4.297812180605    -2.434184783727     2.868805800463
N                     2.954808696761    -5.628171012042     2.314688594857
N                     4.629587479445    -1.311166330729     3.762789191623
N                     4.172130698616    -3.287689700800    -0.109438948435
O                     5.350504114743    -3.152617297153     0.247525175050
O                     3.800505297168    -4.054094959471    -0.999366651367
F                     0.208530265149     0.021368271019     1.977268239912
H                     2.028616553667    -2.485399654864    -1.300322203782
H                     0.225186800493    -0.957769131525    -0.437201327150
H                     2.256023051471    -0.784454154509     3.346594252364
H                     2.871288504140    -3.190822166646     4.329648513494
H                     4.486574269034    -3.895564902674     4.471537248792
H                     5.163851284342    -2.826096706847     2.337800340740
H                     5.033446811080    -0.555149556260     3.210570763808
H                     5.356563410768    -1.606132787768     4.414159907949
