
  -OEChem-05262117483D

 38 40  0     0  0  0  0  0  0999 V2000
   -3.0667    1.6895  -10.0292 C   0  0  0  0  0  0  0  0  0  0  0  0
   -4.2368    2.4552  -10.0002 C   0  0  0  0  0  0  0  0  0  0  0  0
   -2.2770    1.5906   -8.8835 C   0  0  0  0  0  0  0  0  0  0  0  0
   -4.6110    3.1303   -8.8362 C   0  0  0  0  0  0  0  0  0  0  0  0
   -0.9667    1.6434   -4.5669 C   0  0  0  0  0  0  0  0  0  0  0  0
   -2.6458    2.2568   -7.7118 C   0  0  0  0  0  0  0  0  0  0  0  0
   -3.8100    3.0382   -7.6956 C   0  0  0  0  0  0  0  0  0  0  0  0
   -0.1029    2.4988   -5.3213 C   0  0  0  0  0  0  0  0  0  0  0  0
   -2.0542    1.4463   -5.4135 C   0  0  0  0  0  0  0  0  0  0  0  0
   -0.7013    1.1414   -3.2278 C   0  0  0  0  0  0  0  0  0  0  0  0
   -0.3147    0.4850   -0.4732 C   0  0  0  0  0  0  0  0  0  0  0  0
   -2.4891   -0.5471   -0.6939 C   0  0  0  0  0  0  0  0  0  0  0  0
   -0.9806    1.6967    0.1871 C   0  0  0  0  0  0  0  0  0  0  0  0
   -3.1060    0.6776   -0.0156 C   0  0  0  0  0  0  0  0  0  0  0  0
    1.2291    3.0482   -4.9095 C   0  0  0  0  0  0  0  0  0  0  0  0
   -0.6138    2.7946   -6.5156 N   0  0  0  0  0  0  0  0  0  0  0  0
   -1.5284    0.3585   -2.6219 N   0  0  0  0  0  0  0  0  0  0  0  0
   -1.8175    2.1465   -6.5625 N   0  0  0  0  0  0  0  0  0  0  0  0
   -1.2489   -0.1837   -1.3944 N   0  0  0  0  0  0  0  0  0  0  0  0
   -2.1700    1.3000    0.8720 O   0  0  0  0  0  0  0  0  0  0  0  0
   -4.2604    3.9230   -6.2582 Cl  0  0  0  0  0  0  0  0  0  0  0  0
   -3.4792    0.5098   -5.2174 Cl  0  0  0  0  0  0  0  0  0  0  0  0
   -2.7739    1.1691  -10.9363 H   0  0  0  0  0  0  0  0  0  0  0  0
   -4.8615    2.5340  -10.8856 H   0  0  0  0  0  0  0  0  0  0  0  0
   -1.3656    1.0008   -8.8753 H   0  0  0  0  0  0  0  0  0  0  0  0
   -5.5110    3.7361   -8.8089 H   0  0  0  0  0  0  0  0  0  0  0  0
    0.2447    1.4708   -2.7901 H   0  0  0  0  0  0  0  0  0  0  0  0
    0.6104    0.7556   -0.9865 H   0  0  0  0  0  0  0  0  0  0  0  0
   -0.0519   -0.2463    0.2977 H   0  0  0  0  0  0  0  0  0  0  0  0
   -2.2450   -1.3048    0.0587 H   0  0  0  0  0  0  0  0  0  0  0  0
   -3.1766   -0.9770   -1.4250 H   0  0  0  0  0  0  0  0  0  0  0  0
   -0.3254    2.1424    0.9408 H   0  0  0  0  0  0  0  0  0  0  0  0
   -1.2190    2.4610   -0.5673 H   0  0  0  0  0  0  0  0  0  0  0  0
   -3.4319    1.3973   -0.7817 H   0  0  0  0  0  0  0  0  0  0  0  0
   -3.9682    0.3996    0.5968 H   0  0  0  0  0  0  0  0  0  0  0  0
    1.9428    2.2461   -4.6906 H   0  0  0  0  0  0  0  0  0  0  0  0
    1.6362    3.6624   -5.7157 H   0  0  0  0  0  0  0  0  0  0  0  0
    1.1439    3.6703   -4.0115 H   0  0  0  0  0  0  0  0  0  0  0  0
  1  2  1  0  0  0  0
  1  3  2  0  0  0  0
  1 23  1  0  0  0  0
  2  4  2  0  0  0  0
  2 24  1  0  0  0  0
  3  6  1  0  0  0  0
  3 25  1  0  0  0  0
  4  7  1  0  0  0  0
  4 26  1  0  0  0  0
  5  8  1  0  0  0  0
  5  9  2  0  0  0  0
  5 10  1  0  0  0  0
  6  7  2  0  0  0  0
  6 18  1  0  0  0  0
  7 21  1  0  0  0  0
  8 15  1  0  0  0  0
  8 16  2  0  0  0  0
  9 18  1  0  0  0  0
  9 22  1  0  0  0  0
 10 17  2  0  0  0  0
 10 27  1  0  0  0  0
 11 13  1  0  0  0  0
 11 19  1  0  0  0  0
 11 28  1  0  0  0  0
 11 29  1  0  0  0  0
 12 14  1  0  0  0  0
 12 19  1  0  0  0  0
 12 30  1  0  0  0  0
 12 31  1  0  0  0  0
 13 20  1  0  0  0  0
 13 32  1  0  0  0  0
 13 33  1  0  0  0  0
 14 20  1  0  0  0  0
 14 34  1  0  0  0  0
 14 35  1  0  0  0  0
 15 36  1  0  0  0  0
 15 37  1  0  0  0  0
 15 38  1  0  0  0  0
 16 18  1  0  0  0  0
 17 19  1  0  0  0  0
M  END
$$$$
