
  -OEChem-05262117483D

 23 23  0     1  0  0  0  0  0999 V2000
    5.2261   -0.1415    3.3631 C   0  0  0  0  0  0  0  0  0  0  0  0
    2.0124   -1.3775   -0.2543 C   0  0  0  0  0  0  0  0  0  0  0  0
    1.0030   -0.6279    0.3468 C   0  0  0  0  0  0  0  0  0  0  0  0
    2.0798   -0.9826    2.5043 C   0  0  0  0  0  0  0  0  0  0  0  0
    3.1100   -1.7208    1.9109 C   0  0  0  0  0  0  0  0  0  0  0  0
    3.0542   -1.8894    0.5182 C   0  0  0  0  0  0  0  0  0  0  0  0
    1.0648   -0.4405    1.7232 C   0  0  0  0  0  0  0  0  0  0  0  0
    5.4749   -1.4889    2.8427 C   0  0  0  0  0  0  0  0  0  0  0  0
    4.1750   -2.3340    2.8097 C   0  0  2  0  0  0  0  0  0  0  0  0
    4.9913    0.9151    3.7881 N   0  0  0  0  0  0  0  0  0  0  0  0
    4.5025   -3.6835    2.3453 N   0  0  0  0  0  0  0  0  0  0  0  0
    4.1086   -2.5964   -0.2376 N   0  3  0  0  0  0  0  0  0  0  0  0
    5.2562   -2.1473   -0.1748 O   0  5  0  0  0  0  0  0  0  0  0  0
    3.7543   -3.5432   -0.9408 O   0  0  0  0  0  0  0  0  0  0  0  0
    0.0929    0.2748    2.3305 F   0  0  0  0  0  0  0  0  0  0  0  0
    2.0035   -1.5602   -1.3238 H   0  0  0  0  0  0  0  0  0  0  0  0
    0.1868   -0.2036   -0.2285 H   0  0  0  0  0  0  0  0  0  0  0  0
    2.0624   -0.8232    3.5780 H   0  0  0  0  0  0  0  0  0  0  0  0
    5.9015   -1.4250    1.8403 H   0  0  0  0  0  0  0  0  0  0  0  0
    6.2064   -1.9782    3.4961 H   0  0  0  0  0  0  0  0  0  0  0  0
    3.7658   -2.3204    3.8307 H   0  0  0  0  0  0  0  0  0  0  0  0
    3.6982   -4.2972    2.4598 H   0  0  0  0  0  0  0  0  0  0  0  0
    5.2655   -4.0784    2.8917 H   0  0  0  0  0  0  0  0  0  0  0  0
  1  8  1  0  0  0  0
  1 10  3  0  0  0  0
  2  3  1  0  0  0  0
  2  6  2  0  0  0  0
  2 16  1  0  0  0  0
  3  7  2  0  0  0  0
  3 17  1  0  0  0  0
  4  5  2  0  0  0  0
  4  7  1  0  0  0  0
  4 18  1  0  0  0  0
  5  6  1  0  0  0  0
  5  9  1  0  0  0  0
  6 12  1  0  0  0  0
  7 15  1  0  0  0  0
  8  9  1  0  0  0  0
  8 19  1  0  0  0  0
  8 20  1  0  0  0  0
  9 11  1  0  0  0  0
  9 21  1  0  0  0  0
 11 22  1  0  0  0  0
 11 23  1  0  0  0  0
 12 13  1  0  0  0  0
 12 14  2  0  0  0  0
M  CHG  2  12   1  13  -1
M  END
$$$$
