38
0 1 C15Cl2H16N4O
C                    -4.122993573004     3.551722532478    -8.913395953564
C                    -4.148937686989     2.632304910742    -9.967285436897
C                    -3.293456679333     3.321786207766    -7.815965795796
C                    -3.338263568998     1.495617905645    -9.932868899430
C                    -0.709138394155     1.242624462014    -4.755751650426
C                    -2.483721184128     2.183297909902    -7.767506863696
C                    -2.498199536113     1.277554073829    -8.838316402041
C                     0.008469983975     2.355192532951    -5.307744855128
C                    -1.755539384945     1.052644287022    -5.649464065812
C                    -0.457591816269     0.463038526172    -3.556444946948
C                     2.184294890351     0.103705043477    -1.241904675172
C                     0.214528457081    -1.285720098414    -1.403604085411
C                     2.971114488159    -0.976861310817    -1.986803986790
C                     1.039741009838    -2.332012861881    -2.159476595589
C                     1.241961291841     3.011750582969    -4.775622392273
N                    -0.558432047789     2.792894250071    -6.430866042589
N                     0.553880155383     0.727274911155    -2.798594229478
N                    -1.643270248617     1.982203357162    -6.641171247479
N                     0.763330321028     0.064453958888    -1.615058694953
O                     2.409659833060    -2.272923685679    -1.755539178565
Cl                   -1.446586208008    -0.118227555300    -8.832864839584
Cl                   -3.053608854882    -0.081238481033    -5.598628360730
H                    -4.748538795708     4.438953934644    -8.943771106464
H                    -4.796249100808     2.799129857359   -10.823755757224
H                    -3.254538272582     4.016167971516    -6.982375256522
H                    -3.341351021683     0.784787742531   -10.752868686237
H                    -1.175964114621    -0.333659095625    -3.349549622418
H                     2.256689253829    -0.063920775806    -0.161828079678
H                     2.569162528154     1.098795710144    -1.474552413951
H                    -0.842147832197    -1.322849595147    -1.676217340347
H                     0.276075396838    -1.486624295528    -0.329371072144
H                     2.971245771733    -0.755563899321    -3.065102853778
H                     4.006108741374    -1.025554118076    -1.637113139477
H                     0.694707440573    -3.344055958622    -1.930291448511
H                     0.961368981211    -2.172160962746    -3.244895504905
H                     2.068724063945     2.297008726039    -4.720983019610
H                     1.523191816646     3.843438465582    -5.426092586573
H                     1.079324544717     3.378793336232    -3.758001413183
