23
0 1 C9FH8N3O2
C                     5.226068506412    -0.141519782363     3.363072603158
C                     2.012426710288    -1.377460677996    -0.254340263134
C                     1.002953102287    -0.627913126677     0.346846948439
C                     2.079821079389    -0.982577446004     2.504304563633
C                     3.109957231806    -1.720813564565     1.910943417330
C                     3.054246238249    -1.889390807430     0.518185956583
C                     1.064830190413    -0.440543636871     1.723196311958
C                     5.474913063126    -1.488939556952     2.842676993048
C                     4.175002284042    -2.334042621616     2.809671474862
N                     4.991335624211     0.915076929246     3.788129625538
N                     4.502519775419    -3.683490695412     2.345274212117
N                     4.108573367011    -2.596449212349    -0.237583300538
O                     5.256186622066    -2.147256729605    -0.174802938664
O                     3.754344819825    -3.543172055357    -0.940832201052
F                     0.092923899201     0.274759132027     2.330549697477
H                     2.003516080449    -1.560230331941    -1.323819762186
H                     0.186823310131    -0.203573986102    -0.228527321596
H                     2.062366296098    -0.823248622666     3.578005129374
H                     5.901450352917    -1.425004710324     1.840269366630
H                     6.206404775802    -1.978193411013     3.496067912169
H                     3.765792298752    -2.320413588470     3.830690581285
H                     3.698232974531    -4.297226455518     2.459822578192
H                     5.265463363158    -4.078368556255     2.891738927870
