14   
torsion grid (-165,)
C        0.3741719609   -1.9118531576    0.0759811425
C       -1.9585504323    1.4504644684   -0.6671528975
C       -0.5367513929    0.1699808484    0.7668625736
O       -0.1698109243    1.3440096667    1.4217556258
O        0.5981955982   -0.6335947860    0.6791380839
O       -1.0135575966    0.3867367235   -0.5480351867
H        1.3080876359   -2.4664746797    0.1818112770
H        0.1165671718   -1.8107476549   -0.9821454998
H       -0.4277813854   -2.4532838688    0.5961615944
H       -2.3106834431    1.4299834371   -1.7003300143
H       -1.5018253131    2.4204675897   -0.4495716276
H       -2.8140377160    1.3050855025    0.0075151578
H       -1.3300310697   -0.2909903200    1.3767136121
H        0.6879661304    1.6116159421    1.0461765720
14   
torsion grid (-150,)
C        0.4074768294   -1.8920193523    0.0546868557
C       -1.9493927032    1.4779461650   -0.6943370112
C       -0.6158120398    0.1229230082    0.7946146321
O       -0.2918288119    1.3205520982    1.4263977958
O        0.5677997597   -0.6043651800    0.6580582939
O       -1.1809418201    0.2911826865   -0.4962480263
H        1.3825632587   -2.3787826339    0.1115457934
H        0.0933966555   -1.8028085838   -0.9891344649
H       -0.3283614391   -2.4922267288    0.6069507716
H       -2.3870594523    1.3856580563   -1.6905346161
H       -1.3284992022    2.3778693798   -0.6496034814
H       -2.7544809006    1.5700997409    0.0463463191
H       -1.3430938197   -0.3907295825    1.4416087195
H        0.5696293423    1.5975463689    1.0668448633
14   
torsion grid (-135,)
C        0.4378041447   -1.8551423949    0.0467856632
C       -1.9203529184    1.4795300559   -0.7191122786
C       -0.6792170583    0.0885345806    0.8450245718
O       -0.4032660287    1.3007871653    1.4683354443
O        0.5440153238   -0.5641687256    0.6537234382
O       -1.3332069108    0.2156255526   -0.4102390180
H        1.4442940716   -2.2769532061    0.0483808943
H        0.0642207029   -1.7796704955   -0.9784063019
H       -0.2275830684   -2.5061649020    0.6300912730
H       -2.4407838617    1.3353913226   -1.6684313338
H       -1.1669451516    2.2656779796   -0.8391259287
H       -2.6397585781    1.7948811282    0.0453692198
H       -1.3365458285   -0.4823023441    1.5163969114
H        0.4606869367    1.5956944498    1.1305311395
14   
torsion grid (-120,)
C        0.4438864705   -1.8193401804    0.0169367770
C       -1.8666153960    1.4688155721   -0.7348582799
C       -0.7249254437    0.0594580603    0.8960346619
O       -0.4771315789    1.2729858986    1.5264409383
O        0.5215581595   -0.5323710968    0.6346306980
O       -1.4712562961    0.1652843636   -0.3069360381
H        1.4686580201   -2.1882915118   -0.0515766114
H        0.0017625200   -1.7522750336   -0.9813882896
H       -0.1488847491   -2.5110418785    0.6310960006
H       -2.4715383764    1.3089478717   -1.6299837043
H       -1.0067102922    2.0974316260   -0.9966635136
H       -2.4643523087    1.9827878493    0.0245215269
H       -1.3141369411   -0.5640139096    1.5817804653
H        0.3914208625    1.5780118927    1.2112762369
14   
torsion grid (-105,)
C        0.4341762486   -1.7564205920   -0.0036787500
C       -1.8254822397    1.4344750932   -0.7541544993
C       -0.7862220668    0.0517360101    0.9534777689
O       -0.5687158237    1.2640499212    1.5981766984
O        0.4784921412   -0.4727598185    0.6225352257
O       -1.6126197966    0.1384063841   -0.1919944880
H        1.4713989835   -2.0682288017   -0.1378000582
H       -0.0705734859   -1.7067458858   -0.9731211551
H       -0.0822997777   -2.4847968321    0.6364663291
H       -2.4865504195    1.2760750606   -1.6086515178
H       -0.8918244593    1.8888706104   -1.1103561155
H       -2.3030639262    2.1090725033   -0.0378209408
H       -1.3092485396   -0.6205800746    1.6452787725
H        0.2988098129    1.5873081975    1.2998655080
14   
torsion grid (-90,)
C        0.3835221624   -1.6233409163   -0.0122182996
C       -1.8249949734    1.4183954087   -0.7781308255
C       -0.8878458404    0.1091259772    1.0175858047
O       -0.6994228011    1.3207146244    1.6758370789
O        0.3893565581   -0.3413787857    0.6179413378
O       -1.7812167248    0.1765857261   -0.0690984150
H        1.4273569665   -1.8743687735   -0.2082984802
H       -0.1787398795   -1.6017407069   -0.9508607707
H       -0.0525950870   -2.3824368618    0.6515203571
H       -2.5280037280    1.2640956368   -1.5988220458
H       -0.8450803418    1.6843977427   -1.1956871261
H       -2.1792557051    2.2278041899   -0.1340076197
H       -1.3456157036   -0.6061991812    1.7117616074
H        0.1698607093    1.6577014086    1.3998653055
14   
torsion grid (-75,)
C        0.4166343416   -1.4928888382   -0.0095900722
C       -1.7367498262    1.3759261911   -0.7411714751
C       -0.8363428164    0.1837016514    1.1285345698
O       -0.6318219259    1.3998637392    1.7824940686
O        0.4211511654   -0.2094869593    0.6178788684
O       -1.8221497357    0.2451285950    0.1331664238
H        1.4474485499   -1.6945514892   -0.3056976417
H       -0.2333274140   -1.5022671813   -0.8904139586
H        0.0823603791   -2.2693317578    0.6916727521
H       -2.5061025914    1.2250703627   -1.5003804635
H       -0.7559299682    1.4338438854   -1.2293885493
H       -1.9315185946    2.3049601957   -0.1975156267
H       -1.2152431186   -0.5567625889    1.8431921076
H        0.2477139114    1.7165774216    1.5168189514
14   
torsion grid (-60,)
C        0.4193395695   -1.4799007816   -0.0668767280
C       -1.6904503499    1.2717752311   -0.7998169045
C       -0.8584882582    0.1344906051    1.1228084755
O       -0.6612707012    1.3355239291    1.8191096814
O        0.3902534712   -0.1876680728    0.5418489464
O       -1.8899620595    0.2574211117    0.1957599596
H        1.4353031391   -1.6255980740   -0.4375060591
H       -0.2907142959   -1.5417892999   -0.8987460125
H        0.1833387893   -2.2646076552    0.6645089006
H       -2.5525343990    1.2063326634   -1.4654400565
H       -0.7716841876    1.0939109706   -1.3689700455
H       -1.6499146294    2.2639542748   -0.3415146202
H       -1.1863746920   -0.6676940076    1.7981021611
H        0.2987229749    1.4610845629    1.8933592978
14   
torsion grid (-45,)
C        0.4510475875   -1.4208152990   -0.1591294135
C       -1.6284150166    1.2079958621   -0.8899381013
C       -0.8371908970    0.1374706877    1.0879105138
O       -0.6251627599    1.2967173587    1.8539048399
O        0.3914338062   -0.1252201612    0.4419775325
O       -1.9053950895    0.3439498143    0.2210681878
H        1.4406813947   -1.5094170957   -0.6102469424
H       -0.3168537345   -1.5376291151   -0.9324140659
H        0.3228966789   -2.2103377329    0.5934433275
H       -2.5871077423    1.3652461567   -1.3867874687
H       -0.9236659146    0.7459771239   -1.5887431674
H       -1.2278469397    2.1685152440   -0.5517823435
H       -1.1353890922   -0.7130940044    1.7170116380
H        0.3240564978    1.3288255405    2.0565941475
14   
torsion grid (-30,)
C       -0.0095410439   -1.8522896799    0.5139063841
C       -1.8067990774    1.4013460492   -1.0452198778
C       -0.7355016853    0.3769728218    0.8656416017
O        0.5631475724    0.8948844794    1.0626373171
O       -0.7210027377   -0.7269390847   -0.0041704562
O       -1.6244542522    1.3326022835    0.3738112050
H       -0.1169186408   -2.6506655502   -0.2224540818
H       -0.4402826784   -2.1812636310    1.4693492314
H        1.0504398935   -1.6206681586    0.6606715561
H       -2.4427201264    2.2726325165   -1.2118469122
H       -2.2955894728    0.5023890220   -1.4291961590
H       -0.8595604454    1.5469372099   -1.5808706668
H       -1.0791590234    0.0977139478    1.8672436246
H        0.8873977490    1.2139205619    0.2028599832
14   
torsion grid (-15,)
C       -0.0147827030   -1.8415733016    0.4769198657
C       -1.8406856968    1.3643916308   -1.0583701114
C       -0.6950981004    0.3941036534    0.8576621438
O        0.5966565921    0.8657496332    1.1652494932
O       -0.6631624197   -0.6810196899   -0.0458255981
O       -1.4959949285    1.4126662928    0.3322975280
H       -0.0966099677   -2.6125437509   -0.2912144160
H       -0.5124385364   -2.1886499553    1.3927888886
H        1.0393049308   -1.6426048242    0.6951265489
H       -2.4057876847    2.2803347649   -1.2410469160
H       -2.4597599130    0.4933518765   -1.2892158219
H       -0.9559711461    1.3512053073   -1.7055290217
H       -1.1150663906    0.0845652912    1.8222029021
H        0.9333448621    1.3225007033    0.3750982433
14   
torsion grid (0,)
C        0.0061391489   -1.8211271007    0.4703423094
C       -1.8711138415    1.3392370809   -1.0536778971
C       -0.6460709060    0.4214846899    0.8478706668
O        0.6178971409    0.8659510169    1.2662172670
O       -0.5724959799   -0.6352047970   -0.0758367459
O       -1.3625814796    1.4826548103    0.2790986233
H       -0.0362112949   -2.5758037762   -0.3169172093
H       -0.5667833585   -2.1719599230    1.3398126193
H        1.0456012400   -1.6530397119    0.7698876469
H       -2.3752634202    2.2843754986   -1.2646899240
H       -2.5875223897    0.5154527034   -1.1271447970
H       -1.0716589842    1.1798350353   -1.7840571999
H       -1.1467409646    0.0887488974    1.7672608560
H        0.9903302149    1.3866167085    0.5333210122
14   
torsion grid (15,)
C        0.0270005369   -1.8145909578    0.4591381779
C       -1.9018284880    1.3139767327   -1.0489250179
C       -0.6082117745    0.4350546933    0.8183971366
O        0.6123266723    0.8586903775    1.3530016734
O       -0.4732327918   -0.6076098936   -0.1165086078
O       -1.2377502742    1.5257356244    0.2035028224
H        0.0381920158   -2.5571310228   -0.3406268408
H       -0.6285259456   -2.1642393863    1.2688793671
H        1.0394980540   -1.6762104505    0.8523029916
H       -2.3433098322    2.2801159607   -1.3015104077
H       -2.6938990796    0.5618420340   -0.9651665262
H       -1.2037905596    1.0095766970   -1.8331895894
H       -1.1943553458    0.0849291587    1.6811518067
H        1.0449642376    1.3941116305    0.6646054172
14   
torsion grid (30,)
C        0.0496174016   -1.8089711435    0.4367666187
C       -1.9326890076    1.2976172086   -1.0414504956
C       -0.5736675148    0.4492870044    0.7691081212
O        0.5922063282    0.8552363055    1.4167256112
O       -0.3644915370   -0.5833073244   -0.1662515672
O       -1.1176212265    1.5561900851    0.1079903152
H        0.1272666164   -2.5404630731   -0.3694810643
H       -0.6915195659   -2.1565865366    1.1702106830
H        1.0198023375   -1.6993995303    0.9328713914
H       -2.3290357850    2.2705857120   -1.3386287123
H       -2.7657615882    0.6260060514   -0.8003280473
H       -1.3508436781    0.8655165042   -1.8589014793
H       -1.2441926205    0.0899983906    1.5659728254
H        1.1001940239    1.3748927821    0.7684958844
14   
torsion grid (45,)
C        0.0835793123   -1.8073746211    0.4292448567
C       -1.9560123661    1.2921118871   -1.0161265139
C       -0.5353527246    0.4605425613    0.7203675081
O        0.5656966772    0.8545395961    1.4751231422
O       -0.2409462958   -0.5679404627   -0.1993978677
O       -0.9962815747    1.5697815573    0.0092141712
H        0.2393745919   -2.5311844005   -0.3726800410
H       -0.7397163489   -2.1518666198    1.0710478427
H        0.9943586452   -1.7213121924    1.0317430731
H       -2.3029190587    2.2652802024   -1.3687321910
H       -2.8098463415    0.7284207809   -0.6168903495
H       -1.5094616630    0.7308396923   -1.8402825326
H       -1.2851488675    0.1013109188    1.4443005382
H        1.1552356241    1.3391606624    0.8701429630
14   
torsion grid (60,)
C        0.1154719708   -1.8191304781    0.4237390377
C       -1.9994678483    1.3016601860   -0.9839448558
C       -0.5203601817    0.4525601401    0.6642694214
O        0.5063421663    0.8456237115    1.5187749650
O       -0.1294090803   -0.5715678031   -0.2250676827
O       -0.9071696935    1.5538682672   -0.0960636081
H        0.3621398523   -2.5353615984   -0.3620673762
H       -0.7779891171   -2.1679716361    0.9610313503
H        0.9500195906   -1.7439381271    1.1295572682
H       -2.2719644514    2.2674070344   -1.4131737155
H       -2.8616858163    0.8949792392   -0.4371047999
H       -1.7138845923    0.6058821512   -1.7779243641
H       -1.3366929027    0.0939741837    1.3124800079
H        1.1708889930    1.2932075644    0.9652852312
14   
torsion grid (75,)
C        0.1759728595   -1.8405802794    0.4307135934
C       -2.0422437506    1.3297968505   -0.9688196270
C       -0.5121521510    0.4240683130    0.5893271967
O        0.4318273421    0.8345903297    1.5301227046
O       -0.0219526044   -0.6007415174   -0.2487946341
O       -0.8357184296    1.5056992501   -0.2249014470
H        0.5107978172   -2.5574109681   -0.3212524036
H       -0.7611024744   -2.2013320840    0.8787699168
H        0.9345387864   -1.7486724745    1.2159508561
H       -2.2170523250    2.2667594379   -1.5001391216
H       -2.8894084738    1.1335340350   -0.2970775460
H       -1.9487239079    0.5095354650   -1.6887763243
H       -1.3796355963    0.0652635418    1.1655889763
H        1.1527587785    1.2601956855    1.0328838733
14   
torsion grid (90,)
C        0.2502192744   -1.8663676829    0.4589789485
C       -2.0799059912    1.3891119642   -0.9521662297
C       -0.5187215686    0.3757983448    0.5132297199
O        0.3346626379    0.8130405509    1.5302320538
O        0.0631518443   -0.6482967418   -0.2621152628
O       -0.7864644829    1.4344152433   -0.3511596845
H        0.6562002892   -2.5885902375   -0.2516558900
H       -0.7046159240   -2.2460517600    0.8507979640
H        0.9496616128   -1.7347096893    1.2918876906
H       -2.1669687924    2.2852786453   -1.5686924576
H       -2.8685922457    1.4003188316   -0.1878743672
H       -2.1940014609    0.5012490261   -1.5858630833
H       -1.4253914807    0.0112418936    1.0193561935
H        1.0852677975    1.2532652950    1.0934332029
14   
torsion grid (105,)
C        0.3201473969   -1.8942121040    0.4835790000
C       -2.1057048936    1.4704400244   -0.9344185574
C       -0.5410087929    0.3116176477    0.4284863288
O        0.2172306582    0.7767943779    1.5113530641
O        0.1199578060   -0.7066108163   -0.2835975556
O       -0.7598728623    1.3474463763   -0.4785826411
H        0.7833946729   -2.6207391766   -0.1864386300
H       -0.6366153401   -2.2982647123    0.8454963862
H        0.9757156051   -1.7113579192    1.3418475597
H       -2.1239491882    2.3202904860   -1.6188298128
H       -2.7913596679    1.6671194559   -0.0996871015
H       -2.4288020302    0.5703979722   -1.4726769464
H       -1.4769974931   -0.0650287194    0.8659742795
H        0.9772101815    1.2534022090    1.1330000899
14   
torsion grid (120,)
C        0.3925962921   -1.9152898726    0.5178220361
C       -2.1091068998    1.5433325976   -0.9053196317
C       -0.5626445101    0.2423402597    0.3495735552
O        0.0969405871    0.7465931867    1.4822671933
O        0.1738660251   -0.7630296902   -0.2967562878
O       -0.7478459926    1.2473358378   -0.6003985788
H        0.9193149402   -2.6384573843   -0.1073030305
H       -0.5607996819   -2.3524817169    0.8487700405
H        0.9976695589   -1.6762784921    1.3988643616
H       -2.0917832837    2.3430929437   -1.6477831989
H       -2.6533240412    1.8904864900   -0.0173210179
H       -2.6201423864    0.6709489766   -1.3325267064
H       -1.5159398134   -0.1561031496    0.7257693120
H        0.8679764480    1.2425169015    1.1543329378
14   
torsion grid (135,)
C        0.0679725852   -1.7857745811    0.0503281342
C       -1.9821652194    1.1177930185   -0.6913138589
C       -0.2690135640    0.4247818979    0.8281052629
O        0.3401166928    1.4287903435    1.5658594069
O        0.6102772113   -0.6606785783    0.7399242097
O       -0.5969830944    0.8565250214   -0.4788977185
H        0.8097553023   -2.5824203012    0.1290496156
H       -0.1184152386   -1.5550371297   -1.0034373418
H       -0.8679871585   -2.1217521079    0.5206805562
H       -2.0852649529    1.4181673809   -1.7358250467
H       -2.3435560425    1.9308121695   -0.0484308010
H       -2.5912702926    0.2204054780   -0.5166514220
H       -1.1824354915    0.1474990562    1.3755883432
H        1.1634135076    1.6611576502    1.1015635874
14   
torsion grid (150,)
C        0.1507622857   -1.8502607880    0.0611648421
C       -1.9910481944    1.2209851993   -0.6784698866
C       -0.3228707810    0.3541853769    0.7822048550
O        0.2094986594    1.4084253555    1.5140208951
O        0.6212009106   -0.6720400977    0.7166166947
O       -0.6584038254    0.7328807394   -0.5372661712
H        0.9394337339   -2.5968358927    0.1694511526
H       -0.0444828057   -1.6646958401   -0.9993837650
H       -0.7655553524   -2.2253753829    0.5397011378
H       -2.1269222433    1.4552344930   -1.7359653633
H       -2.1521392466    2.1291172810   -0.0842209291
H       -2.7262752738    0.4599426649   -0.3826126973
H       -1.2260492612    0.0304420621    1.3229934943
H        1.0345190521    1.6706068871    1.0686857491
14   
torsion grid (165,)
C        0.2261925917   -1.9028331257    0.0803083145
C       -1.9932304207    1.3072556741   -0.6655270164
C       -0.3940736067    0.2815326321    0.7546415117
O        0.0718938571    1.3841598816    1.4637932094
O        0.6161843477   -0.6766708851    0.7025910009
O       -0.7553807723    0.6030440679   -0.5720563818
H        1.0623132066   -2.5917174844    0.2123188723
H        0.0230609078   -1.7608188166   -0.9851713669
H       -0.6652755196   -2.3221772197    0.5679141255
H       -2.1774121946    1.4741436351   -1.7283308179
H       -1.9440005885    2.2715032259   -0.1464924553
H       -2.8183850126    0.7143688875   -0.2462205257
H       -1.2751516146   -0.0860304770    1.3053669083
H        0.9088921706    1.6514761996    1.0441581208
14   
torsion grid (180,)
C        0.3058438692   -1.9206306782    0.0772536708
C       -1.9811352923    1.3905312810   -0.6543410251
C       -0.4652413904    0.2193855948    0.7492026918
O       -0.0514271823    1.3600265432    1.4334079915
O        0.6105472981   -0.6626949023    0.6861395588
O       -0.8755244518    0.4909385903   -0.5748852468
H        1.1919388316   -2.5444755646    0.2065886081
H        0.0830504791   -1.8029098842   -0.9870968893
H       -0.5476697846   -2.3994394261    0.5769597696
H       -2.2439641612    1.4653365759   -1.7111077243
H       -1.7187287492    2.3800829651   -0.2661225313
H       -2.8464419884    1.0067972202   -0.0948051401
H       -1.3091542826   -0.1946781468    1.3248340732
H        0.7979215028    1.6260625276    1.0381263420
