25   
torsion grid (-165,)
C       -3.0281102844    2.7496314479    7.1936741424
C       -2.6832045452    2.0093134550    8.3258470230
C       -2.7997503827    2.2058724632    5.9294649129
C       -2.9558911794    0.8163520534    0.7675109318
C       -2.1180742466    0.7424715305    8.1367240929
C       -3.4242961050    1.1180224427   -0.4643579829
C       -2.2240470921    0.9238011860    5.8366107532
C       -2.9601913103    1.8418717853    1.7914554016
C       -3.9436425349    3.4257280343    0.1426385570
C       -1.9162355482    0.2042891613    4.5822435137
N       -1.8913115204    0.2063707434    6.9362349959
N       -2.5711422816    1.7558962820    3.0331373174
N       -2.0553262455    0.5047538703    3.3335006811
N       -3.9110198575    2.3747508913   -0.7710148255
N       -3.4528294598    3.0861562127    1.3886200882
O       -4.3669098937    4.5375175280   -0.1408124727
H       -3.4704805422    3.7379301356    7.2921604596
H       -2.8448635247    2.3943221972    9.3287856313
H       -3.0477705073    2.7401614646    5.0235361040
H       -2.5741288511   -0.1630282603    1.0158370007
H       -1.8355735287    0.1324482263    8.9940787618
H       -3.4457774481    0.3973086535   -1.2753606059
H       -1.4831599614   -0.7787719902    4.7623391281
H       -4.2640453409    2.5965628859   -1.6931421247
H       -3.4579713568    3.8294683373    2.0797435623
25   
torsion grid (-150,)
C       -3.1285090391    2.7181719093    7.0815571176
C       -2.8809907700    1.9581972605    8.2259872584
C       -2.7575787574    2.2122982629    5.8354545092
C       -3.0067039702    0.8005439000    0.8709315942
C       -2.2638611104    0.7113866354    8.0683992082
C       -3.6451055319    1.0524294015   -0.2938017140
C       -2.1373649872    0.9494951606    5.7747431103
C       -2.7843178797    1.8902931456    1.8010178426
C       -3.9161578028    3.4284018979    0.2032471993
C       -1.6794604352    0.2748521334    4.5411926023
N       -1.8986265146    0.2130642877    6.8858607749
N       -2.2205531872    1.8548201121    2.9729340006
N       -1.7112587308    0.6079696654    3.2942236595
N       -4.1005838095    2.3169438441   -0.6169092822
N       -3.2495221428    3.1410079845    1.3775876097
O       -4.3099386925    4.5462644049   -0.0991788262
H       -3.6060573853    3.6920281601    7.1561508071
H       -3.1561328352    2.3132341890    9.2151537021
H       -2.9268385484    2.7648179828    4.9219994908
H       -2.6492407640   -0.1855920410    1.1299142069
H       -2.0543602123    0.0871751508    8.9363832678
H       -3.8366143985    0.2829451870   -1.0346029627
H       -1.2262817178   -0.6959049437    4.7377682746
H       -4.5843482618    2.5008879911   -1.4864651697
H       -3.0895357840    3.9300953530    1.9954541920
25   
torsion grid (-135,)
C       -3.2252668932    2.6774764753    6.9218272222
C       -3.0772260067    1.8970633711    8.0695131152
C       -2.7155205738    2.2087566361    5.7105366001
C       -3.0390926011    0.8078673635    1.0353199537
C       -2.4143389724    0.6694834767    7.9508248323
C       -3.8299119303    1.0224970834   -0.0395688871
C       -2.0581482959    0.9639878260    5.6886273148
C       -2.6118271041    1.9406269116    1.8347777762
C       -3.8737424549    3.4424581669    0.3006505174
C       -1.4557348217    0.3330643676    4.4944057747
N       -1.9152785790    0.2082097298    6.8026249803
N       -1.8884998651    1.9380087199    2.9111655447
N       -1.3828217355    0.7000279884    3.2599348299
N       -4.2511883840    2.2917464734   -0.3902868563
N       -3.0552344058    3.1930167803    1.3827790272
O       -4.2396767523    4.5613326591   -0.0327194439
H       -3.7329641706    3.6377447735    6.9664271477
H       -3.4621831060    2.2220930187    9.0319644873
H       -2.8052352973    2.7815164191    4.7979936990
H       -2.7077267819   -0.1824746408    1.3137784382
H       -2.2789253363    0.0304504615    8.8226842347
H       -4.1771946661    0.2192117458   -0.6811833582
H       -0.9858326842   -0.6250553816    4.7124440383
H       -4.8501931825    2.4496874514   -1.1902875578
H       -2.7489220153    4.0108576908    1.8996014559
25   
torsion grid (-120,)
C       -3.2605617277    2.6729513111    6.7454071165
C       -3.2669798919    1.8408709862    7.8659894382
C       -2.6150788880    2.2442692954    5.5850295685
C       -3.0369607234    0.8041662585    1.2397367619
C       -2.6113594645    0.6070650701    7.7750651125
C       -3.9627876146    0.9762342652    0.2705545184
C       -1.9792639377    0.9885667477    5.5882469374
C       -2.4595227162    1.9714161144    1.8816040368
C       -3.8676833586    3.4145797907    0.4180002553
C       -1.2388923945    0.4024837971    4.4489910782
N       -1.9800186343    0.1857274354    6.6775309598
N       -1.5951568921    2.0105746382    2.8426590367
N       -1.0721827128    0.7953297844    3.2330179278
N       -4.3826655776    2.2348444244   -0.1188646050
N       -2.9164593471    3.2087885623    1.3944487024
O       -4.2350192922    4.5212127345    0.0466912817
H       -3.7529363476    3.6417981684    6.7712086198
H       -3.7620342135    2.1326252900    8.7878856600
H       -2.5843723551    2.8595910761    4.6963406267
H       -2.7087352960   -0.1793405543    1.5455807352
H       -2.5916091195   -0.0700039984    8.6282423322
H       -4.4260912688    0.1450264850   -0.2509022404
H       -0.7495286696   -0.5386463790    4.6961363616
H       -5.0792370438    2.3618318102   -0.8415060101
H       -2.5069505759    4.0476717737    1.7920315754
25   
torsion grid (-105,)
C       -3.2780203642    2.7013521372    6.5369978387
C       -3.4558783310    1.8067392739    7.5937187936
C       -2.5101137997    2.3118976392    5.4391916477
C       -3.0443205257    0.8122415985    1.4470767455
C       -2.8362407802    0.5543299067    7.5085557154
C       -4.0855580911    0.9406222834    0.5957921030
C       -1.9266039836    1.0315957108    5.4426000947
C       -2.3551396063    2.0048904681    1.9089189820
C       -3.9049099492    3.3783217673    0.5213986105
C       -1.0642884132    0.4873742438    4.3683778374
N       -2.0855442039    0.1709803668    6.4735210446
N       -1.3675194821    2.0861803094    2.7358732473
N       -0.8166339832    0.9029852194    3.1750086600
N       -4.5177907154    2.1791724304    0.1578656791
N       -2.8420685270    3.2173930019    1.3836727293
O       -4.2879907470    4.4639659886    0.1058977348
H       -3.7319310937    3.6887122311    6.5638554726
H       -4.0515460586    2.0664210986    8.4642324957
H       -2.3462522047    2.9783252859    4.6030510117
H       -2.7089130555   -0.1571460911    1.7882409739
H       -2.9447595247   -0.1697451788    8.3151239532
H       -4.6367982269    0.0882091419    0.2124543013
H       -0.5570227030   -0.4350947238    4.6477165278
H       -5.2976161980    2.2736188124   -0.4795514862
H       -2.3599440867    4.0694132625    1.6499409687
25   
torsion grid (-90,)
C       -2.6910448610    2.6879558820    6.8866784557
C       -3.1766019152    1.8681054891    7.9075143685
C       -2.1599304668    2.0986658022    5.7395725800
C       -3.9106124989    0.9264528987    2.3226557464
C       -3.0860564566    0.4817854514    7.7394821781
C       -5.0709014174    1.3963590479    1.8150009070
C       -2.1163403343    0.6953091998    5.6587516641
C       -2.7664661003    1.8172352898    2.4221539544
C       -4.1584146698    3.6307236713    1.4253281544
C       -1.5479866306   -0.0659286333    4.5199446279
N       -2.5623077405   -0.0986124696    6.6563072637
N       -1.5906519586    1.5649593625    2.8892162344
N       -1.3208582149    0.2796530776    3.3009769072
N       -5.2017815823    2.7058601135    1.3900156483
N       -2.9852861271    3.1224084535    1.9391842955
O       -4.2893910483    4.7831325720    1.0341811922
H       -2.7263352490    3.7703750684    6.9798561369
H       -3.6059454131    2.2842592006    8.8144157600
H       -1.7708380340    2.7006302968    4.9284836816
H       -3.8170031344   -0.0984935904    2.6526443067
H       -3.4429962103   -0.1918669951    8.5174458967
H       -5.9573040311    0.7788030655    1.7136810086
H       -1.2921380001   -1.0963742662    4.7634016150
H       -6.0729422106    3.0573479996    1.0147969595
H       -2.2003921298    3.7648620823    1.9599436611
25   
torsion grid (-75,)
C       -2.7335958325    2.6982290625    6.7163544430
C       -3.3939586943    1.8875881912    7.6431834486
C       -2.0873016314    2.1002182985    5.6356611219
C       -3.8540827110    0.8952613754    2.5663737858
C       -3.3546399326    0.5020799455    7.4550699629
C       -5.0651262696    1.3586190475    2.1878864588
C       -2.1093753739    0.6989855530    5.5269832116
C       -2.6974009706    1.7705175985    2.4699642853
C       -4.1899595893    3.5520918585    1.5618278002
C       -1.4248530137   -0.0616448804    4.4508739816
N       -2.7216714837   -0.0877524202    6.4356348268
N       -1.4656321443    1.5248546426    2.7707004176
N       -1.1306795522    0.2782293105    3.2444118140
N       -5.2385301751    2.6453630225    1.7124932381
N       -2.9672879646    3.0537234643    1.9562277508
O       -4.3568795451    4.6826150100    1.1235779597
H       -2.7229455350    3.7790015801    6.8319112415
H       -3.9168952169    2.3108392023    8.4960182257
H       -1.5636209189    2.6939189158    4.8960551171
H       -3.7357388122   -0.1132752151    2.9355446845
H       -3.8456498002   -0.1644873497    8.1628385801
H       -5.9628410780    0.7512005489    2.2368246001
H       -1.1314838296   -1.0722316630    4.7326302107
H       -6.1465872458    2.9884932956    1.4279795191
H       -2.1787372469    3.6815749015    1.8402836920
25   
torsion grid (-60,)
C       -2.7278725372    2.7185115094    6.5794441710
C       -3.5361714366    1.9250963961    7.3992389972
C       -1.9932225524    2.1079992022    5.5653182082
C       -3.7781468200    0.8909454795    2.7519883782
C       -3.5513668058    0.5452698429    7.1755282511
C       -5.0165213536    1.3628136340    2.4908278493
C       -2.0826967096    0.7142256095    5.4120316578
C       -2.6267174698    1.7455916661    2.5119100882
C       -4.1869971903    3.5256837426    1.7198169803
C       -1.3104726549   -0.0434813852    4.3915718835
N       -2.8380020295   -0.0575454132    6.2167559792
N       -1.3659390964    1.4897244239    2.6559164544
N       -0.9594113038    0.2968928527    3.1992845980
N       -5.2248606847    2.6404463205    2.0061025922
N       -2.9354097015    3.0154254734    1.9911159412
O       -4.3839852375    4.6493130725    1.2767039814
H       -2.6721127361    3.7939205670    6.7274482449
H       -4.1313377307    2.3579825202    8.1981746643
H       -1.3568154710    2.6864175029    4.9048286613
H       -3.6401346010   -0.1121740435    3.1278682898
H       -4.1574524786   -0.1080830467    7.8016713614
H       -5.9102990453    0.7681720957    2.6478671636
H       -0.9715606226   -1.0280805644    4.7121562700
H       -6.1541863428    2.9909505834    1.8141925815
H       -2.1546220734    3.6290208249    1.7819497459
25   
torsion grid (-45,)
C       -2.7758170964    2.7069804146    6.5196233743
C       -3.6388497211    1.9127168307    7.2817950948
C       -1.9870075871    2.0995137447    5.5459944024
C       -3.7282599019    0.9065689082    2.8729715099
C       -3.6532905605    0.5360776570    7.0420776040
C       -4.9675286616    1.4016212039    2.6625349473
C       -2.0823677096    0.7086768869    5.3701987182
C       -2.5711748509    1.7202252786    2.5388408546
C       -4.1304740339    3.5092181833    1.7618578231
C       -1.2432647947   -0.0332414074    4.3902307137
N       -2.8917515136   -0.0638686391    6.1181293386
N       -1.3063734405    1.4279706107    2.5766899750
N       -0.8362973753    0.3152005787    3.2156181961
N       -5.1718008939    2.6674225306    2.1472766487
N       -2.8789454628    2.9730381861    1.9833848141
O       -4.3215499873    4.6191581497    1.2838299249
H       -2.7189670845    3.7801807451    6.6826087481
H       -4.2757202159    2.3429090458    8.0493747430
H       -1.3057929303    2.6782084912    4.9310329288
H       -3.5986633608   -0.0902660717    3.2671523669
H       -4.3004295334   -0.1181433857    7.6247608962
H       -5.8647688354    0.8340868657    2.8858607165
H       -0.8473353992   -0.9817790045    4.7523366539
H       -6.1018533127    3.0355090413    1.9954235983
H       -2.0941948145    3.5541879880    1.7060484545
25   
torsion grid (-30,)
C       -2.8370747036    2.6854892738    6.4834597962
C       -3.6910010516    1.8717595095    7.2359594118
C       -2.0205599040    2.0945516194    5.5232557704
C       -3.7334886014    0.9481462490    2.9588816301
C       -3.6686047397    0.4950497120    6.9985882847
C       -4.9674372404    1.4708231528    2.7831104249
C       -2.0810098138    0.7013363191    5.3466696032
C       -2.5712063857    1.7076088933    2.5318904232
C       -4.1136443427    3.5040904833    1.7406227742
C       -1.1962571715   -0.0089449265    4.3831020263
N       -2.8818760820   -0.0887668610    6.0848109857
N       -1.3153302505    1.3629642502    2.4828091926
N       -0.7705525496    0.3546604520    3.2163432270
N       -5.1584820839    2.7185806177    2.2229013120
N       -2.8690908587    2.9362126688    1.9257365386
O       -4.2935268985    4.5948593612    1.2174551994
H       -2.8073014010    3.7599911248    6.6453796671
H       -4.3476016471    2.2875365372    7.9947788121
H       -1.3422813202    2.6881289931    4.9186261983
H       -3.6164988562   -0.0384341202    3.3810430154
H       -4.3066251346   -0.1737479316    7.5748238314
H       -5.8689505858    0.9397211182    3.0698411694
H       -0.7233151996   -0.9072877998    4.7801529108
H       -6.0836596200    3.1094577005    2.0998240235
H       -2.0798055253    3.4748140037    1.5819096544
25   
torsion grid (-15,)
C       -2.9069065398    2.6252782613    6.5023687389
C       -3.7271103288    1.7750963393    7.2521534865
C       -2.0609360794    2.0704883226    5.5464026849
C       -3.7400735563    1.0305534416    3.0514014658
C       -3.6419742530    0.4006166673    7.0158244129
C       -4.9581145651    1.5928405500    2.8797580015
C       -2.0585004235    0.6755511472    5.3694109888
C       -2.5645648837    1.6997443352    2.5244632135
C       -4.0609828916    3.4986846680    1.6517343042
C       -1.1280579791    0.0170409694    4.4120589851
N       -2.8261517714   -0.1486419401    6.1056523766
N       -1.3286446214    1.2854249947    2.4239573299
N       -0.7098050025    0.3989310938    3.2453062144
N       -5.1175227739    2.8033231944    2.2371122383
N       -2.8359857845    2.8869635632    1.8340123571
O       -4.2146717634    4.5525671567    1.0513811715
H       -2.9250150955    3.7001506150    6.6638355039
H       -4.4044097467    2.1615023877    8.0083080604
H       -1.4049534494    2.6932703183    4.9459538600
H       -3.6511574384    0.0678076482    3.5306511573
H       -4.2517767312   -0.2956285058    7.5901968383
H       -5.8695810708    1.1228700461    3.2339918087
H       -0.5689880816   -0.8176234928    4.8367196449
H       -6.0298472963    3.2243860752    2.1160643598
H       -2.0367187479    3.3556206973    1.4172204455
25   
torsion grid (0,)
C       -2.9922805440    2.5227700793    6.5859507253
C       -3.7293982575    1.6131831363    7.3512530338
C       -2.1309955940    2.0338190423    5.6073582812
C       -3.7708918325    1.2083960608    3.1490610989
C       -3.5489226222    0.2484804421    7.1083898146
C       -4.9619779219    1.8146217488    2.9316709738
C       -2.0266458646    0.6431241100    5.4285001933
C       -2.5798090716    1.7139000148    2.4912834486
C       -4.0057928608    3.4599477690    1.4093828397
C       -1.0564139253    0.0665832432    4.4590031920
N       -2.7131436485   -0.2372194862    6.1805820972
N       -1.3750354382    1.2115986100    2.3814537094
N       -0.6826722647    0.4606584456    3.2804524063
N       -5.0769283379    2.9264456795    2.1267539809
N       -2.8133155105    2.8051731939    1.6441716645
O       -4.1248566675    4.4201087566    0.6625136147
H       -3.0860849393    3.5930431521    6.7516860252
H       -4.4150260845    1.9468530608    8.1248350183
H       -1.5363984324    2.7043014949    4.9940709843
H       -3.7276045254    0.3113233295    3.7457981392
H       -4.0934957378   -0.4917125157    7.6933108638
H       -5.8849015144    1.4539547985    3.3739487841
H       -0.3994376403   -0.6865494316    4.8979664089
H       -5.9687243630    3.3787097422    1.9691791188
H       -2.0034497335    3.1489872791    1.1352427631
25   
torsion grid (15,)
C       -3.0162365211    2.6005342746    6.4677256152
C       -2.5806646468    2.0416617940    7.6741923077
C       -2.7922496840    1.8994444106    5.2863959178
C        0.2881978576    1.9722289269    4.5110231533
C       -1.9561303873    0.7922629617    7.6367360906
C        1.0061772580    2.9893841986    5.0390430658
C       -2.1395512650    0.6555255673    5.3471633768
C       -0.4640306594    2.1913323291    3.2888237095
C        0.3805427507    4.5412689663    3.2649626446
C       -1.9341735407   -0.1722853765    4.1271438939
N       -1.7424629847    0.1025134229    6.5079485936
N       -1.0878440103    1.3409361845    2.5162518329
N       -1.6622527102    0.1746569331    2.9073285201
N        1.0261088080    4.2432270481    4.4637311969
N       -0.3274628198    3.4747902866    2.7462212733
O        0.4324721285    5.6451393200    2.7419827231
H       -3.5235820525    3.5618324000    6.4503864033
H       -2.7313287536    2.5511308376    8.6215484247
H       -3.1175371255    2.2932207449    4.3283923625
H        0.3178309984    0.9946333021    4.9668830482
H       -1.6181522223    0.3172233226    8.5568935217
H        1.6033598034    2.8727941162    5.9372944067
H       -2.2472484843   -1.2112363119    4.2370308335
H        1.5596388862    5.0035151605    4.8656839347
H       -0.8103872427    3.6442960079    1.8685571043
25   
torsion grid (30,)
C       -3.0729591739    2.6314714567    6.3974764399
C       -2.6281573345    2.1208150136    7.6218056453
C       -2.8137301854    1.9100974052    5.2354458066
C        0.3817276324    1.9055640643    4.4527677395
C       -1.9579563747    0.8948458369    7.6204596205
C        1.1311295145    2.8902868204    4.9963078515
C       -2.1173940493    0.6930525803    5.3344292258
C       -0.4528072302    2.1994596398    3.3007338270
C        0.3850927698    4.5500457578    3.3719658317
C       -1.8560482687   -0.1631719218    4.1451719560
N       -1.7094942355    0.1850542733    6.5117448532
N       -1.1494937388    1.3997569099    2.5434308274
N       -1.5766886188    0.1654900586    2.9250485395
N        1.1153915579    4.1785196473    4.4988843457
N       -0.3595924610    3.5187973363    2.8356556912
O        0.4006769521    5.6860001946    2.9189749962
H       -3.6141850030    3.5730738168    6.3514719391
H       -2.8051593137    2.6488425823    8.5543604112
H       -3.1421102450    2.2687764746    4.2651428753
H        0.4302939972    0.9033172177    4.8507506855
H       -1.6103146195    0.4560440052    8.5548091937
H        1.7828862550    2.7213144879    5.8469968308
H       -2.0712123550   -1.2215379988    4.2931990621
H        1.6723349042    4.9146819860    4.9133310835
H       -0.9022714566    3.7467682591    2.0081235296
25   
torsion grid (45,)
C       -3.1457316035    2.6217507562    6.3850215860
C       -2.7081287493    2.1310408443    7.6196442570
C       -2.8527409391    1.8981035413    5.2319040366
C        0.4470648565    1.8779362561    4.3887196837
C       -2.0111202987    0.9200028482    7.6389974052
C        1.2322392629    2.8445478332    4.9124663005
C       -2.1337445849    0.6968884780    5.3525279154
C       -0.4620497183    2.2099354503    3.3043703143
C        0.3817045015    4.5583200978    3.3980635087
C       -1.8186275485   -0.1677706501    4.1829389413
N       -1.7327738132    0.2068513660    6.5401367890
N       -1.2387007275    1.4420402972    2.6017192840
N       -1.5157085465    0.1556331437    2.9703388836
N        1.1910066290    4.1479891939    4.4555074613
N       -0.4025369091    3.5479532844    2.8813325431
O        0.3698081963    5.7096830367    2.9842896341
H       -3.7057742138    3.5513293244    6.3234518564
H       -2.9096981222    2.6631744836    8.5448746524
H       -3.1710389415    2.2435019708    4.2538933268
H        0.5080996804    0.8653924262    4.7586968855
H       -1.6668074687    0.4971782593    8.5818556273
H        1.9342053506    2.6497842179    5.7164066877
H       -1.9397617291   -1.2365348590    4.3580776554
H        1.7779042591    4.8694244990    4.8537871263
H       -0.9995624932    3.8069542886    2.1022542498
25   
torsion grid (60,)
C       -3.2198145508    2.6045302103    6.4006758075
C       -2.8555673972    2.0840607193    7.6462091312
C       -2.8638003642    1.9057491193    5.2492221510
C        0.5613832628    1.9003854978    4.3272237200
C       -2.1669023597    0.8679546077    7.6782186854
C        1.3863312796    2.8522585967    4.8149063850
C       -2.1617862590    0.6960958346    5.3834651713
C       -0.4173633728    2.2593839671    3.3138025249
C        0.4404441854    4.6019262831    3.3990901730
C       -1.7699485288   -0.1502886427    4.2250682792
N       -1.8331835716    0.1766451299    6.5817507217
N       -1.2706985227    1.5116739796    2.6904914157
N       -1.4145299945    0.1908913586    3.0343033528
N        1.3249369398    4.1639936179    4.3832917950
N       -0.3847223618    3.6085400519    2.9166779373
O        0.4061926145    5.7633391829    3.0148470374
H       -3.7705627357    3.5388555814    6.3283479941
H       -3.1059159746    2.5973104656    8.5702284337
H       -3.1232342018    2.2756277667    4.2634677660
H        0.6300119106    0.8811896528    4.6780963501
H       -1.8778618833    0.4229693046    8.6293803560
H        2.1370414811    2.6402501667    5.5689521790
H       -1.8126511537   -1.2236179656    4.4073090588
H        1.9429298159    4.8744618580    4.7529516809
H       -1.0333850245    3.8895233668    2.1885542952
25   
torsion grid (75,)
C       -3.2917560541    2.5688648347    6.5135533204
C       -3.0878335732    1.9594705283    7.7542319018
C       -2.8392354504    1.9255846551    5.3626291791
C        0.7254596044    1.9605090674    4.2287209438
C       -2.4561514586    0.7117500448    7.7813662200
C        1.6068132686    2.9106140420    4.6096339109
C       -2.2078698253    0.6763634336    5.4913715707
C       -0.3529374626    2.3157398987    3.3208934529
C        0.5288400630    4.6495653856    3.2742655556
C       -1.7206064328   -0.1303478356    4.3437955674
N       -2.0351939500    0.0724153015    6.6850797603
N       -1.2863146888    1.5663906410    2.8357862292
N       -1.3172606990    0.2347175005    3.1769013240
N        1.5121460396    4.2155947874    4.1625987188
N       -0.3565048465    3.6608184270    2.9036020053
O        0.4682632131    5.8047545031    2.8744208098
H       -3.7937800054    3.5303777507    6.4428384421
H       -3.4169869567    2.4279546140    8.6773308773
H       -2.9788446361    2.3648360927    4.3821669233
H        0.8138246788    0.9450611207    4.5871828928
H       -2.2908959141    0.1979924161    8.7274541304
H        2.4314221919    2.7039160506    5.2838295624
H       -1.6980766037   -1.2038988637    4.5274196092
H        2.1751245827    4.9241899393    4.4482665968
H       -1.0731636793    3.9384509591    2.2412028256
25   
torsion grid (90,)
C       -3.4211957690    2.5186134001    6.6214492793
C       -3.3912305743    1.8188645897    7.8295384076
C       -2.8523588639    1.9378945893    5.4881408215
C        0.9012431919    2.0457243189    4.0692904646
C       -2.8067065900    0.5474410393    7.8410495704
C        1.8242592161    3.0002377035    4.3177655796
C       -2.2823061968    0.6570075230    5.5986435866
C       -0.2945871366    2.3921011538    3.3193054936
C        0.5598688672    4.7280731578    3.1375786304
C       -1.6766624388   -0.0957543359    4.4735043594
N       -2.2754445945   -0.0313915966    6.7607001742
N       -1.2887763664    1.6350215694    2.9987631828
N       -1.2218738590    0.3025803971    3.3371097571
N        1.6605682503    4.3020412862    3.8806754493
N       -0.3606937739    3.7327313596    2.8915664277
O        0.4371768818    5.8823541939    2.7492756256
H       -3.8786140700    3.5028393458    6.5612210466
H       -3.8149510887    2.2364795894    8.7384104623
H       -2.8590425905    2.4476402875    4.5332935323
H        1.0370287933    1.0306370388    4.4147321579
H       -2.7737102565   -0.0353588534    8.7606674638
H        2.7370730381    2.8012714955    4.8696120741
H       -1.5971354913   -1.1671805997    4.6531407535
H        2.3504423043    5.0166759771    4.0720504807
H       -1.1642553851    4.0056102336    2.3356326479
25   
torsion grid (105,)
C       -3.5377320839    2.4641082301    6.7735602818
C       -3.7102540207    1.6589052542    7.9007014943
C       -2.8392762071    1.9566025609    5.6775840223
C        1.0918505461    2.1266018103    3.9418585295
C       -3.1830740270    0.3623812608    7.8720294261
C        2.0491586486    3.0756115734    4.0332925174
C       -2.3446077631    0.6408862184    5.7403888867
C       -0.1959173902    2.4719616869    3.3648627147
C        0.6429453547    4.7914623425    3.0055800873
C       -1.6121436945   -0.0472922827    4.6523898208
N       -2.5260780602   -0.1442857271    6.8263159923
N       -1.2339506373    1.7187114508    3.2204583483
N       -1.0958736890    0.3902208756    3.5568896931
N        1.8333756497    4.3705844163    3.5984158136
N       -0.3118702217    3.8017492300    2.9163483155
O        0.4772685273    5.9367399842    2.6069905297
H       -3.9385011267    3.4742150386    6.7466381139
H       -4.2412758075    2.0161268470    8.7784496216
H       -2.6884599096    2.5481637481    4.7846482034
H        1.2635023284    1.1152675647    4.2829792814
H       -3.3023404867   -0.2997004170    8.7287990033
H        3.0313760326    2.8778104010    4.4498766885
H       -1.4885411811   -1.1158369868    4.8236203672
H        2.5505646966    5.0804958324    3.6693417000
H       -1.1823029878    4.0703666610    2.4697320092
25   
torsion grid (120,)
C       -3.6651414546    2.4038994582    6.8964452201
C       -4.0012302006    1.5226760899    7.9253142656
C       -2.8487298406    1.9550133969    5.8577356032
C        1.2525043081    2.1708031600    3.7988311242
C       -3.5057199506    0.2147000026    7.8613604008
C        2.2243068342    3.1065259995    3.7213135133
C       -2.4007105318    0.6208569631    5.8762460128
C       -0.1034134073    2.5263176481    3.4203333796
C        0.6970130928    4.8256585552    2.8908568042
C       -1.5487622369   -0.0092909446    4.8433853250
N       -2.7327246237   -0.2345916108    6.8707759988
N       -1.1642620301    1.7880679858    3.4592975650
N       -0.9661025039    0.4648314809    3.7963807977
N        1.9591963547    4.3969233013    3.3010157655
N       -0.2710098249    3.8470625040    2.9673812890
O        0.4842352491    5.9660715116    2.5014442720
H       -4.0302812881    3.4278183038    6.9017205086
H       -4.6295725654    1.8315876456    8.7558907836
H       -2.5679785651    2.6046303819    5.0401507068
H        1.4584033841    1.1619535427    4.1280659166
H       -3.7470379663   -0.5040926789    8.6435465236
H        3.2570983063    2.9013364604    3.9834432036
H       -1.3903947423   -1.0736634398    5.0117522809
H        2.6870330730    5.0976384369    3.2482534386
H       -1.1976432309    4.1211233123    2.6579538459
25   
torsion grid (135,)
C       -3.0716714243    2.7125891983    6.9754009237
C       -3.5726506175    1.7828780285    7.8879789998
C       -2.4952348995    2.2574846925    5.7890425095
C        1.1425286547    1.7745146739    2.5507779995
C       -3.4746271347    0.4241780118    7.5641519266
C        2.2589985437    2.4337013008    2.1688827694
C       -2.4461557945    0.8715487580    5.5464951120
C       -0.0847248235    2.5219951891    2.7506047683
C        1.1318789447    4.6013530205    2.1182697039
C       -1.8800254026    0.2308695183    4.3397696509
N       -2.9324112270   -0.0290336663    6.4324507150
N       -1.2399134119    2.0834075282    3.1444188370
N       -1.3167036824    0.7103692699    3.2830893303
N        2.2654606183    3.8024971517    1.9742688961
N        0.0056863617    3.8986744933    2.4940011785
O        1.1479858869    5.8094496521    1.9254748630
H       -3.1257014469    3.7782127241    7.1837249132
H       -4.0261208797    2.0928137815    8.8252522636
H       -2.0975199267    2.9424180543    5.0531605782
H        1.1333923149    0.7047464802    2.7044388206
H       -3.8528133307   -0.3332102173    8.2498179732
H        3.2053616473    1.9315364916    1.9963860366
H       -1.9611689253   -0.8551241451    4.3586037924
H        3.1045452750    4.2952245710    1.6969297186
H       -0.8416884900    4.4481382751    2.5931510104
25   
torsion grid (150,)
C       -3.2529068642    2.6725642061    7.0417918950
C       -3.8307782758    1.7204621379    7.8832470211
C       -2.5427639648    2.2465264871    5.9190596643
C        1.2150474249    1.7817221428    2.4051743408
C       -3.6695970966    0.3685824451    7.5566211331
C        2.2642472545    2.4303377359    1.8519080139
C       -2.4372004916    0.8649732535    5.6675802426
C        0.0634416691    2.5481240887    2.8392711581
C        1.2065035852    4.6215262023    2.0696701739
C       -1.7275582079    0.2487098818    4.5261322270
N       -2.9969978898   -0.0573483198    6.4859426774
N       -1.0247783230    2.1228679052    3.4114224714
N       -1.0757814700    0.7440938071    3.5277278352
N        2.2725229254    3.8041149643    1.6988331061
N        0.1465369360    3.9282427542    2.6190469628
O        1.2193606712    5.8350724313    1.9170383667
H       -3.3512745325    3.7338320080    7.2563870379
H       -4.3898719893    2.0083644265    8.7691015694
H       -2.0804355812    2.9465788951    5.2375488312
H        1.2020640971    0.7084058011    2.5282243114
H       -4.1037723316   -0.4056682764    8.1882445384
H        3.1523709713    1.9149288179    1.5009502627
H       -1.7720871322   -0.8394994173    4.5418625769
H        3.0626878854    4.2879867628    1.2920222850
H       -0.6528897747    4.4915245009    2.8904595793
25   
torsion grid (165,)
C       -2.8123368212    2.8338176947    7.1738056634
C       -2.3156219587    2.1508128520    8.2853792654
C       -2.8568724327    2.1833318291    5.9405421498
C       -2.8333523509    0.8802249834    0.7523512070
C       -1.8819034949    0.8315651465    8.1078231984
C       -2.9611546168    1.3221350936   -0.5189947337
C       -2.4004281153    0.8534635597    5.8572060942
C       -3.3248390674    1.7062324177    1.8369871792
C       -4.0525522515    3.3978658475    0.1627410434
C       -2.3787325131    0.0214062387    4.6352653298
N       -1.9181101188    0.1930942276    6.9368898413
N       -3.2896779389    1.4743501572    3.1198554854
N       -2.7371208321    0.2371464588    3.4129202744
N       -3.5433930152    2.5412331848   -0.8105568348
N       -3.9098926610    2.9147662382    1.4491655820
O       -4.5736655000    4.4711158487   -0.1058895707
H       -3.1599124651    3.8600681786    7.2641053761
H       -2.2618202333    2.6194209021    9.2640293549
H       -3.2337447600    2.6684151946    5.0515582005
H       -2.3806873106   -0.0713368476    0.9893332320
H       -1.4870546151    0.2641687882    8.9499344412
H       -2.6171499144    0.7509333212   -1.3751574679
H       -1.9767157454   -0.9744921689    4.8170093535
H       -3.6325762010    2.8723341302   -1.7626944760
H       -4.2760849369    3.5105484082    2.1847837741
25   
torsion grid (180,)
C       -2.9201400412    2.7941883611    7.2245802908
C       -2.4942794806    2.0786139428    8.3451142341
C       -2.8321540823    2.2022962172    5.9645137281
C       -2.8948687543    0.8461194549    0.7248996042
C       -1.9937035084    0.7859348280    8.1495184669
C       -3.1901878636    1.2119245925   -0.5427829216
C       -2.3143808698    0.8961653672    5.8643596218
C       -3.1430535231    1.7828271989    1.8021828566
C       -3.9937294032    3.4174216711    0.1290987166
C       -2.1531293992    0.1238953334    4.6139328192
N       -1.9021886563    0.2031905651    6.9528652101
N       -2.9334299725    1.6320437463    3.0815729058
N       -2.4021073532    0.3846888730    3.3730593035
N       -3.7221544825    2.4528669520   -0.8381473775
N       -3.6799020749    3.0118978240    1.4123801466
O       -4.4637838016    4.5135772698   -0.1408769332
H       -3.3162723927    3.8013264704    7.3290049135
H       -2.5454002972    2.5021643253    9.3442332450
H       -3.1481178732    2.7146284794    5.0672620203
H       -2.4799234176   -0.1216033352    0.9649192463
H       -1.6511615881    0.1939833474    8.9976362277
H       -3.0283842740    0.5580428601   -1.3935905038
H       -1.7369736708   -0.8672656173    4.7895706401
H       -3.9405324654    2.7241753707   -1.7883627658
H       -3.8660751144    3.6898642490    2.1444550370
