22
0 1 C8Cl2H8N2O2
C                     1.464715115440    -0.915008559550    -0.042111170993
C                     0.548611836410    -0.451752695007     0.903081116893
C                     2.029579127013    -1.197313774477     2.684427019164
C                     2.662672544034    -1.517703471081     0.352488130966
C                     0.843187967047    -0.596780091468     2.260401537797
C                     2.932911343784    -1.653787793849     1.723315704920
C                     5.600043952102    -1.845328946360    -1.756364800850
C                     4.549501101868    -1.071117937532    -1.014991836203
N                     5.944614486016    -1.387301797166    -2.913839241475
N                     6.163240134693    -2.917514186700    -1.102823309645
O                     6.989203992086    -2.201030299559    -3.450871971419
O                     3.531775361566    -2.010836908486    -0.590134795184
Cl                   -0.297188075264    -0.021088987162     3.461865299880
Cl                    4.422323911078    -2.416101200323     2.238638648749
H                     1.257571516838    -0.825795790711    -1.104623004296
H                    -0.381990310805     0.011347808400     0.592181821971
H                     2.247941494152    -1.312332415047     3.740408345303
H                     4.120888987611    -0.310372329672    -1.672372486904
H                     4.987743532263    -0.591938358120    -0.131671222961
H                     6.694497043552    -3.543383630989    -1.697237089963
H                     5.552065751040    -3.371995144776    -0.433983061858
H                     7.138555882923    -1.796357971808    -4.319297743752
