31
0 1 C10H19NO
C                     1.131649095173    -1.461902406271     0.604643585442
C                     0.928391472375     1.040884122573     0.667212112387
C                     0.847439329131    -0.162138114022    -1.583933010015
C                     0.877524096037    -1.477734308893     2.121370967991
C                     0.705348871481     0.941184744202     2.185883538547
C                    -1.039693754313    -0.326842224214    -0.169599406857
C                     0.496979619082    -0.240664747062    -0.080004889578
C                    -0.411792941589     0.419186907208    -2.286396934346
C                    -0.946795382620    -0.528306555405    -3.366925066170
C                    -0.192531565870     1.822108375184    -2.851889714280
N                     1.299376040221    -0.249872287650     2.807268655777
O                    -1.408936418951     0.539649585335    -1.237325313177
H                     2.216304486443    -1.445536368048     0.427728192520
H                     0.752632834377    -2.385869883080     0.147606145802
H                     0.387734942185     1.906053703484     0.266631816755
H                     1.996785729512     1.214454062461     0.477498161159
H                     1.734264233240     0.453423032289    -1.761579466545
H                     1.065448539276    -1.164847212697    -1.967820950297
H                    -0.193689966535    -1.615723278028     2.317929090883
H                     1.391112381093    -2.327169583336     2.584641141486
H                     1.109651325528     1.828717422829     2.684417134134
H                    -0.368950807531     0.926402681540     2.407820026776
H                    -1.352298296337    -1.363713336701    -0.376899123320
H                    -1.568068790541     0.014517823313     0.723534739548
H                    -1.860064833018    -0.122226028888    -3.812665710093
H                    -1.181363568998    -1.508527898089    -2.938882410092
H                    -0.205605100531    -0.673415842040    -4.160996513765
H                    -1.139999114675     2.237914141646    -3.208793289308
H                     0.511388548309     1.795961083608    -3.690554073443
H                     0.207057226298     2.490255940585    -2.083614110508
H                     2.315051621007    -0.177181336221     2.746733090089
