
  -OEChem-05262117483D

 22 22  0     0  0  0  0  0  0999 V2000
    2.2688   -0.5270   -0.2030 C   0  0  0  0  0  0  0  0  0  0  0  0
    1.0648   -0.0310    0.2955 C   0  0  0  0  0  0  0  0  0  0  0  0
    1.4380   -1.2507    2.3662 C   0  0  0  0  0  0  0  0  0  0  0  0
    3.0711   -1.3848    0.5590 C   0  0  0  0  0  0  0  0  0  0  0  0
    0.6568   -0.4050    1.5781 C   0  0  0  0  0  0  0  0  0  0  0  0
    2.6453   -1.7322    1.8527 C   0  0  0  0  0  0  0  0  0  0  0  0
    3.2751   -3.4151   -1.5634 C   0  0  0  0  0  0  0  0  0  0  0  0
    4.2938   -3.1701   -0.4793 C   0  0  0  0  0  0  0  0  0  0  0  0
    3.6893   -3.2836   -2.7802 N   0  0  0  0  0  0  0  0  0  0  0  0
    2.0064   -3.8201   -1.1972 N   0  0  0  0  0  0  0  0  0  0  0  0
    2.6068   -3.5208   -3.6810 O   0  0  0  0  0  0  0  0  0  0  0  0
    4.2648   -1.8164    0.0397 O   0  0  0  0  0  0  0  0  0  0  0  0
   -0.8592    0.2004    2.2192 Cl  0  0  0  0  0  0  0  0  0  0  0  0
    3.6379   -2.7674    2.8556 Cl  0  0  0  0  0  0  0  0  0  0  0  0
    2.6103   -0.2650   -1.1997 H   0  0  0  0  0  0  0  0  0  0  0  0
    0.4489    0.6321   -0.3030 H   0  0  0  0  0  0  0  0  0  0  0  0
    1.1229   -1.5257    3.3668 H   0  0  0  0  0  0  0  0  0  0  0  0
    5.2935   -3.2820   -0.8950 H   0  0  0  0  0  0  0  0  0  0  0  0
    4.1534   -3.8841    0.3385 H   0  0  0  0  0  0  0  0  0  0  0  0
    1.3117   -3.7467   -1.9323 H   0  0  0  0  0  0  0  0  0  0  0  0
    1.6823   -3.5223   -0.2858 H   0  0  0  0  0  0  0  0  0  0  0  0
    3.0298   -3.4061   -4.5461 H   0  0  0  0  0  0  0  0  0  0  0  0
  1  2  1  0  0  0  0
  1  4  2  0  0  0  0
  1 15  1  0  0  0  0
  2  5  2  0  0  0  0
  2 16  1  0  0  0  0
  3  5  1  0  0  0  0
  3  6  2  0  0  0  0
  3 17  1  0  0  0  0
  4  6  1  0  0  0  0
  4 12  1  0  0  0  0
  5 13  1  0  0  0  0
  6 14  1  0  0  0  0
  7  8  1  0  0  0  0
  7  9  2  0  0  0  0
  7 10  1  0  0  0  0
  8 12  1  0  0  0  0
  8 18  1  0  0  0  0
  8 19  1  0  0  0  0
  9 11  1  0  0  0  0
 10 20  1  0  0  0  0
 10 21  1  0  0  0  0
 11 22  1  0  0  0  0
M  END
$$$$
