
  -OEChem-05262117483D

 37 40  0     0  0  0  0  0  0999 V2000
    4.7373   -2.8934   -1.5764 C   0  0  0  0  0  0  0  0  0  0  0  0
    4.8172   -1.8396   -0.6573 C   0  0  0  0  0  0  0  0  0  0  0  0
    3.7185   -3.8517   -1.4989 C   0  0  0  0  0  0  0  0  0  0  0  0
    3.7397   -7.7115   -3.3720 C   0  0  0  0  0  0  0  0  0  0  0  0
    4.6004   -8.2281   -4.3537 C   0  0  0  0  0  0  0  0  0  0  0  0
    3.8678   -1.7142    0.3666 C   0  0  0  0  0  0  0  0  0  0  0  0
    1.7731   -8.5768   -4.5341 C   0  0  0  0  0  0  0  0  0  0  0  0
    2.7733   -3.7351   -0.4734 C   0  0  0  0  0  0  0  0  0  0  0  0
    2.3441   -7.8683   -3.4463 C   0  0  0  0  0  0  0  0  0  0  0  0
    4.0151   -8.9044   -5.4101 C   0  0  0  0  0  0  0  0  0  0  0  0
    2.6335   -9.0709   -5.4932 C   0  0  0  0  0  0  0  0  0  0  0  0
    2.8687   -2.6707    0.4266 C   0  0  0  0  0  0  0  0  0  0  0  0
    1.5781   -4.5600   -0.1249 C   0  0  0  0  0  0  0  0  0  0  0  0
    1.4803   -7.2814   -2.3976 C   0  0  0  0  0  0  0  0  0  0  0  0
    3.5647  -10.0439   -7.2961 C   0  0  0  0  0  0  0  0  0  0  0  0
    0.1551   -7.9192   -2.0455 C   0  0  0  0  0  0  0  0  0  0  0  0
    0.8453   -4.1841    0.8888 N   0  0  0  0  0  0  0  0  0  0  0  0
    1.9345   -6.2221   -1.8075 N   0  0  0  0  0  0  0  0  0  0  0  0
    1.1884   -5.6734   -0.8069 N   0  0  0  0  0  0  0  0  0  0  0  0
    1.9811   -3.0842    2.9325 O   0  0  0  0  0  0  0  0  0  0  0  0
    0.5741   -1.6593    1.3891 O   0  0  0  0  0  0  0  0  0  0  0  0
    4.6250   -9.5022   -6.4859 O   0  0  0  0  0  0  0  0  0  0  0  0
    2.3164   -9.7751   -6.6332 O   0  0  0  0  0  0  0  0  0  0  0  0
    1.4926   -2.7807    1.5873 S   0  0  0  0  0  0  0  0  0  0  0  0
    5.4778   -2.9697   -2.3678 H   0  0  0  0  0  0  0  0  0  0  0  0
    5.6181   -1.1100   -0.7400 H   0  0  0  0  0  0  0  0  0  0  0  0
    3.6544   -4.6615   -2.2128 H   0  0  0  0  0  0  0  0  0  0  0  0
    4.1579   -7.1917   -2.5171 H   0  0  0  0  0  0  0  0  0  0  0  0
    5.6775   -8.1151   -4.2829 H   0  0  0  0  0  0  0  0  0  0  0  0
    3.9098   -0.8990    1.0827 H   0  0  0  0  0  0  0  0  0  0  0  0
    0.7018   -8.7057   -4.6435 H   0  0  0  0  0  0  0  0  0  0  0  0
    3.5699   -9.5511   -8.2742 H   0  0  0  0  0  0  0  0  0  0  0  0
    3.6998  -11.1261   -7.3899 H   0  0  0  0  0  0  0  0  0  0  0  0
    0.1262   -8.1865   -0.9816 H   0  0  0  0  0  0  0  0  0  0  0  0
   -0.6830   -7.2391   -2.2411 H   0  0  0  0  0  0  0  0  0  0  0  0
   -0.0145   -8.8386   -2.6033 H   0  0  0  0  0  0  0  0  0  0  0  0
    0.3372   -6.1138   -0.4620 H   0  0  0  0  0  0  0  0  0  0  0  0
  1  2  1  0  0  0  0
  1  3  2  0  0  0  0
  1 25  1  0  0  0  0
  2  6  2  0  0  0  0
  2 26  1  0  0  0  0
  3  8  1  0  0  0  0
  3 27  1  0  0  0  0
  4  5  2  0  0  0  0
  4  9  1  0  0  0  0
  4 28  1  0  0  0  0
  5 10  1  0  0  0  0
  5 29  1  0  0  0  0
  6 12  1  0  0  0  0
  6 30  1  0  0  0  0
  7  9  2  0  0  0  0
  7 11  1  0  0  0  0
  7 31  1  0  0  0  0
  8 12  2  0  0  0  0
  8 13  1  0  0  0  0
  9 14  1  0  0  0  0
 10 11  2  0  0  0  0
 10 22  1  0  0  0  0
 11 23  1  0  0  0  0
 12 24  1  0  0  0  0
 13 17  2  0  0  0  0
 13 19  1  0  0  0  0
 14 16  1  0  0  0  0
 14 18  2  0  0  0  0
 15 22  1  0  0  0  0
 15 23  1  0  0  0  0
 15 32  1  0  0  0  0
 15 33  1  0  0  0  0
 16 34  1  0  0  0  0
 16 35  1  0  0  0  0
 16 36  1  0  0  0  0
 17 24  1  0  0  0  0
 18 19  1  0  0  0  0
 19 37  1  0  0  0  0
 20 24  2  0  0  0  0
 21 24  2  0  0  0  0
M  END
$$$$
