25
0 1 C10F2H10O3
C                    -3.885654985175     0.794626750284    -2.916337656424
C                    -5.237089098084     0.490808910088    -3.134320090201
C                    -4.790665291674    -1.842369099468    -2.613015411852
C                    -2.975509802320    -0.201880777781    -2.546366251265
C                    -5.664319789941    -0.818609431896    -2.978736730242
C                    -3.460196645382    -1.514832764090    -2.403292323061
C                     1.700166297495     2.961041589370    -1.338363404055
C                     0.987311677002     2.323829295071    -0.150992006808
C                     0.349463629202     1.245510991403    -2.074466837913
C                    -1.132725944338     1.305123137567    -2.422485786871
O                     0.920474642630     2.497807754474    -2.449016795425
O                     0.582418899317     1.058097796852    -0.684807958448
O                    -1.645945535757    -0.018219269732    -2.310619026311
F                    -6.971367238101    -1.125827669597    -3.186710507345
F                    -2.593059266095    -2.487796462496    -2.049692761199
H                    -3.553504997119     1.818513303967    -3.040694888318
H                    -5.944953233516     1.261539721489    -3.421110976298
H                    -5.133429637932    -2.864632327972    -2.494086654413
H                     1.680557598912     4.053063222664    -1.340399122326
H                     2.735396632540     2.606586982972    -1.424005840713
H                     1.629980158767     2.137995366403     0.711927941238
H                     0.115757271413     2.915887458912     0.160190773637
H                     0.831813392864     0.413172130861    -2.601721695946
H                    -1.243448380347     1.680758241743    -3.447550532446
H                    -1.644059616971     1.985459823757    -1.730106651940
