22
0 1 C8Cl2H8N2O2
C                     1.987652792327    -1.140251669790    -0.107385201097
C                     0.897226384902    -0.556799753057     0.537187699490
C                     1.896913913455    -1.089180300929     2.686179886924
C                     3.036923706926    -1.716692851042     0.621982896974
C                     0.862052563096    -0.535081007971     1.933048969789
C                     2.975821985124    -1.683731000559     2.027053242476
C                     3.795904096030    -4.652141567800    -0.286271334619
C                     3.946131632272    -3.306378906354    -0.944741709367
N                     4.719238671603    -5.514218922848    -0.555624789145
N                     2.667610301878    -4.902124167731     0.469965514069
O                     4.432487569050    -6.744724104882     0.106942486150
O                     4.144348281211    -2.249004854590     0.019647921199
Cl                   -0.498671276914     0.202151695346     2.757680226672
Cl                    4.258819302744    -2.404430196941     2.965943548376
H                     2.035105007118    -1.136199495300    -1.192075777359
H                     0.091499147771    -0.111794665457    -0.037244296436
H                     1.866393538453    -1.070059022182     3.770082370150
H                     3.074996419702    -3.091423159843    -1.572612967543
H                     4.843152257200    -3.320440959919    -1.561358828801
H                     2.743893202378    -5.723008384286     1.061286116005
H                     2.251414103178    -4.102564004147     0.931116338127
H                     5.201349056662    -7.287970063209    -0.125923495894
