25
0 1 C10F2H10O3
C                     0.881552621598    -4.918850226378    -0.351990206961
C                     1.786596149843    -5.046070725032     0.704585946113
C                    -0.066351350236    -4.936129947264     2.284143470237
C                    -0.490889069851    -4.804757667093    -0.120374644207
C                     1.292806236358    -5.044564480311     2.004407288957
C                    -0.937963843608    -4.827142117110     1.206920018343
C                    -1.724951899689    -0.123278006724    -1.718819847089
C                    -0.312517534707    -0.503051710612    -1.266453713985
C                    -1.353471884388    -2.406378489845    -1.897794496084
C                    -2.155838205927    -3.562331461322    -1.318663835161
O                    -2.247101039031    -1.349361040020    -2.256785892171
O                    -0.458225871111    -1.886389531254    -0.932524145303
O                    -1.360104289915    -4.750878716790    -1.185723465329
F                     2.159934095747    -5.157020865994     3.043591503825
F                    -2.268577018779    -4.741668757863     1.457057090393
H                     1.228507559230    -4.902834810391    -1.380355393757
H                     2.853897867710    -5.135484390707     0.530708675977
H                    -0.438948252250    -4.948851547329     3.302806796137
H                    -2.348967884923     0.199726148099    -0.877599620209
H                    -1.736739972944     0.643951905838    -2.498410180394
H                     0.419458861960    -0.378629363462    -2.076711395970
H                     0.030756583834     0.028009201591    -0.377102126282
H                    -0.798867915124    -2.727776311370    -2.794247049276
H                    -2.952351748139    -3.818899708682    -2.019449246422
H                    -2.597514938209    -3.259838707319    -0.366117132361
