
  -OEChem-05262117483D

 22 22  0     0  0  0  0  0  0999 V2000
    2.0002   -1.7652   -0.2888 C   0  0  0  0  0  0  0  0  0  0  0  0
    0.9398   -0.9217    0.0400 C   0  0  0  0  0  0  0  0  0  0  0  0
    2.0796   -0.3186    2.1017 C   0  0  0  0  0  0  0  0  0  0  0  0
    3.1084   -1.9006    0.5560 C   0  0  0  0  0  0  0  0  0  0  0  0
    0.9936   -0.1986    1.2340 C   0  0  0  0  0  0  0  0  0  0  0  0
    3.1300   -1.1744    1.7593 C   0  0  0  0  0  0  0  0  0  0  0  0
    5.0602   -1.3483   -1.5761 C   0  0  0  0  0  0  0  0  0  0  0  0
    5.3141   -2.1835   -0.3468 C   0  0  0  0  0  0  0  0  0  0  0  0
    5.2134   -1.9408   -2.7141 N   0  0  0  0  0  0  0  0  0  0  0  0
    4.7503   -0.0123   -1.4134 N   0  0  0  0  0  0  0  0  0  0  0  0
    4.9113   -1.0286   -3.7707 O   0  0  0  0  0  0  0  0  0  0  0  0
    4.1094   -2.7705    0.2070 O   0  0  0  0  0  0  0  0  0  0  0  0
   -0.3255    0.8754    1.6606 Cl  0  0  0  0  0  0  0  0  0  0  0  0
    4.4757   -1.3464    2.8650 Cl  0  0  0  0  0  0  0  0  0  0  0  0
    1.9954   -2.3328   -1.2142 H   0  0  0  0  0  0  0  0  0  0  0  0
    0.0858   -0.8221   -0.6220 H   0  0  0  0  0  0  0  0  0  0  0  0
    2.1089    0.2342    3.0343 H   0  0  0  0  0  0  0  0  0  0  0  0
    5.8203   -1.5851    0.4175 H   0  0  0  0  0  0  0  0  0  0  0  0
    5.9351   -3.0361   -0.6150 H   0  0  0  0  0  0  0  0  0  0  0  0
    4.3713    0.4370   -2.2398 H   0  0  0  0  0  0  0  0  0  0  0  0
    4.2873    0.2429   -0.5503 H   0  0  0  0  0  0  0  0  0  0  0  0
    5.0685   -1.5692   -4.5603 H   0  0  0  0  0  0  0  0  0  0  0  0
  1  2  1  0  0  0  0
  1  4  2  0  0  0  0
  1 15  1  0  0  0  0
  2  5  2  0  0  0  0
  2 16  1  0  0  0  0
  3  5  1  0  0  0  0
  3  6  2  0  0  0  0
  3 17  1  0  0  0  0
  4  6  1  0  0  0  0
  4 12  1  0  0  0  0
  5 13  1  0  0  0  0
  6 14  1  0  0  0  0
  7  8  1  0  0  0  0
  7  9  2  0  0  0  0
  7 10  1  0  0  0  0
  8 12  1  0  0  0  0
  8 18  1  0  0  0  0
  8 19  1  0  0  0  0
  9 11  1  0  0  0  0
 10 20  1  0  0  0  0
 10 21  1  0  0  0  0
 11 22  1  0  0  0  0
M  END
$$$$
