
  -OEChem-05262117483D

 25 26  0     0  0  0  0  0  0999 V2000
   -3.8857    0.7946   -2.9163 C   0  0  0  0  0  0  0  0  0  0  0  0
   -5.2371    0.4908   -3.1343 C   0  0  0  0  0  0  0  0  0  0  0  0
   -4.7907   -1.8424   -2.6130 C   0  0  0  0  0  0  0  0  0  0  0  0
   -2.9755   -0.2019   -2.5464 C   0  0  0  0  0  0  0  0  0  0  0  0
   -5.6643   -0.8186   -2.9787 C   0  0  0  0  0  0  0  0  0  0  0  0
   -3.4602   -1.5148   -2.4033 C   0  0  0  0  0  0  0  0  0  0  0  0
    1.7002    2.9610   -1.3384 C   0  0  0  0  0  0  0  0  0  0  0  0
    0.9873    2.3238   -0.1510 C   0  0  0  0  0  0  0  0  0  0  0  0
    0.3495    1.2455   -2.0745 C   0  0  0  0  0  0  0  0  0  0  0  0
   -1.1327    1.3051   -2.4225 C   0  0  0  0  0  0  0  0  0  0  0  0
    0.9205    2.4978   -2.4490 O   0  0  0  0  0  0  0  0  0  0  0  0
    0.5824    1.0581   -0.6848 O   0  0  0  0  0  0  0  0  0  0  0  0
   -1.6459   -0.0182   -2.3106 O   0  0  0  0  0  0  0  0  0  0  0  0
   -6.9714   -1.1258   -3.1867 F   0  0  0  0  0  0  0  0  0  0  0  0
   -2.5931   -2.4878   -2.0497 F   0  0  0  0  0  0  0  0  0  0  0  0
   -3.5535    1.8185   -3.0407 H   0  0  0  0  0  0  0  0  0  0  0  0
   -5.9450    1.2615   -3.4211 H   0  0  0  0  0  0  0  0  0  0  0  0
   -5.1334   -2.8646   -2.4941 H   0  0  0  0  0  0  0  0  0  0  0  0
    1.6806    4.0531   -1.3404 H   0  0  0  0  0  0  0  0  0  0  0  0
    2.7354    2.6066   -1.4240 H   0  0  0  0  0  0  0  0  0  0  0  0
    1.6300    2.1380    0.7119 H   0  0  0  0  0  0  0  0  0  0  0  0
    0.1158    2.9159    0.1602 H   0  0  0  0  0  0  0  0  0  0  0  0
    0.8318    0.4132   -2.6017 H   0  0  0  0  0  0  0  0  0  0  0  0
   -1.2434    1.6808   -3.4476 H   0  0  0  0  0  0  0  0  0  0  0  0
   -1.6441    1.9855   -1.7301 H   0  0  0  0  0  0  0  0  0  0  0  0
  1  2  1  0  0  0  0
  1  4  2  0  0  0  0
  1 16  1  0  0  0  0
  2  5  2  0  0  0  0
  2 17  1  0  0  0  0
  3  5  1  0  0  0  0
  3  6  2  0  0  0  0
  3 18  1  0  0  0  0
  4  6  1  0  0  0  0
  4 13  1  0  0  0  0
  5 14  1  0  0  0  0
  6 15  1  0  0  0  0
  7  8  1  0  0  0  0
  7 11  1  0  0  0  0
  7 19  1  0  0  0  0
  7 20  1  0  0  0  0
  8 12  1  0  0  0  0
  8 21  1  0  0  0  0
  8 22  1  0  0  0  0
  9 10  1  0  0  0  0
  9 11  1  0  0  0  0
  9 12  1  0  0  0  0
  9 23  1  0  0  0  0
 10 13  1  0  0  0  0
 10 24  1  0  0  0  0
 10 25  1  0  0  0  0
M  END
$$$$
