30   
torsion grid (-165,)
C       -1.4376701426   -3.0975988446    6.7941597953
C        5.0187904592   -0.1160472029    0.5496357305
C       -0.6302104831   -2.1654742353    7.4579246508
C       -1.2179079663   -3.3976995025    5.4454364750
C        5.3173388185   -1.4464249207    0.8660410180
C        4.7356054128    0.8098350041    1.5598551769
C        0.4067000480   -1.5276323742    6.7761386240
C       -0.1843580157   -2.7684628348    4.7475193954
C        5.3317321042   -1.8617882705    2.1982076922
C        4.7425442920    0.4136310318    2.8976374313
C        0.6070786280   -1.8420238163    5.4290748659
C        5.0422531556   -0.9201088120    3.1890413275
N        3.2943064892   -2.0844000157    5.1137325982
O        1.7441625329   -1.2007541596    3.1168795989
O        2.2172502169    0.2661804290    5.1559862371
O        5.8082289248   -2.6366918362    5.0768626388
O        5.0374066719   -0.3062625815    5.7817150255
F        3.1979393686   -3.2507806507    4.3097715572
S        1.9265867085   -1.0295302702    4.5543780888
S        4.9899909337   -1.4492583961    4.8848131666
H       -2.2429132588   -3.5912230661    7.3314913507
H        5.0071436401    0.2003427329   -0.4899243761
H       -0.8078380194   -1.9356233630    8.5044639613
H       -1.8493474468   -4.1199947399    4.9362660739
H        5.5389310614   -2.1595710935    0.0773372473
H        4.5041682474    1.8404579154    1.3074345451
H        1.0428246572   -0.7983903533    7.2676248506
H        0.0046382928   -2.9789530917    3.7000673691
H        5.5643256409   -2.8859902433    2.4697651914
H        4.5118711535    1.1092901790    3.6974962039
30   
torsion grid (-150,)
C       -1.4557855938   -2.9954290943    6.7727211358
C        4.9037503594    0.0062228098    0.6285337875
C       -0.6899507987   -1.9674171421    7.3366095186
C       -1.1658753874   -3.4791957227    5.4922757302
C        5.1408751861   -1.3520832586    0.8697053945
C        4.7373420867    0.9002548731    1.6917320616
C        0.3753602601   -1.4165501759    6.6234059614
C       -0.1031650204   -2.9391588310    4.7642563889
C        5.2100040516   -1.8307706778    2.1777945559
C        4.7982880337    0.4416191976    3.0081439925
C        0.6459431768   -1.9143743700    5.3457748908
C        5.0331436191   -0.9190567093    3.2225576752
N        3.3495321643   -2.1482798938    5.2096646015
O        1.8931017460   -1.5843227523    3.0259852375
O        2.2631099965    0.1533189517    4.8667110397
O        5.8561316796   -2.7482415090    4.9531854605
O        5.1749266071   -0.4393583991    5.8394239546
F        3.2701659210   -3.4303910582    4.6027300226
S        2.0046605867   -1.2166229918    4.4334247815
S        5.0559688996   -1.5346046547    4.8903253666
H       -2.2830802614   -3.4205511046    7.3345660239
H        4.8487478865    0.3696297244   -0.3941540425
H       -0.9218024484   -1.5954076078    8.3303237029
H       -1.7649022286   -4.2755042726    5.0601556931
H        5.2713208937   -2.0393142990    0.0388915089
H        4.5534672978    1.9529868200    1.4980979909
H        0.9811048993   -0.6170555207    7.0378872806
H        0.1404096318   -3.2926912531    3.7678676530
H        5.3951816444   -2.8784588158    2.3894202028
H        4.6528285797    1.1096178375    3.8496227241
30   
torsion grid (-135,)
C       -1.4691785475   -2.9253374648    6.7683174452
C        4.8940571462    0.1377520699    0.7192366981
C       -0.7378089835   -1.8344034657    7.2543468366
C       -1.1238341756   -3.5311708553    5.5553056354
C        5.0762659250   -1.2379152652    0.9023189496
C        4.7951193484    0.9970813681    1.8190140216
C        0.3479745815   -1.3416756091    6.5296611348
C       -0.0394415997   -3.0518643539    4.8170201393
C        5.1572578775   -1.7661078034    2.1901275562
C        4.8701655463    0.4871249747    3.1155528253
C        0.6737686608   -1.9622599582    5.3205091640
C        5.0504537899   -0.8890724052    3.2735091866
N        3.3839525349   -2.0970044439    5.3446739282
O        2.0191098745   -1.8761027670    3.0362520080
O        2.2543918929    0.0868403607    4.6617120538
O        5.8523881505   -2.8286382655    4.8713192198
O        5.3634171368   -0.5163558776    5.8879521691
F        3.2969931838   -3.4706146182    4.9915028854
S        2.0558023709   -1.3353977669    4.3913768688
S        5.1216807647   -1.5706387235    4.9150769053
H       -2.3129385372   -3.3044587753    7.3385471704
H        4.8282476268    0.5422373609   -0.2872761919
H       -1.0124518654   -1.3682272077    8.1960708821
H       -1.6963147432   -4.3761581278    5.1839223855
H        5.1525829301   -1.8988798652    0.0439748305
H        4.6524738758    2.0632455523    1.6693083442
H        0.9277441220   -0.4953323574    6.8838074886
H        0.2486240573   -3.5009309716    3.8723157325
H        5.2962061829   -2.8286456515    2.3577551279
H        4.7795706982    1.1294944899    3.9839640522
30   
torsion grid (-120,)
C       -1.4924487581   -2.8524240976    6.7889304403
C        4.8792294723    0.2933034261    0.7704262048
C       -0.8138518198   -1.6715512929    7.1145349328
C       -1.0866716220   -3.6300215179    5.6987122740
C        4.9637683653   -1.1002236013    0.8688547614
C        4.8759085066    1.0907394542    1.9204417126
C        0.2793482739   -1.2596426955    6.3514145931
C        0.0058644272   -3.2333418255    4.9244858090
C        5.0446776286   -1.7091025082    2.1207732162
C        4.9525776389    0.5003818007    3.1816741714
C        0.6662798963   -2.0517389370    5.2669706304
C        5.0380598826   -0.8920531433    3.2546232612
N        3.3772033176   -2.0824438545    5.3721224554
O        2.0704328285   -2.2656895482    3.0268687157
O        2.2000409274   -0.0720957584    4.3419277876
O        5.7837456699   -2.9651984417    4.7132157727
O        5.5158292638   -0.6771233616    5.8544479264
F        3.2938417335   -3.4969622607    5.2982273241
S        2.0552025275   -1.5255588393    4.2859927288
S        5.1429301858   -1.6654059835    4.8529529429
H       -2.3423463276   -3.1674274151    7.3883378418
H        4.8132603759    0.7604871758   -0.2085648073
H       -1.1355036013   -1.0721623987    7.9612339977
H       -1.6183279608   -4.5442199876    5.4512195302
H        4.9627795160   -1.7132739194   -0.0274833190
H        4.8056860216    2.1712217679    1.8368257956
H        0.8182645600   -0.3462137195    6.5815389615
H        0.3400736595   -3.8155710326    4.0722261853
H        5.1051188799   -2.7871498921    2.2217022530
H        4.9353673126    1.0946311887    4.0882685617
30   
torsion grid (-105,)
C       -2.1141617030   -1.5495623403    6.8170545031
C        6.9561898994   -0.0313366989    8.0073952339
C       -1.3518912406   -2.2439849836    7.7643912872
C       -1.4938825706   -0.7447162278    5.8549829008
C        6.5712037178    0.2587214673    6.6936579885
C        6.6347875453   -1.2619555796    8.5915985412
C        0.0396453937   -2.1394642083    7.7551812548
C       -0.1024582359   -0.6290738732    5.8305129586
C        5.8562436946   -0.6808787652    5.9510687801
C        5.9186719580   -2.2127651995    7.8656317418
C        0.6370092617   -1.3293787671    6.7858145505
C        5.5438354728   -1.9009870844    6.5562062008
N        2.8025269214   -2.7315610461    5.9444249840
O        2.8002364977   -0.0368712093    5.9591873381
O        2.9493476874   -1.4040181437    8.1185613761
O        4.8171214305   -2.8685640648    4.1944086067
O        4.7773418713   -4.4161378857    6.2378632932
F        2.2507829999   -2.5677930828    4.6481905502
S        2.4111995670   -1.1835866962    6.7777666622
S        4.6335083185   -3.1056587893    5.6193874413
H       -3.1972979008   -1.6362481897    6.8294750042
H        7.5095109978    0.7076346172    8.5807531681
H       -1.8401808547   -2.8653514980    8.5094460322
H       -2.0913840622   -0.2083550511    5.1235599440
H        6.8226363711    1.2164391454    6.2477879856
H        6.9349472690   -1.4784113816    9.6125845329
H        0.6512319938   -2.6635363197    8.4824951701
H        0.4041374834   -0.0104448630    5.0972439536
H        5.5403444694   -0.4751710136    4.9344971998
H        5.6452690262   -3.1687773524    8.2983173284
30   
torsion grid (-90,)
C       -2.0888625879   -1.5747340843    6.8592761592
C        6.9281223755   -0.1148605210    8.1319892010
C       -1.2839494025   -2.1160712690    7.8690577103
C       -1.5163772374   -0.8879021536    5.7827717350
C        6.5378655095    0.2600912616    6.8415567076
C        6.6283642529   -1.3891181091    8.6275535499
C        0.1031042357   -1.9754649367    7.8081442171
C       -0.1301426738   -0.7393625763    5.7046524723
C        5.8367644236   -0.6356927551    6.0342789211
C        5.9278958138   -2.2986975706    7.8364793272
C        0.6522841751   -1.2855444095    6.7241216774
C        5.5435099857   -1.8995000590    6.5535977760
N        2.8363711141   -2.7411275021    6.0265704342
O        2.7602582059   -0.0643969453    5.6690127023
O        2.9951514047   -1.1107603321    7.9911957606
O        4.7495808698   -2.6887495251    4.1374594101
O        4.8485869231   -4.4029476701    6.0318384258
F        2.1610183186   -2.8245514203    4.7809146961
S        2.4205587052   -1.0961020889    6.6479557512
S        4.6396843389   -3.0460313958    5.5449666894
H       -3.1682200666   -1.6887715516    6.9124140597
H        7.4700106072    0.5907513310    8.7560405224
H       -1.7354099906   -2.6463377959    8.7025141961
H       -2.1471251039   -0.4701027351    5.0035121031
H        6.7744159440    1.2504138159    6.4639415647
H        6.9363952233   -1.6727272898    9.6295847859
H        0.7474995963   -2.3808276620    8.5814978920
H        0.3403079432   -0.2114803011    4.8817744988
H        5.5135705682   -0.3640338635    5.0356668832
H        5.6780857246   -3.2905305617    8.1975345781
30   
torsion grid (-75,)
C        2.3727749779    1.1311104060    2.5502696088
C        5.3978370650   -1.2041128563    7.7195462884
C        2.3735053105    0.0949779572    1.6086773305
C        2.3934458010    0.8460214246    3.9196650250
C        5.3668133414   -0.3572641874    6.6064589905
C        5.5048569447   -2.5913594766    7.5594784166
C        2.3938175996   -1.2349001590    2.0288582252
C        2.4312335045   -0.4791913570    4.3585199878
C        5.4257062671   -0.8927286371    5.3183775208
C        5.5806165039   -3.1428897179    6.2819496317
C        2.4339452781   -1.4966944211    3.4017700219
C        5.5260841776   -2.2788747381    5.1844908102
N        4.0449716374   -3.8768885367    3.3835916770
O        2.6426741320   -3.2127428250    5.4131092394
O        1.4876589846   -3.9783645441    3.2605777307
O        5.6649720754   -1.9014917953    2.5495934475
O        6.6185991410   -4.0465873497    3.5364800573
F        3.9287814742   -4.0128421115    1.9791876910
S        2.4856203700   -3.1877389260    3.9633323983
S        5.6482428620   -2.9615769799    3.5529308876
H        2.3515893064    2.1643344857    2.2144479277
H        5.3442383724   -0.7810542619    8.7190430621
H        2.3571707469    0.3216129497    0.5467742859
H        2.3811800759    1.6527319456    4.6472526878
H        5.2969546571    0.7187134635    6.7383703858
H        5.5294430656   -3.2418935817    8.4284777816
H        2.3867357786   -2.0470432381    1.3104484604
H        2.4568016288   -0.7263043705    5.4140401069
H        5.4017887456   -0.2603392364    4.4376930523
H        5.6669555865   -4.2142848036    6.1354397881
30   
torsion grid (-60,)
C        2.2931345132    1.1225237716    2.1405286437
C        5.5698882951   -1.5134052966    7.9835906557
C        2.1636676646   -0.0173319713    1.3387463505
C        2.4573288901    1.0032176695    3.5248657152
C        5.4496099997   -0.5235951561    7.0019858552
C        5.7189250633   -2.8588408921    7.6259403682
C        2.2029834256   -1.2875058723    1.9140164569
C        2.5119251298   -0.2597033736    4.1166281503
C        5.4605537024   -0.8734580400    5.6507486380
C        5.7450772320   -3.2259780763    6.2813530335
C        2.3887737646   -1.3831063017    3.2957856727
C        5.6015238280   -2.2224806130    5.3196287504
N        4.0903558630   -3.6838182013    3.5237162076
O        2.6687090950   -2.8573171530    5.4835299099
O        1.5335522901   -3.8964366098    3.4366296276
O        5.4755586939   -1.4900059966    2.7626336359
O        6.6613236203   -3.6645548888    3.3465854910
F        3.9748447339   -3.9335558762    2.1319057326
S        2.5010351030   -2.9947649622    4.0412922014
S        5.6274467254   -2.6730557153    3.6052467141
H        2.2598907091    2.1082568493    1.6845567265
H        5.5520545372   -1.2350902952    9.0337964541
H        2.0320842539    0.0821002425    0.2653372799
H        2.5414363642    1.8920358932    4.1439698590
H        5.3477986245    0.5195981227    7.2873880853
H        5.8138090961   -3.6209327664    8.3936418650
H        2.0974169380   -2.1810599696    1.3084648711
H        2.6377496883   -0.3808541030    5.1870708023
H        5.3676084187   -0.1284531437    4.8677480301
H        5.8611088874   -4.2625000454    5.9822868465
30   
torsion grid (-45,)
C        1.8371753689    0.9496269236    1.1947135298
C        5.8837555119   -2.3183097864    8.5220926565
C        1.4878503562   -0.3645297854    0.8630491493
C        2.3985618002    1.2427369863    2.4424106504
C        5.6727893489   -1.0879207202    7.8900792003
C        6.0236659274   -3.4914429837    7.7709625895
C        1.6996810068   -1.3968881350    1.7777046691
C        2.6239668949    0.2220266774    3.3662060173
C        5.5895382319   -1.0220497216    6.4990579184
C        5.9550987212   -3.4424026306    6.3785138530
C        2.2688639357   -1.0825254341    3.0154344168
C        5.7319772116   -2.2039844733    5.7712067159
N        4.1447878610   -3.1133440893    3.7339304464
O        2.8055674345   -1.8597549289    5.5119392395
O        1.6121206608   -3.4775473406    3.9258443443
O        5.4869080481   -0.7592029688    3.5349583360
O        6.6889567770   -2.9947040270    3.4167191994
F        4.0992870561   -3.3482459144    2.3394582857
S        2.5540036990   -2.3980435651    4.1785044581
S        5.6690410866   -2.1335910564    3.9986614261
H        1.6694948228    1.7489655608    0.4779081396
H        5.9391603319   -2.3640467912    9.6063382730
H        1.0489364957   -0.5859772525   -0.1053961185
H        2.6660982159    2.2645297790    2.6950677991
H        5.5655993924   -0.1819563031    8.4793836239
H        6.1878868482   -4.4428864572    8.2681821293
H        1.4267164506   -2.4209593896    1.5466777729
H        3.0606469705    0.4273485858    4.3365613325
H        5.4119450796   -0.0837158637    5.9850243962
H        6.0682190476   -4.3380142695    5.7764278424
30   
torsion grid (-30,)
C        1.8802922007    0.8561545608    0.9052425908
C        6.0870961958   -2.5679605532    8.6277915016
C        1.5196164040   -0.4828918119    0.7147108838
C        2.4075553469    1.2857171037    2.1280423415
C        5.6734696988   -1.3253180059    8.1359675512
C        6.3259913752   -3.6367170295    7.7550694894
C        1.6849152738   -1.4047339970    1.7489784765
C        2.5894379533    0.3764358926    3.1704744925
C        5.4893231328   -1.1411409716    6.7648752323
C        6.1532389251   -3.4686640741    6.3811088976
C        2.2230943360   -0.9550149693    2.9591563875
C        5.7362300445   -2.2192409943    5.9137856089
N        3.9912560764   -2.9694250441    3.9713539711
O        2.6930175260   -1.4440506931    5.5447397881
O        1.4396428696   -3.1832890063    4.1435945883
O        5.3134452724   -0.5882877619    3.8526883738
O        6.5071917070   -2.7986028518    3.4265935644
F        3.9531934198   -3.3754529823    2.6147108356
S        2.4315332433   -2.1277738342    4.2810338382
S        5.5374363548   -1.9992416198    4.1611767222
H        1.7471567387    1.5693375225    0.0961776419
H        6.2228205962   -2.7060014484    9.6970679723
H        1.1066067374   -0.8087891831   -0.2354636176
H        2.6828641977    2.3267263898    2.2696966395
H        5.4865782236   -0.5017147694    8.8187920254
H        6.6470976396   -4.5988093089    8.1433463168
H        1.3985260081   -2.4441024235    1.6298196062
H        3.0019312072    0.6851019858    4.1235117070
H        5.1564104650   -0.1925380880    6.3596768226
H        6.3383312121   -4.2808899684    5.6856574964
30   
torsion grid (-15,)
C        1.9768889776    0.7703849519    0.6697714634
C        6.2976574650   -2.7679761623    8.6205402062
C        1.5813614329   -0.5696242410    0.5848919067
C        2.4527004633    1.2976498887    1.8754444586
C        5.6251410827   -1.5903198993    8.2764396304
C        6.6844678465   -3.6828122685    7.6336818020
C        1.6600456509   -1.3945697954    1.7075649974
C        2.5492187993    0.4857323354    3.0060272358
C        5.3302554359   -1.3150069734    6.9398677918
C        6.3976365015   -3.4255300114    6.2924513129
C        2.1502660295   -0.8488725279    2.8987594080
C        5.7272655769   -2.2415341575    5.9736645670
N        3.7739998674   -2.8395841684    4.1844100854
O        2.4869012728   -1.1151770173    5.5404342303
O        1.2129068419   -2.9186014613    4.2444613746
O        5.1308120980   -0.4782809565    4.0853918152
O        6.2495715245   -2.6683079015    3.3913332923
F        3.7313406574   -3.4400401827    2.9021455232
S        2.2470944089   -1.8990276108    4.3320292536
S        5.3655560514   -1.9091468330    4.2630447120
H        1.9109058537    1.4075529164   -0.2080757139
H        6.5212969120   -2.9753612977    9.6635394917
H        1.2074357673   -0.9715324630   -0.3522460463
H        2.7546855322    2.3391509191    1.9357600362
H        5.3249978162   -0.8869090804    9.0476123023
H        7.2081645965   -4.5941755381    7.9072037223
H        1.3431032349   -2.4311603449    1.6696068793
H        2.9224962000    0.8696186427    3.9476885934
H        4.8015557997   -0.4143847547    6.6498672405
H        6.6905450137   -4.1166714247    5.5087867477
30   
torsion grid (0,)
C        2.1315343374    0.6306291253    0.4953825411
C        6.5155890428   -2.9454917737    8.5712758972
C        1.6999823197   -0.7008654766    0.5008252834
C        2.5364573091    1.2529939070    1.6815791742
C        5.6453491889   -1.8645330799    8.3857181257
C        6.9834890328   -3.6791229771    7.4753525172
C        1.6710375749   -1.4211840648    1.6957045596
C        2.5252460554    0.5462530475    2.8847083591
C        5.2360755225   -1.5052936661    7.1005718584
C        6.5812147968   -3.3387199487    6.1818180098
C        2.0923445608   -0.7820400390    2.8666598502
C        5.7188051551   -2.2525429045    6.0233052415
N        3.5678028193   -2.6947369668    4.4186149589
O        2.2524373337   -0.8310276980    5.5399204795
O        1.0075991647   -2.7045310953    4.3184451545
O        4.9451536173   -0.3724954238    4.3297460923
O        5.9865226332   -2.5068248201    3.3806524861
F        3.5296377233   -3.5045398775    3.2600471965
S        2.0638031042   -1.7059493358    4.3873894048
S        5.1918921318   -1.8104707393    4.3812963069
H        2.1497059421    1.1866122184   -0.4381708378
H        6.8293424721   -3.2181777736    9.5752810094
H        1.3818496836   -1.1771216175   -0.4219942670
H        2.8671527457    2.2874590760    1.6708892487
H        5.2824351116   -1.3021116591    9.2410475565
H        7.6595452695   -4.5158093253    7.6257069192
H        1.3245505172   -2.4485032042    1.7268501756
H        2.8450739800    1.0029639481    3.8135618057
H        4.5546193728   -0.6776775889    6.9334332610
H        6.9296072394   -3.8911591678    5.3151002677
30   
torsion grid (15,)
C        2.3538417507    0.5223037606    0.3705790553
C        6.6895650673   -3.0727502391    8.4854597057
C        1.9392181912   -0.8137892191    0.4153279648
C        2.6090093393    1.2294711702    1.5509281789
C        5.8053880242   -1.9870518006    8.4614858998
C        7.0596918404   -3.7146043835    7.2986105415
C        1.7767642506   -1.4540741881    1.6447018567
C        2.4623622746    0.6033500296    2.7894309319
C        5.2837653174   -1.5343647753    7.2488425404
C        6.5457653945   -3.2781546535    6.0750458201
C        2.0486053245   -0.7310411767    2.8108349465
C        5.6699748903   -2.1914010420    6.0778294025
N        3.3862859251   -2.5049779289    4.6206370889
O        1.9136453740   -0.6098907899    5.4814797444
O        0.8517231619   -2.5928351716    4.2607933913
O        4.7024831205   -0.2003607343    4.6203755508
O        5.7324863406   -2.2071254252    3.4156606391
F        3.4182969609   -3.4963471067    3.6154891531
S        1.8683223813   -1.5581510477    4.3766481423
S        4.9970718542   -1.6266853886    4.5300559043
H        2.4768910678    1.0154577898   -0.5899365809
H        7.0914300091   -3.4194836053    9.4336584689
H        1.7386585826   -1.3559655765   -0.5041653326
H        2.9282070811    2.2667786797    1.5089712717
H        5.5210025372   -1.4936284583    9.3862959414
H        7.7478461515   -4.5545410398    7.3234490921
H        1.4421689080   -2.4841368452    1.7045790465
H        2.6676974405    1.1247267486    3.7168182734
H        4.5956444791   -0.6960068374    7.2056900573
H        6.8197773360   -3.7569648484    5.1404803294
30   
torsion grid (30,)
C        2.6062648654    0.3858543382    0.3111569604
C        6.8428363567   -3.1908500345    8.3422691777
C        2.1976051788   -0.9501735929    0.3953037765
C        2.7226311588    1.1697570494    1.4644848894
C        5.9623609497   -2.1121780601    8.4930583140
C        7.1059994094   -3.7236780865    7.0757195674
C        1.9025029384   -1.5142842764    1.6370101353
C        2.4392596812    0.6220812942    2.7164682195
C        5.3349538362   -1.5590871446    7.3761421470
C        6.4873825737   -3.1832459206    5.9457475058
C        2.0342873059   -0.7139803110    2.7762397433
C        5.6147490014   -2.1078902258    6.1218988228
N        3.2291827510   -2.3149394333    4.8213904169
O        1.5867229538   -0.4302622316    5.3967977455
O        0.7473115730   -2.5345904506    4.2080130525
O        4.4656653994   -0.0201020970    4.9360495349
O        5.4838751233   -1.8551466290    3.4795100444
F        3.3499266149   -3.4306745580    3.9623938950
S        1.7015571938   -1.4471347041    4.3631625563
S        4.8084526931   -1.4173539959    4.6940838006
H        2.8343346506    0.8184703738   -0.6592777937
H        7.3264774685   -3.6171650221    9.2169801518
H        2.1060700029   -1.5521147144   -0.5041019567
H        3.0391764262    2.2061594175    1.3917995968
H        5.7637412102   -1.7027184016    9.4792141597
H        7.7918962682   -4.5586028480    6.9656634861
H        1.5734562328   -2.5440823687    1.7263205360
H        2.5370000892    1.2031519078    3.6261025032
H        4.6496392302   -0.7222779946    7.4672009944
H        6.6781110321   -3.5744518741    4.9517065835
30   
torsion grid (45,)
C        2.8421068414    0.2190708218    0.3238911742
C        6.9410740550   -3.2657188130    8.1467279769
C        2.4350628226   -1.1148094821    0.4435617312
C        2.8216211374    1.0729862497    1.4321229332
C        6.0633143428   -2.2175395846    8.4507339236
C        7.1004062926   -3.7013828717    6.8268254484
C        2.0057950630   -1.6067612297    1.6764191140
C        2.4007008764    0.5988255238    2.6752109719
C        5.3347298956   -1.5980140131    7.4347810805
C        6.3796993280   -3.0926921203    5.7965737000
C        2.0005819305   -0.7366931973    2.7705643977
C        5.5115009781   -2.0494286134    6.1239052968
N        3.0239231008   -2.1656527160    5.0279059986
O        1.2702601440   -0.2957117615    5.2978658886
O        0.6117014668   -2.5031024762    4.1829968269
O        4.2413524652    0.1035698678    5.1933768318
O        5.1658860946   -1.6015652180    3.5293006197
F        3.2068991275   -3.3719571368    4.3060140065
S        1.5155988934   -1.3764465608    4.3570385338
S        4.5839074446   -1.2657576297    4.8237939882
H        3.1768720010    0.5949052522   -0.6392260746
H        7.5042679464   -3.7441488754    8.9434214311
H        2.4511652597   -1.7712796533   -0.4215496092
H        3.1387785219    2.1068895810    1.3320241797
H        5.9462150533   -1.8832822988    9.4774628500
H        7.7846164421   -4.5132685117    6.5980082277
H        1.6800858272   -2.6348965593    1.7931795018
H        2.3935001602    1.2344773658    3.5534329440
H        4.6509278783   -0.7816819895    7.6447666335
H        6.4884594486   -3.4072261297    4.7638513591
30   
torsion grid (60,)
C        3.0102851806    0.0523452319    0.3361723514
C        7.0141102660   -3.3705503991    7.9479270634
C        2.6156399609   -1.2787404301    0.5143484435
C        2.8994857305    0.9758437065    1.3814967686
C        6.1365399624   -2.3819172684    8.4100801409
C        7.1158071819   -3.6506676023    6.5808162538
C        2.1096011511   -1.6995263259    1.7443629055
C        2.3989681106    0.5746744360    2.6203016715
C        5.3511805411   -1.6659326357    7.5058766399
C        6.3365612529   -2.9444968815    5.6616990716
C        2.0142460651   -0.7600169712    2.7741966137
C        5.4703166839   -1.9620807740    6.1451592929
N        2.9214924018   -1.9657887169    5.2192340773
O        1.0886856525   -0.1541681391    5.1924957798
O        0.5902022003   -2.4716485121    4.2203619739
O        4.1568453367    0.2728737662    5.5209636022
O        4.9807105056   -1.2517283355    3.6365403103
F        3.1855913398   -3.2197915999    4.5959109227
S        1.4381947560   -1.2985707455    4.3657595494
S        4.4718725183   -1.0486936112    4.9892350645
H        3.4062848198    0.3716769808   -0.6241079811
H        7.6219708634   -3.9249605923    8.6578300636
H        2.7019698331   -1.9885693002   -0.3032167346
H        3.2079131605    2.0068955678    1.2356553262
H        6.0639190093   -2.1687762206    9.4725771761
H        7.7995560226   -4.4179916347    6.2295563988
H        1.7945584716   -2.7246884174    1.9076232587
H        2.3196701884    1.2661176523    3.4524170611
H        4.6669543813   -0.8922845062    7.8393625982
H        6.3972677280   -3.1393572594    4.5961283498
30   
torsion grid (75,)
C        3.1339108684   -0.3439560872    0.2356670175
C        7.0072957535   -3.5930686165    7.6351505886
C        2.6880894390   -1.6177603550    0.6071729482
C        3.0573165355    0.7273173597    1.1327117081
C        6.0314774572   -2.9016218839    8.3631627530
C        7.1607976353   -3.3746475556    6.2613220300
C        2.1623994814   -1.8295861290    1.8825451105
C        2.5417660234    0.5327845255    2.4140975220
C        5.1983361889   -1.9842962778    7.7210954540
C        6.3334304922   -2.4632772486    5.6022885201
C        2.1035265530   -0.7465579913    2.7637751454
C        5.3692869305   -1.7830402885    6.3489451484
N        2.8299076556   -1.6514333921    5.3934904168
O        1.1475463489    0.2668906505    5.0362468375
O        0.5213351664   -2.1290070431    4.3731690220
O        3.9063953016    0.4407341507    6.4597817415
O        4.8526563422   -0.3066752973    4.2044024541
F        3.2787082433   -2.7977200460    4.6653827651
S        1.4456768677   -1.0057561868    4.3963363335
S        4.3170697822   -0.6026129498    5.5313169701
H        3.5405107684   -0.1850373268   -0.7595513848
H        7.6524494609   -4.3055475880    8.1420947045
H        2.7443299663   -2.4438142544   -0.0958916402
H        3.4033104213    1.7135320079    0.8377319903
H        5.9200570272   -3.0749489172    9.4295132421
H        7.9214090445   -3.9133792256    5.7036543957
H        1.7983084635   -2.8040918568    2.1896318976
H        2.4827052158    1.3465645895    3.1288240483
H        4.4395660554   -1.4310878700    8.2652271330
H        6.4301972438   -2.2729032652    4.5385371332
30   
torsion grid (90,)
C        3.3397695016   -0.6716588307    0.2829144101
C        7.0160817566   -3.6124104577    7.2222826335
C        2.7908975315   -1.8725627796    0.7482130694
C        3.2967000740    0.4836998294    1.0712381954
C        6.0299636206   -3.1440049963    8.0985532556
C        7.1099072428   -3.1099578069    5.9191726817
C        2.1942137811   -1.9254842422    2.0086304038
C        2.7137494124    0.4477505752    2.3383786339
C        5.1274337865   -2.1665790223    7.6762213911
C        6.2119934338   -2.1360695315    5.4785173732
C        2.1732777172   -0.7610937565    2.7825457901
C        5.2388022423   -1.6814261308    6.3707512715
N        2.6331722287   -1.4830418236    5.5372410689
O        1.1727054223    0.5324716218    4.8937692026
O        0.3695316977   -1.8480325966    4.3758398225
O        3.6861769783    0.3899563799    6.9765557761
O        4.5778442065    0.1688429806    4.5874321611
F        3.1381830684   -2.6391927384    4.8615008265
S        1.3931795416   -0.8138924300    4.3827539859
S        4.1029153191   -0.4174755931    5.8400676843
H        3.7987858840   -0.6354232853   -0.7015391015
H        7.7167218598   -4.3722601524    7.5577608574
H        2.8198845724   -2.7641720106    0.1285190853
H        3.7202837444    1.4133713355    0.7027634207
H        5.9651354370   -3.5362653923    9.1092465343
H        7.8800605875   -3.4763620793    5.2465895890
H        1.7455628074   -2.8391223031    2.3833294926
H        2.6780359579    1.3281829536    2.9696348560
H        4.3599491092   -1.7808949062    8.3395698386
H        6.2617461296   -1.7281019907    4.4743270599
30   
torsion grid (105,)
C        1.2337121350    1.1733570519    0.4191079519
C        7.4244919114   -3.2165378702    1.2506881964
C        0.9549715722   -0.1983467056    0.3878473824
C        1.6328426995    1.7916979973    1.6093554522
C        7.3369458992   -3.6649539063    2.5736900711
C        6.6834911144   -2.1084427136    0.8228210201
C        1.0743880788   -0.9625663788    1.5496108685
C        1.7694785728    1.0412335230    2.7780983185
C        6.5038084822   -3.0084180174    3.4813143637
C        5.8434029622   -1.4415149789    1.7157788998
C        1.4891897812   -0.3261106560    2.7240070296
C        5.7738604100   -1.9060040556    3.0312064767
N        3.2255783505   -2.1415735503    4.1375495517
O        1.7848853785   -0.4301362506    5.3796636849
O        0.6701808229   -2.3883283471    4.1536016882
O        5.2201423464   -1.2503239780    5.5466807439
O        4.4131156503    0.2785294552    3.6623499646
F        3.2268442415   -2.7560347948    2.8463885762
S        1.6254241208   -1.2920009212    4.2156382289
S        4.7319518221   -1.0464734072    4.1915256871
H        1.1323104658    1.7641207881   -0.4874951972
H        8.0756957004   -3.7318171390    0.5498215705
H        0.6352780667   -0.6709362023   -0.5364546413
H        1.8411085048    2.8574803337    1.6293431860
H        7.9179067465   -4.5226973770    2.8997098519
H        6.7599087966   -1.7639714425   -0.2044372232
H        0.8426722481   -2.0220998455    1.5542111012
H        2.0862238980    1.4961317579    3.7092966494
H        6.4246483354   -3.3318311853    4.5142436821
H        5.2608185732   -0.5782053269    1.4111729253
30   
torsion grid (120,)
C        1.7838235139    0.9101559411    0.2764724210
C        6.9931457350   -2.9388499566    1.0259374580
C        1.4613022364   -0.4517284549    0.3160443511
C        2.0033623368    1.6230605979    1.4608570962
C        7.1421023418   -3.4559288227    2.3178581136
C        6.1265532625   -1.8659831835    0.7830553830
C        1.3601942428   -1.1105812626    1.5427073630
C        1.9184559925    0.9770942614    2.6955835818
C        6.4199154368   -2.9060945526    3.3790189548
C        5.3993878843   -1.3005419030    1.8309751425
C        1.6028228963   -0.3835253173    2.7130068353
C        5.5663784352   -1.8342739992    3.1118638285
N        3.0844860983   -2.1278815682    4.4151737791
O        1.5970574328   -0.2997128743    5.3889057413
O        0.5371991779   -2.3014732764    4.1869122218
O        5.2352032605   -1.4607725510    5.7387395818
O        4.3250519095    0.2763701701    4.1171826217
F        3.1533112638   -2.9590469298    3.2623145108
S        1.5252705992   -1.2367703893    4.2775301766
S        4.6521068238   -1.1069904451    4.4547238082
H        1.8559313542    1.4194690161   -0.6809295950
H        7.5566100589   -3.3726774437    0.2042849159
H        1.2797791833   -0.9985650656   -0.6047785705
H        2.2456742088    2.6812362494    1.4254881797
H        7.8186741600   -4.2857906149    2.4997505996
H        6.0184191680   -1.4683847549   -0.2218893115
H        1.0945383730   -2.1606535310    1.5967116028
H        2.1003732601    1.5043886934    3.6246124650
H        6.5174799289   -3.2871431534    4.3905971002
H        4.7268618619   -0.4643458452    1.6670723459
30   
torsion grid (135,)
C        2.1799770064    0.6793723379    0.2401000047
C        6.6861595191   -2.6834558036    0.8509364593
C        1.8613843322   -0.6799581587    0.3408110351
C        2.2886708722    1.4730839135    1.3886212962
C        6.9273091590   -3.3207930128    2.0740817317
C        5.8469239898   -1.5656760855    0.7813192985
C        1.6516592796   -1.2563498081    1.5951091498
C        2.0925447336    0.9101868660    2.6513899678
C        6.3228700596   -2.8486110923    3.2401257149
C        5.2373804938   -1.0773347316    1.9378895403
C        1.7823521409   -0.4498121262    2.7302506637
C        5.4894094340   -1.7316397597    3.1462819817
N        3.1192878508   -2.0630175319    4.6614704332
O        1.5466765469   -0.1888004991    5.3780056648
O        0.6064250393   -2.2807971845    4.2317288641
O        5.4078414200   -1.5750533368    5.8113218816
O        4.3604204590    0.2947571715    4.4431755036
F        3.2295354711   -3.0975285101    3.6967350366
S        1.5765968764   -1.2011966866    4.3351117307
S        4.7104084088   -1.1109961259    4.6233869662
H        2.3371337919    1.1247120966   -0.7387161261
H        7.1586924644   -3.0587383218   -0.0527917955
H        1.7698291128   -1.2893946286   -0.5536078974
H        2.5299520253    2.5286818132    1.3037976663
H        7.5836366007   -4.1848955852    2.1200464361
H        5.6680019242   -1.0712295245   -0.1690594788
H        1.3913361797   -2.3044543377    1.6957354822
H        2.1881847185    1.4986039414    3.5564776183
H        6.4916807163   -3.3249007636    4.2005752592
H        4.5978691568   -0.2022215204    1.9074090913
30   
torsion grid (150,)
C        2.3663573706    0.5021727834    0.1838858529
C        6.4618555576   -2.5127023295    0.7549176962
C        2.1209028397   -0.8654868229    0.3509410724
C        2.3822921269    1.3622385214    1.2887848928
C        6.6105377978   -3.3060838497    1.8997318865
C        5.7961823429   -1.2848212217    0.8228719548
C        1.8857291954   -1.3826917788    1.6260232416
C        2.1608049353    0.8604862465    2.5731740387
C        6.0883929150   -2.8775733641    3.1201238224
C        5.2644085162   -0.8425607807    2.0355515862
C        1.9184425127   -0.5080828931    2.7160899656
C        5.4169150549   -1.6516174839    3.1627359259
N        3.1576726613   -1.9539870009    4.8707193426
O        1.4834462968   -0.0779006445    5.3024910398
O        0.6966689267   -2.2810032946    4.2517545854
O        5.5427003394   -1.6268555320    5.8137055765
O        4.4093867409    0.3310368212    4.6327776118
F        3.2909228540   -3.1683795392    4.1510605451
S        1.6242244245   -1.1641234561    4.3478466044
S        4.7556444393   -1.0836255390    4.7189578530
H        2.5396100566    0.9011333795   -0.8120790030
H        6.8726965076   -2.8522183628   -0.1921354223
H        2.1065514912   -1.5282666799   -0.5093189449
H        2.5678392111    2.4237875414    1.1526993510
H        7.1347667498   -4.2555735258    1.8426797794
H        5.6897266080   -0.6673652862   -0.0641722010
H        1.6761762933   -2.4366193403    1.7755235798
H        2.1811259680    1.5018899457    3.4470368494
H        6.1989273934   -3.4717127386    4.0211188755
H        4.7580401189    0.1123580000    2.1102863437
30   
torsion grid (165,)
C        2.5601272550    0.1606564313    0.1203047609
C        6.1970647036   -2.1815186921    0.6546194700
C        2.3510277135   -1.1935400222    0.4070885226
C        2.5137876119    1.1191057668    1.1382809249
C        6.1402393979   -3.1825535602    1.6321597892
C        5.8320100183   -0.8678698604    0.9637152054
C        2.0805222486   -1.5978927714    1.7144612051
C        2.2632293395    0.7307032310    2.4566614672
C        5.7122451033   -2.8774100693    2.9246477364
C        5.3892463156   -0.5473750712    2.2477602238
C        2.0489448533   -0.6244137393    2.7177783917
C        5.3253841040   -1.5623413572    3.2040420752
N        3.1630442566   -1.8880746638    5.0571961375
O        1.5013268778    0.0538983101    5.2218860669
O        0.7249806570   -2.2292483158    4.3530502086
O        5.6100352105   -1.8453459454    5.8211853846
O        4.5256588848    0.2977992145    4.9290241399
F        3.2621121428   -3.1894748912    4.4994167909
S        1.6679537182   -1.1222232329    4.3861398806
S        4.7921922651   -1.1334223237    4.8532268272
H        2.7566046634    0.4700034620   -0.9027497716
H        6.5369494396   -2.4261901813   -0.3481419616
H        2.3907008084   -1.9333122743   -0.3869439147
H        2.6722026217    2.1690564124    0.9090073779
H        6.4385472751   -4.1989470446    1.3918866249
H        5.8881289876   -0.0902643598    0.2078014201
H        1.8893636321   -2.6388274501    1.9533674245
H        2.2325759199    1.4502457581    3.2679059355
H        5.6845684722   -3.6357532440    3.6989704674
H        5.1057933056    0.4648839129    2.5097542715
30   
torsion grid (180,)
C        2.6278414875   -0.0528389282    0.0504683976
C        6.0593569494   -1.9555514550    0.6369400416
C        2.4513251772   -1.3872801083    0.4356844191
C        2.5541687628    0.9754955694    0.9951079287
C        5.8996699078   -3.0421901981    1.5047363266
C        5.8290582574   -0.6512776580    1.0846861006
C        2.1809812278   -1.7020989868    1.7670862849
C        2.3085267750    0.6770361016    2.3373998284
C        5.5093800450   -2.8310811686    2.8276072921
C        5.4239403686   -0.4224022552    2.4004824177
C        2.1227603438   -0.6597083793    2.6969827702
C        5.2615711769   -1.5198400690    3.2478069938
N        3.1325316487   -1.8107893186    5.1812560960
O        1.5675917452    0.2178838931    5.1275240232
O        0.7031187318   -2.0871882553    4.4096147018
O        5.5947200509   -2.1518689292    5.7693016009
O        4.7256413350    0.2061834742    5.2028068366
F        3.1538960165   -3.1556450791    4.7119522723
S        1.6982202274   -1.0270137641    4.3884180587
S        4.8257674115   -1.2252670809    4.9545183442
H        2.8224581819    0.1850274243   -0.9917882429
H        6.3727112004   -2.1263801205   -0.3894562213
H        2.5141113484   -2.1819041396   -0.3017410239
H        2.6874409544    2.0095867971    0.6904168809
H        6.0930048015   -4.0529147634    1.1569850813
H        5.9619588734    0.1903732656    0.4114937515
H        2.0094513880   -2.7271400773    2.0784209838
H        2.2531404398    1.4533794765    3.0933512836
H        5.4110308174   -3.6578207435    3.5218451952
H        5.2460253332    0.5810046281    2.7703163383
