
  -OEChem-05262117483D

 20 21  0     0  0  0  0  0  0999 V2000
    1.6362   -1.7420   -0.1960 C   0  0  0  0  0  0  0  0  0  0  0  0
    0.6092   -1.0151    0.4028 C   0  0  0  0  0  0  0  0  0  0  0  0
    2.7746   -2.0924    0.5400 C   0  0  0  0  0  0  0  0  0  0  0  0
   -0.4337    3.1685    4.4075 C   0  0  0  0  0  0  0  0  0  0  0  0
    0.8017    3.5206    3.9121 C   0  0  0  0  0  0  0  0  0  0  0  0
    0.7085   -0.6002    1.7409 C   0  0  0  0  0  0  0  0  0  0  0  0
    2.8630   -1.7071    1.8712 C   0  0  0  0  0  0  0  0  0  0  0  0
    1.8426   -0.9667    2.4689 C   0  0  0  0  0  0  0  0  0  0  0  0
   -0.1254    1.4250    3.0884 C   0  0  0  0  0  0  0  0  0  0  0  0
   -0.4354    0.1713    2.3427 C   0  0  0  0  0  0  0  0  0  0  0  0
   -0.9494    1.9966    3.9314 N   0  0  0  0  0  0  0  0  0  0  0  0
   -1.5878   -0.1876    2.1617 O   0  0  0  0  0  0  0  0  0  0  0  0
    3.9358   -2.0536    2.6110 F   0  0  0  0  0  0  0  0  0  0  0  0
    1.9586   -0.6507    3.7745 F   0  0  0  0  0  0  0  0  0  0  0  0
    1.3612    2.3241    2.8104 S   0  0  0  0  0  0  0  0  0  0  0  0
    1.5550   -2.0444   -1.2355 H   0  0  0  0  0  0  0  0  0  0  0  0
   -0.2858   -0.7529   -0.1524 H   0  0  0  0  0  0  0  0  0  0  0  0
    3.5866   -2.6662    0.1036 H   0  0  0  0  0  0  0  0  0  0  0  0
   -1.0003    3.7495    5.1273 H   0  0  0  0  0  0  0  0  0  0  0  0
    1.3874    4.4037    4.1332 H   0  0  0  0  0  0  0  0  0  0  0  0
  1  2  1  0  0  0  0
  1  3  2  0  0  0  0
  1 16  1  0  0  0  0
  2  6  2  0  0  0  0
  2 17  1  0  0  0  0
  3  7  1  0  0  0  0
  3 18  1  0  0  0  0
  4  5  2  0  0  0  0
  4 11  1  0  0  0  0
  4 19  1  0  0  0  0
  5 15  1  0  0  0  0
  5 20  1  0  0  0  0
  6  8  1  0  0  0  0
  6 10  1  0  0  0  0
  7  8  2  0  0  0  0
  7 13  1  0  0  0  0
  8 14  1  0  0  0  0
  9 10  1  0  0  0  0
  9 11  2  0  0  0  0
  9 15  1  0  0  0  0
 10 12  2  0  0  0  0
M  END
$$$$
