20
0 1 C10F2H5NOS
C                     1.910627445617    -1.017011218774    -0.207860041044
C                     0.835554739244    -0.415783297598     0.444212110258
C                     2.934448042653    -1.622928099836     0.527594177044
C                    -3.472776452413    -0.226875452598     0.815008926030
C                    -4.078597240186     0.643184778803     1.692926878081
C                     0.770317894424    -0.383133905091     1.848788516460
C                     2.865681950969    -1.607294633377     1.914679413729
C                     1.805702976760    -0.987678650814     2.576430306175
C                    -1.701219921072     0.297948259494     2.027459036728
C                    -0.317734549949     0.341083107926     2.575582220318
N                    -2.131943955119    -0.414643682724     1.012584466194
O                    -0.105696157400     0.970293803583     3.606451050333
F                     3.832996439230    -2.196665682967     2.647980298620
F                     1.790976858713    -1.025089743907     3.916369314208
S                    -2.935067010653     1.258231564864     2.823098663944
H                     1.952527067437    -1.022117667729    -1.292641360614
H                     0.038607705644     0.038450921020    -0.130632829104
H                     3.778402009588    -2.108865081724     0.047289566883
H                    -3.975431190157    -0.753392071380     0.010933610814
H                    -5.120007296113     0.937433168825     1.724923800379
