
  -OEChem-05262117483D

 29 31  0     0  0  0  0  0  0999 V2000
    1.2858    0.4854    6.4826 C   0  0  0  0  0  0  0  0  0  0  0  0
    0.8541   -0.4220    5.5084 C   0  0  0  0  0  0  0  0  0  0  0  0
    1.1950    1.8619    6.2399 C   0  0  0  0  0  0  0  0  0  0  0  0
    5.1286    2.2081    2.7796 C   0  0  0  0  0  0  0  0  0  0  0  0
    0.3349    0.0422    4.2979 C   0  0  0  0  0  0  0  0  0  0  0  0
    0.7119    2.3335    5.0192 C   0  0  0  0  0  0  0  0  0  0  0  0
    1.6993    4.5881    2.0227 C   0  0  0  0  0  0  0  0  0  0  0  0
    2.9562    5.1746    2.1172 C   0  0  0  0  0  0  0  0  0  0  0  0
    6.3328    2.8216    2.8469 C   0  0  0  0  0  0  0  0  0  0  0  0
    2.6465    2.4036    2.4793 C   0  0  0  0  0  0  0  0  0  0  0  0
    3.9281    2.9734    2.5416 C   0  0  0  0  0  0  0  0  0  0  0  0
    0.3010    1.4183    4.0371 C   0  0  0  0  0  0  0  0  0  0  0  0
    1.5315    3.2079    2.2430 C   0  0  0  0  0  0  0  0  0  0  0  0
    4.0669    4.3666    2.3775 C   0  0  0  0  0  0  0  0  0  0  0  0
    6.4687    4.2679    2.6814 C   0  0  0  0  0  0  0  0  0  0  0  0
   -0.3071    1.8322    2.8037 N   0  0  0  0  0  0  0  0  0  0  0  0
    0.2073    2.6881    2.0465 N   0  0  0  0  0  0  0  0  0  0  0  0
    7.5043    4.8950    2.7305 O   0  0  0  0  0  0  0  0  0  0  0  0
    5.2874    4.9769    2.4465 O   0  0  0  0  0  0  0  0  0  0  0  0
    1.6721    0.1242    7.4317 H   0  0  0  0  0  0  0  0  0  0  0  0
    0.9030   -1.4908    5.6991 H   0  0  0  0  0  0  0  0  0  0  0  0
    1.5047    2.5704    7.0036 H   0  0  0  0  0  0  0  0  0  0  0  0
    5.0480    1.1309    2.9081 H   0  0  0  0  0  0  0  0  0  0  0  0
   -0.0362   -0.6465    3.5438 H   0  0  0  0  0  0  0  0  0  0  0  0
    0.6462    3.4002    4.8298 H   0  0  0  0  0  0  0  0  0  0  0  0
    0.8251    5.1883    1.7876 H   0  0  0  0  0  0  0  0  0  0  0  0
    3.0985    6.2411    1.9740 H   0  0  0  0  0  0  0  0  0  0  0  0
    7.2570    2.2836    3.0263 H   0  0  0  0  0  0  0  0  0  0  0  0
    2.5355    1.3325    2.6144 H   0  0  0  0  0  0  0  0  0  0  0  0
  1  2  1  0  0  0  0
  1  3  2  0  0  0  0
  1 20  1  0  0  0  0
  2  5  2  0  0  0  0
  2 21  1  0  0  0  0
  3  6  1  0  0  0  0
  3 22  1  0  0  0  0
  4  9  2  0  0  0  0
  4 11  1  0  0  0  0
  4 23  1  0  0  0  0
  5 12  1  0  0  0  0
  5 24  1  0  0  0  0
  6 12  2  0  0  0  0
  6 25  1  0  0  0  0
  7  8  2  0  0  0  0
  7 13  1  0  0  0  0
  7 26  1  0  0  0  0
  8 14  1  0  0  0  0
  8 27  1  0  0  0  0
  9 15  1  0  0  0  0
  9 28  1  0  0  0  0
 10 11  1  0  0  0  0
 10 13  2  0  0  0  0
 10 29  1  0  0  0  0
 11 14  2  0  0  0  0
 12 16  1  0  0  0  0
 13 17  1  0  0  0  0
 14 19  1  0  0  0  0
 15 18  2  0  0  0  0
 15 19  1  0  0  0  0
 16 17  2  0  0  0  0
M  END
$$$$
