20
0 1 C10F2H5NOS
C                     1.636249130678    -1.741977774267    -0.196018568516
C                     0.609219364907    -1.015062306733     0.402779106319
C                     2.774646246016    -2.092392313750     0.539950089198
C                    -0.433669545528     3.168508790420     4.407493820292
C                     0.801694340566     3.520588983966     3.912083867819
C                     0.708476478133    -0.600188045622     1.740945905165
C                     2.863047907902    -1.707063794347     1.871164102758
C                     1.842555454514    -0.966748596735     2.468949159958
C                    -0.125418819588     1.424973917502     3.088426201752
C                    -0.435434166314     0.171263838521     2.342729435953
N                    -0.949416513764     1.996603052247     3.931371752719
O                    -1.587773868170    -0.187640058114     2.161659441000
F                     3.935844665426    -2.053617250521     2.611043200138
F                     1.958624342511    -0.650693782255     3.774542429143
S                     1.361190272679     2.324068335001     2.810390827778
H                     1.555035452181    -2.044440185249    -1.235502027805
H                    -0.285816125799    -0.752862280324    -0.152412164980
H                     3.586647752122    -2.666150174952     0.103635308504
H                    -1.000305300612     3.749491439286     5.127321715813
H                     1.387446495383     4.403677256663     4.133209048008
