20
0 1 C10FH6NOS
C                     1.843628742316    -1.230164682957    -0.083458855691
C                     0.755874028917    -0.589001858526     0.521764840268
C                     2.902853591375    -1.683891256586     0.700610909784
C                     0.732873362623    -0.394151570413     1.905021982552
C                     2.727785111587    -4.001492871443     5.650950667475
C                     3.991904773065    -4.051587246880     6.194512528721
C                     2.886018347595    -1.530832061339     2.096950704452
C                     1.794460268246    -0.868090893120     2.668045412548
C                     3.784472418334    -2.814143345090     4.120098370399
C                     4.050380463542    -2.051363251943     2.876157188483
N                     2.621707258664    -3.300883109974     4.481523410144
O                     5.202034954996    -1.913287143196     2.473229235198
F                     1.783358786546    -0.611371777336     3.996391142748
S                     5.110479079428    -3.199744269046     5.199778463993
H                     1.865037188469    -1.371576714256    -1.160012729077
H                    -0.071710169095    -0.228216482902    -0.082847417883
H                     3.760196413794    -2.173665450598     0.248741901627
H                    -0.083280427719     0.125550314833     2.397331141782
H                     1.846763603988    -4.466921532323     6.079485834074
H                     4.304952940220    -4.537383192457     7.110008116517
