20
0 1 C10F2H5NOS
C                     2.184058162926    -0.895402205222    -0.119286714071
C                     1.267224111335    -0.028321918864     0.476180964997
C                     2.774843248108    -1.917360045558     0.630196997309
C                    -3.290692723261     1.976551712802     1.520597572997
C                    -3.436399069959     0.880772106380     0.699390193211
C                     0.939068723289    -0.152494594914     1.836230268108
C                     2.443397314455    -2.047456791689     1.973812284093
C                     1.543869109230    -1.170129671285     2.579462809098
C                    -1.313275996223     1.059974174572     1.883576102404
C                     0.024813241119     0.835431398620     2.510424058857
N                    -2.100486957621     2.063423655666     2.184286576977
O                     0.355123454642     1.423714184693     3.524676819709
F                     2.990366473677    -3.032688230741     2.713808991108
F                     1.245122861087    -1.347133563803     3.875791905150
S                    -2.014007621913    -0.085779424762     0.741971839787
H                     2.440703326194    -0.779034628440    -1.167672209361
H                     0.818710250738     0.769692279958    -0.107233639452
H                     3.483633104985    -2.614067887114     0.193083021441
H                    -4.042036201489     2.745540753289     1.665854473614
H                    -4.289713604947     0.606343567231     0.092263009783
