37
0 1 C13H14N4O4S2
C                     0.517760381687    -4.464930476609     0.347334357692
C                     0.322667841538    -3.256411252985    -0.318041610318
C                     1.509538309055    -4.518072801651     1.331079105122
C                    -0.714100668780    -1.873373782744    -3.931742039180
C                     1.131491342155    -2.160873279460    -0.010615024966
C                    -0.436019653271    -0.912361953816    -3.015115874857
C                     2.102602618693    -2.317568102065     1.003573684277
C                    -1.442135044484     0.062297249540    -2.613994294439
C                    -2.976471592484    -1.082886685236    -4.212801301073
C                     1.214137064144     0.305507804661     0.121547089235
C                     2.678581838823     0.393368028301     0.531254432309
C                    -2.236287943035    -3.014454980147    -5.515326728880
C                    -3.780118014863     0.823805158339    -2.954075870993
N                     2.271551105830    -3.471643187666     1.660503338408
N                    -1.936668695372    -1.976897815865    -4.519447376498
N                    -2.683485401236    -0.103516905103    -3.271886670087
N                     0.946958580872    -0.909815420784    -0.667296045185
O                    -1.271390730981     0.944421636531    -1.781666731831
O                    -4.070009260277    -1.181845157302    -4.750973709391
O                     1.879664800178    -2.051787615023    -2.781706142061
O                     1.767917818880     0.491981487410    -2.629359748517
S                     3.185807895068    -1.031760991042     1.572673066199
S                     1.210089160114    -0.826565568924    -2.338858314153
H                    -0.088594382934    -5.337217517462     0.123370808531
H                    -0.450118421152    -3.151314732741    -1.073853328618
H                     1.699036789906    -5.437760721814     1.881868003036
H                     0.039642511680    -2.599715876188    -4.219021456386
H                     0.557990422948     0.263823314545     0.995140573370
H                     0.926489223181     1.168920374356    -0.475663117470
H                     3.311111872618     0.452384670182    -0.356374133229
H                     2.849769782748     1.284114553590     1.142381851485
H                    -3.072831862656    -3.627091332264    -5.174885475868
H                    -1.349430039436    -3.634830125628    -5.644802718392
H                    -2.507684196223    -2.551762736958    -6.465874099634
H                    -4.097913917618     1.340371647445    -3.861569002880
H                    -3.407333773533     1.534099418400    -2.220099322056
H                    -4.628715347776     0.266879207101    -2.552049863221
