
  -OEChem-05262117483D

 20 21  0     0  0  0  0  0  0999 V2000
    1.8123   -1.1853   -0.1328 C   0  0  0  0  0  0  0  0  0  0  0  0
    0.8382   -0.4299    0.5314 C   0  0  0  0  0  0  0  0  0  0  0  0
    2.8324   -1.7932    0.5968 C   0  0  0  0  0  0  0  0  0  0  0  0
    0.8797   -0.2915    1.9210 C   0  0  0  0  0  0  0  0  0  0  0  0
    5.5478    0.1505    4.9278 C   0  0  0  0  0  0  0  0  0  0  0  0
    6.2759   -0.8568    5.5202 C   0  0  0  0  0  0  0  0  0  0  0  0
    2.9150   -1.6394    1.9907 C   0  0  0  0  0  0  0  0  0  0  0  0
    1.9151   -0.8955    2.6260 C   0  0  0  0  0  0  0  0  0  0  0  0
    4.7750   -1.5451    3.7454 C   0  0  0  0  0  0  0  0  0  0  0  0
    4.0421   -2.3102    2.7073 C   0  0  0  0  0  0  0  0  0  0  0  0
    4.7038   -0.2486    3.9288 N   0  0  0  0  0  0  0  0  0  0  0  0
    4.4042   -3.4448    2.4085 O   0  0  0  0  0  0  0  0  0  0  0  0
    1.8997   -0.8039    3.9758 F   0  0  0  0  0  0  0  0  0  0  0  0
    5.9085   -2.3747    4.7940 S   0  0  0  0  0  0  0  0  0  0  0  0
    1.7729   -1.3007   -1.2120 H   0  0  0  0  0  0  0  0  0  0  0  0
    0.0370    0.0435   -0.0294 H   0  0  0  0  0  0  0  0  0  0  0  0
    3.5907   -2.3920    0.1012 H   0  0  0  0  0  0  0  0  0  0  0  0
    0.1215    0.2635    2.4647 H   0  0  0  0  0  0  0  0  0  0  0  0
    5.6026    1.1998    5.1970 H   0  0  0  0  0  0  0  0  0  0  0  0
    6.9909   -0.7752    6.3291 H   0  0  0  0  0  0  0  0  0  0  0  0
  1  2  1  0  0  0  0
  1  3  2  0  0  0  0
  1 15  1  0  0  0  0
  2  4  2  0  0  0  0
  2 16  1  0  0  0  0
  3  7  1  0  0  0  0
  3 17  1  0  0  0  0
  4  8  1  0  0  0  0
  4 18  1  0  0  0  0
  5  6  2  0  0  0  0
  5 11  1  0  0  0  0
  5 19  1  0  0  0  0
  6 14  1  0  0  0  0
  6 20  1  0  0  0  0
  7  8  2  0  0  0  0
  7 10  1  0  0  0  0
  8 13  1  0  0  0  0
  9 10  1  0  0  0  0
  9 11  2  0  0  0  0
  9 14  1  0  0  0  0
 10 12  2  0  0  0  0
M  END
$$$$
