35
0 1 C11H18N4O2
C                    -1.972146915785     1.218938897530     2.990376326956
C                    -3.197579685541     0.620673474425     2.640018330059
C                    -0.782095955646    -1.951781768962     0.215866767414
C                    -0.394527466153     0.137372911610    -2.299645864793
C                     0.273040454407    -1.169832580615    -1.823228955553
C                     1.069708008355    -0.244464985575     0.284220254334
C                     0.929166764615     1.166185650032    -0.372712881783
C                    -0.357261542244     1.248575229084    -1.230640122222
C                     2.201893287045     1.557997182945    -1.139815760063
C                    -0.544657305699     2.626404531925    -1.875461619679
C                    -0.926992692963    -1.900332107188     1.752221793091
N                    -0.985257098855     0.351635203138     2.721552187227
N                    -2.951851315835    -0.605306930243     2.163059919071
N                    -1.626889636854    -0.715258085175     2.234050878128
N                     0.239825159791    -1.256536340378    -0.365227389674
O                    -1.552420734666    -2.667727038371    -0.421751368764
O                    -1.496543240791     0.984248370673    -0.382035793586
H                    -1.759651070704     2.185411570684     3.427700603139
H                    -4.208891967387     0.996649469268     2.712995471107
H                     0.092829959663     0.483011494472    -3.216642061572
H                    -1.447075305337    -0.041703609289    -2.533120236585
H                    -0.228730462143    -2.043860773245    -2.234767077148
H                     1.325259748628    -1.202632571664    -2.128516193861
H                     2.117076742552    -0.566903592837     0.213434621328
H                     0.817817290654    -0.175640594438     1.337547883764
H                     0.808008668256     1.889466024679     0.444752527193
H                     2.358098816526     0.926552629194    -2.021021892299
H                     3.081203805969     1.447142733097    -0.496489817948
H                     2.171373499430     2.598415470819    -1.473438559424
H                    -0.525866249407     3.418159834370    -1.116093624143
H                    -1.518138004948     2.657365896756    -2.373517749252
H                     0.227592011459     2.849357675412    -2.616695913437
H                     0.028906061711    -1.944988641732     2.274151625521
H                    -1.531905661355    -2.764676780205     2.021224291999
H                    -1.472355677639     1.603722470242     0.365928639438
