26
0 1 C10H14OS
C                     0.806890416266    -0.915552093339    -0.496170993970
C                    -0.198417048348    -0.238861327003     0.201202647769
C                     1.773563361827    -1.623958180319     1.584315885602
C                     1.806762770543    -1.620515485681     0.183583195113
C                    -0.221928248941    -0.246158723073     1.598408541485
C                     0.780575179720    -0.946685615391     2.300183461213
C                     2.878796703243    -2.383007066121    -0.561748094446
C                    -0.114301287943     3.076470077690     2.890118248578
C                    -0.902179129045     2.714322467631     1.626771090575
C                    -1.850291871873     1.533784108159     1.833226144958
O                    -1.193393963082     0.366586120956     2.356281875989
S                     0.838019964198    -0.983320738898     4.079366055297
H                     0.805700672435    -0.890609579519    -1.583296870215
H                    -0.963888023487     0.294360506798    -0.352813051065
H                     2.543538476421    -2.161532856519     2.134470744549
H                     3.848915915388    -2.302349658708    -0.061181913317
H                     2.632048185710    -3.449689191560    -0.626798229671
H                     2.995047104315    -2.009234792730    -1.583182218680
H                    -0.786932132634     3.304044451673     3.725414082580
H                     0.535550033609     2.252704459472     3.198699308100
H                     0.515694960699     3.954669631394     2.717128122868
H                    -0.209022976758     2.496314643931     0.807580193469
H                    -1.513191547430     3.565773282818     1.300253458371
H                    -2.596795892215     1.773691348628     2.595462000512
H                    -2.388515890844     1.285461605931     0.910535662718
H                    -0.297119134057    -0.284692544995     4.269212390788
