
  -OEChem-05262117483D

 26 26  0     0  0  0  0  0  0999 V2000
    0.8069   -0.9156   -0.4962 C   0  0  0  0  0  0  0  0  0  0  0  0
   -0.1984   -0.2389    0.2012 C   0  0  0  0  0  0  0  0  0  0  0  0
    1.7736   -1.6240    1.5843 C   0  0  0  0  0  0  0  0  0  0  0  0
    1.8068   -1.6205    0.1836 C   0  0  0  0  0  0  0  0  0  0  0  0
   -0.2219   -0.2462    1.5984 C   0  0  0  0  0  0  0  0  0  0  0  0
    0.7806   -0.9467    2.3002 C   0  0  0  0  0  0  0  0  0  0  0  0
    2.8788   -2.3830   -0.5617 C   0  0  0  0  0  0  0  0  0  0  0  0
   -0.1143    3.0765    2.8901 C   0  0  0  0  0  0  0  0  0  0  0  0
   -0.9022    2.7143    1.6268 C   0  0  0  0  0  0  0  0  0  0  0  0
   -1.8503    1.5338    1.8332 C   0  0  0  0  0  0  0  0  0  0  0  0
   -1.1934    0.3666    2.3563 O   0  0  0  0  0  0  0  0  0  0  0  0
    0.8380   -0.9833    4.0794 S   0  0  0  0  0  0  0  0  0  0  0  0
    0.8057   -0.8906   -1.5833 H   0  0  0  0  0  0  0  0  0  0  0  0
   -0.9639    0.2944   -0.3528 H   0  0  0  0  0  0  0  0  0  0  0  0
    2.5435   -2.1615    2.1345 H   0  0  0  0  0  0  0  0  0  0  0  0
    3.8489   -2.3023   -0.0612 H   0  0  0  0  0  0  0  0  0  0  0  0
    2.6320   -3.4497   -0.6268 H   0  0  0  0  0  0  0  0  0  0  0  0
    2.9950   -2.0092   -1.5832 H   0  0  0  0  0  0  0  0  0  0  0  0
   -0.7869    3.3040    3.7254 H   0  0  0  0  0  0  0  0  0  0  0  0
    0.5356    2.2527    3.1987 H   0  0  0  0  0  0  0  0  0  0  0  0
    0.5157    3.9547    2.7171 H   0  0  0  0  0  0  0  0  0  0  0  0
   -0.2090    2.4963    0.8076 H   0  0  0  0  0  0  0  0  0  0  0  0
   -1.5132    3.5658    1.3003 H   0  0  0  0  0  0  0  0  0  0  0  0
   -2.5968    1.7737    2.5955 H   0  0  0  0  0  0  0  0  0  0  0  0
   -2.3885    1.2855    0.9105 H   0  0  0  0  0  0  0  0  0  0  0  0
   -0.2971   -0.2847    4.2692 H   0  0  0  0  0  0  0  0  0  0  0  0
  1  2  1  0  0  0  0
  1  4  2  0  0  0  0
  1 13  1  0  0  0  0
  2  5  2  0  0  0  0
  2 14  1  0  0  0  0
  3  4  1  0  0  0  0
  3  6  2  0  0  0  0
  3 15  1  0  0  0  0
  4  7  1  0  0  0  0
  5  6  1  0  0  0  0
  5 11  1  0  0  0  0
  6 12  1  0  0  0  0
  7 16  1  0  0  0  0
  7 17  1  0  0  0  0
  7 18  1  0  0  0  0
  8  9  1  0  0  0  0
  8 19  1  0  0  0  0
  8 20  1  0  0  0  0
  8 21  1  0  0  0  0
  9 10  1  0  0  0  0
  9 22  1  0  0  0  0
  9 23  1  0  0  0  0
 10 11  1  0  0  0  0
 10 24  1  0  0  0  0
 10 25  1  0  0  0  0
 12 26  1  0  0  0  0
M  END
$$$$
