
  -OEChem-05262117483D

 35 36  0     1  0  0  0  0  0999 V2000
   -2.6030   -2.6726   -3.9177 C   0  0  0  0  0  0  0  0  0  0  0  0
   -2.9425   -1.3253   -4.1455 C   0  0  0  0  0  0  0  0  0  0  0  0
    0.7393   -1.6140   -1.5375 C   0  0  0  0  0  0  0  0  0  0  0  0
    0.3902   -0.5322    1.8350 C   0  0  0  0  0  0  0  0  0  0  0  0
    0.4404   -1.7358    0.8695 C   0  0  0  0  0  0  0  0  0  0  0  0
   -1.1206   -0.3630   -0.4180 C   0  0  0  0  0  0  0  0  0  0  0  0
   -0.6364    1.0063    0.1188 C   0  0  2  0  0  0  0  0  0  0  0  0
    0.5520    0.8105    1.0999 C   0  0  1  0  0  0  0  0  0  0  0  0
   -1.8395    1.7608    0.6951 C   0  0  0  0  0  0  0  0  0  0  0  0
    0.7169    1.9634    2.0938 C   0  0  0  0  0  0  0  0  0  0  0  0
    0.3265   -1.0323   -2.8994 C   0  0  0  0  0  0  0  0  0  0  0  0
   -1.3603   -2.7215   -3.4216 N   0  0  0  0  0  0  0  0  0  0  0  0
   -1.9045   -0.5586   -3.7860 N   0  0  0  0  0  0  0  0  0  0  0  0
   -0.9927   -1.4421   -3.3625 N   0  0  0  0  0  0  0  0  0  0  0  0
   -0.0583   -1.3619   -0.4582 N   0  0  0  0  0  0  0  0  0  0  0  0
    1.7794   -2.2682   -1.4736 O   0  0  0  0  0  0  0  0  0  0  0  0
    1.7134    0.7727    0.2388 O   0  0  0  0  0  0  0  0  0  0  0  0
   -3.1726   -3.5774   -4.0816 H   0  0  0  0  0  0  0  0  0  0  0  0
   -3.8502   -0.8854   -4.5355 H   0  0  0  0  0  0  0  0  0  0  0  0
   -0.5591   -0.5115    2.3826 H   0  0  0  0  0  0  0  0  0  0  0  0
    1.1748   -0.6461    2.5928 H   0  0  0  0  0  0  0  0  0  0  0  0
    1.4590   -2.0968    0.7366 H   0  0  0  0  0  0  0  0  0  0  0  0
   -0.1574   -2.5656    1.2670 H   0  0  0  0  0  0  0  0  0  0  0  0
   -1.9035   -0.7545    0.2445 H   0  0  0  0  0  0  0  0  0  0  0  0
   -1.5854   -0.2404   -1.3929 H   0  0  0  0  0  0  0  0  0  0  0  0
   -0.2298    1.5876   -0.7160 H   0  0  0  0  0  0  0  0  0  0  0  0
   -2.2292    1.2709    1.5955 H   0  0  0  0  0  0  0  0  0  0  0  0
   -2.6516    1.7852   -0.0400 H   0  0  0  0  0  0  0  0  0  0  0  0
   -1.5960    2.7950    0.9497 H   0  0  0  0  0  0  0  0  0  0  0  0
    0.8072    2.9157    1.5630 H   0  0  0  0  0  0  0  0  0  0  0  0
    1.6311    1.8181    2.6809 H   0  0  0  0  0  0  0  0  0  0  0  0
   -0.1203    2.0297    2.7948 H   0  0  0  0  0  0  0  0  0  0  0  0
    1.0797   -1.3740   -3.6100 H   0  0  0  0  0  0  0  0  0  0  0  0
    0.3235    0.0583   -2.8757 H   0  0  0  0  0  0  0  0  0  0  0  0
    2.4790    0.4850    0.7621 H   0  0  0  0  0  0  0  0  0  0  0  0
  1  2  1  0  0  0  0
  1 12  2  0  0  0  0
  1 18  1  0  0  0  0
  2 13  2  0  0  0  0
  2 19  1  0  0  0  0
  3 11  1  0  0  0  0
  3 15  1  0  0  0  0
  3 16  2  0  0  0  0
  4  5  1  0  0  0  0
  4  8  1  0  0  0  0
  4 20  1  0  0  0  0
  4 21  1  0  0  0  0
  5 15  1  0  0  0  0
  5 22  1  0  0  0  0
  5 23  1  0  0  0  0
  6  7  1  0  0  0  0
  6 15  1  0  0  0  0
  6 24  1  0  0  0  0
  6 25  1  0  0  0  0
  7  8  1  0  0  0  0
  7  9  1  0  0  0  0
  7 26  1  0  0  0  0
  8 10  1  0  0  0  0
  8 17  1  0  0  0  0
  9 27  1  0  0  0  0
  9 28  1  0  0  0  0
  9 29  1  0  0  0  0
 10 30  1  0  0  0  0
 10 31  1  0  0  0  0
 10 32  1  0  0  0  0
 11 14  1  0  0  0  0
 11 33  1  0  0  0  0
 11 34  1  0  0  0  0
 12 14  1  0  0  0  0
 13 14  1  0  0  0  0
 17 35  1  0  0  0  0
M  END
$$$$
