35
0 1 C11H18N4O2
C                     4.793557657888    -5.519302521932    -1.316308509730
C                     5.133353124199    -4.439333576958    -2.155680230654
C                     1.617691515621    -2.904646295595    -0.383347809104
C                     0.765121649387     0.224862441322     0.897415586922
C                     0.999069486613    -1.214021200794     1.375510109630
C                    -0.661152202517    -2.034507073912    -0.228730673814
C                    -0.944115449305    -0.614692173829    -0.745947262415
C                    -0.655406036523     0.448617907420     0.339032794948
C                    -2.356156609160    -0.528961168782    -1.334155090537
C                    -1.699666547829     0.464206166271     1.464550954086
C                     3.056238749200    -2.891514853072     0.178327280054
N                     4.014985614998    -5.063529905786    -0.328860484928
N                     4.560764633506    -3.329846381033    -1.675996345361
N                     3.918364762093    -3.757495964279    -0.586792067412
N                     0.696664660696    -2.158338806377     0.303183600143
O                     1.343649005956    -3.569125932662    -1.376427173737
O                    -0.689240722480     1.712387036622    -0.353983125379
H                     5.068678254993    -6.563788171683    -1.371858289450
H                     5.746443198148    -4.409474736971    -3.046156055341
H                     0.953607941237     0.920704220871     1.725633744525
H                     1.479216274963     0.458684381997     0.100117079111
H                     2.025779904521    -1.334289046456     1.718167525050
H                     0.355343359524    -1.443071026676     2.234482697315
H                    -1.373039254231    -2.305778584156     0.562140056006
H                    -0.767629938782    -2.758067293342    -1.036004351967
H                    -0.226730706756    -0.414440267004    -1.551143322046
H                    -3.117266290941    -0.853999798309    -0.616310630578
H                    -2.437408065618    -1.175429116461    -2.214069157236
H                    -2.585953485094     0.494407272786    -1.640186754178
H                    -2.680947964760     0.736808160316     1.070365770336
H                    -1.424101807000     1.203434693188     2.226754863211
H                    -1.790513870988    -0.503019457261     1.967361444558
H                     3.072260610565    -3.238653584533     1.213165881085
H                     3.480255366849    -1.886576230265     0.132129072375
H                    -0.560201780427     2.418241690389     0.300250063941
