20
0 1 C8ClF3H6O2
C                     1.725308459293    -0.706115289419    -0.012474670103
C                     0.722889873615    -0.200854200451     0.817631115528
C                     2.745447311177    -1.787021581861     1.911888300282
C                     1.746029837631    -1.292809406129     2.758484306152
C                     2.721471752291    -1.497606257264     0.550861247022
C                     0.744057782267    -0.499290096744     2.179883923128
C                     1.777105017896    -1.601015898146     4.243075280582
C                     3.606172920083    -3.166519639744    -0.858643079619
O                     2.146512320148    -0.476645032243     5.042177144951
O                     3.775287346610    -1.958319499395    -0.263841010231
F                     3.438627906161    -4.168633255304     0.036101570001
F                     4.700725502140    -3.423187070789    -1.581846236727
F                     2.531860472025    -3.195450107109    -1.682490815557
Cl                   -0.539455747723     0.162963831558     3.193281321937
H                     1.735805901083    -0.488631742749    -1.075344608208
H                    -0.067623539876     0.420404612762     0.409651795343
H                     3.549310585085    -2.396526326746     2.313537343376
H                     0.806569126323    -2.004794858346     4.558591673126
H                     2.535588398472    -2.361716647654     4.436779344398
H                     1.411220892844     0.157225322758     5.025982925277
