23
0 1 C9F2H10OS
C                     2.287372530743    -1.107450583345    -0.189464195460
C                     3.224466168887    -1.773736884327     1.948262989224
C                     1.242402932558    -0.425198487323     0.449424325863
C                     2.190086936009    -1.089469829657     2.572441871079
C                     1.196518521673    -0.430159867639     1.851556642449
C                     3.265335858393    -1.783746059595     0.546299490753
C                    -1.453346309288     3.458647304469    -0.880150503077
C                    -0.806545943069     2.105785074563    -1.199283647227
C                    -0.238878430011     1.448407699469     0.048986632906
O                     0.310291878860     0.167423080910    -0.345867806554
F                     2.119505655366    -1.072177382058     3.920836400674
F                     0.189646565802     0.172305761990     2.527439635647
S                     4.531067298403    -2.641878144533    -0.369578977922
H                     2.309183479666    -1.085364853864    -1.274737829756
H                     3.960426206304    -2.282433746295     2.562302803972
H                    -2.276483169728     3.349475611693    -0.165163335467
H                    -0.727694151800     4.157553459286    -0.448838981783
H                    -1.858964705348     3.918888038978    -1.786206035111
H                    -0.002358214738     2.230890806454    -1.932844580383
H                    -1.543710477778     1.429651632374    -1.646664295995
H                     0.556645344439     2.061252880788     0.489853581177
H                    -1.017270642609     1.298942300121     0.802430934077
H                     5.309498357900    -2.954592956504     0.685290128847
