
  -OEChem-05262117483D

 35 36  0     1  0  0  0  0  0999 V2000
    4.7936   -5.5193   -1.3163 C   0  0  0  0  0  0  0  0  0  0  0  0
    5.1334   -4.4393   -2.1557 C   0  0  0  0  0  0  0  0  0  0  0  0
    1.6177   -2.9046   -0.3833 C   0  0  0  0  0  0  0  0  0  0  0  0
    0.7651    0.2249    0.8974 C   0  0  0  0  0  0  0  0  0  0  0  0
    0.9991   -1.2140    1.3755 C   0  0  0  0  0  0  0  0  0  0  0  0
   -0.6612   -2.0345   -0.2287 C   0  0  0  0  0  0  0  0  0  0  0  0
   -0.9441   -0.6147   -0.7459 C   0  0  2  0  0  0  0  0  0  0  0  0
   -0.6554    0.4486    0.3390 C   0  0  1  0  0  0  0  0  0  0  0  0
   -2.3562   -0.5290   -1.3342 C   0  0  0  0  0  0  0  0  0  0  0  0
   -1.6997    0.4642    1.4646 C   0  0  0  0  0  0  0  0  0  0  0  0
    3.0562   -2.8915    0.1783 C   0  0  0  0  0  0  0  0  0  0  0  0
    4.0150   -5.0635   -0.3289 N   0  0  0  0  0  0  0  0  0  0  0  0
    4.5608   -3.3298   -1.6760 N   0  0  0  0  0  0  0  0  0  0  0  0
    3.9184   -3.7575   -0.5868 N   0  0  0  0  0  0  0  0  0  0  0  0
    0.6967   -2.1583    0.3032 N   0  0  0  0  0  0  0  0  0  0  0  0
    1.3436   -3.5691   -1.3764 O   0  0  0  0  0  0  0  0  0  0  0  0
   -0.6892    1.7124   -0.3540 O   0  0  0  0  0  0  0  0  0  0  0  0
    5.0687   -6.5638   -1.3719 H   0  0  0  0  0  0  0  0  0  0  0  0
    5.7464   -4.4095   -3.0462 H   0  0  0  0  0  0  0  0  0  0  0  0
    0.9536    0.9207    1.7256 H   0  0  0  0  0  0  0  0  0  0  0  0
    1.4792    0.4587    0.1001 H   0  0  0  0  0  0  0  0  0  0  0  0
    2.0258   -1.3343    1.7182 H   0  0  0  0  0  0  0  0  0  0  0  0
    0.3553   -1.4431    2.2345 H   0  0  0  0  0  0  0  0  0  0  0  0
   -1.3730   -2.3058    0.5621 H   0  0  0  0  0  0  0  0  0  0  0  0
   -0.7676   -2.7581   -1.0360 H   0  0  0  0  0  0  0  0  0  0  0  0
   -0.2267   -0.4144   -1.5511 H   0  0  0  0  0  0  0  0  0  0  0  0
   -3.1173   -0.8540   -0.6163 H   0  0  0  0  0  0  0  0  0  0  0  0
   -2.4374   -1.1754   -2.2141 H   0  0  0  0  0  0  0  0  0  0  0  0
   -2.5860    0.4944   -1.6402 H   0  0  0  0  0  0  0  0  0  0  0  0
   -2.6809    0.7368    1.0704 H   0  0  0  0  0  0  0  0  0  0  0  0
   -1.4241    1.2034    2.2268 H   0  0  0  0  0  0  0  0  0  0  0  0
   -1.7905   -0.5030    1.9674 H   0  0  0  0  0  0  0  0  0  0  0  0
    3.0723   -3.2387    1.2132 H   0  0  0  0  0  0  0  0  0  0  0  0
    3.4803   -1.8866    0.1321 H   0  0  0  0  0  0  0  0  0  0  0  0
   -0.5602    2.4182    0.3003 H   0  0  0  0  0  0  0  0  0  0  0  0
  1  2  1  0  0  0  0
  1 12  2  0  0  0  0
  1 18  1  0  0  0  0
  2 13  2  0  0  0  0
  2 19  1  0  0  0  0
  3 11  1  0  0  0  0
  3 15  1  0  0  0  0
  3 16  2  0  0  0  0
  4  5  1  0  0  0  0
  4  8  1  0  0  0  0
  4 20  1  0  0  0  0
  4 21  1  0  0  0  0
  5 15  1  0  0  0  0
  5 22  1  0  0  0  0
  5 23  1  0  0  0  0
  6  7  1  0  0  0  0
  6 15  1  0  0  0  0
  6 24  1  0  0  0  0
  6 25  1  0  0  0  0
  7  8  1  0  0  0  0
  7  9  1  0  0  0  0
  7 26  1  0  0  0  0
  8 10  1  0  0  0  0
  8 17  1  0  0  0  0
  9 27  1  0  0  0  0
  9 28  1  0  0  0  0
  9 29  1  0  0  0  0
 10 30  1  0  0  0  0
 10 31  1  0  0  0  0
 10 32  1  0  0  0  0
 11 14  1  0  0  0  0
 11 33  1  0  0  0  0
 11 34  1  0  0  0  0
 12 14  1  0  0  0  0
 13 14  1  0  0  0  0
 17 35  1  0  0  0  0
M  END
$$$$
