
  -OEChem-05262117483D

 29 30  0     1  0  0  0  0  0999 V2000
    1.7515   -1.0511   -0.1309 C   0  0  0  0  0  0  0  0  0  0  0  0
    6.1277   -3.5015    3.7553 C   0  0  0  0  0  0  0  0  0  0  0  0
    2.8124   -0.4742    0.5734 C   0  0  0  0  0  0  0  0  0  0  0  0
    0.6773   -1.6084    0.5725 C   0  0  0  0  0  0  0  0  0  0  0  0
    5.0926   -3.7613    2.8501 C   0  0  0  0  0  0  0  0  0  0  0  0
    5.8429   -2.8587    4.9649 C   0  0  0  0  0  0  0  0  0  0  0  0
    2.8020   -0.4558    1.9713 C   0  0  0  0  0  0  0  0  0  0  0  0
    0.6728   -1.5869    1.9690 C   0  0  0  0  0  0  0  0  0  0  0  0
    3.7817   -3.3758    3.1431 C   0  0  0  0  0  0  0  0  0  0  0  0
    4.5338   -2.4683    5.2643 C   0  0  0  0  0  0  0  0  0  0  0  0
    1.7328   -1.0123    2.6858 C   0  0  0  0  0  0  0  0  0  0  0  0
    3.5039   -2.7212    4.3500 C   0  0  0  0  0  0  0  0  0  0  0  0
    2.4198    0.0672    4.9112 C   0  0  0  0  0  0  0  0  0  0  0  0
    1.7150   -1.0855    4.2012 C   0  0  2  0  0  0  0  0  0  0  0  0
    2.2020   -2.3811    4.6743 O   0  0  0  0  0  0  0  0  0  0  0  0
    1.7601   -1.0658   -1.2178 H   0  0  0  0  0  0  0  0  0  0  0  0
    7.1453   -3.8049    3.5241 H   0  0  0  0  0  0  0  0  0  0  0  0
    3.6528   -0.0436    0.0349 H   0  0  0  0  0  0  0  0  0  0  0  0
   -0.1533   -2.0576    0.0337 H   0  0  0  0  0  0  0  0  0  0  0  0
    5.3044   -4.2682    1.9120 H   0  0  0  0  0  0  0  0  0  0  0  0
    6.6387   -2.6647    5.6798 H   0  0  0  0  0  0  0  0  0  0  0  0
    3.6426   -0.0184    2.5006 H   0  0  0  0  0  0  0  0  0  0  0  0
   -0.1573   -2.0321    2.5136 H   0  0  0  0  0  0  0  0  0  0  0  0
    2.9717   -3.5758    2.4494 H   0  0  0  0  0  0  0  0  0  0  0  0
    4.2959   -1.9821    6.2059 H   0  0  0  0  0  0  0  0  0  0  0  0
    3.4893    0.0977    4.6899 H   0  0  0  0  0  0  0  0  0  0  0  0
    2.3014   -0.0392    5.9932 H   0  0  0  0  0  0  0  0  0  0  0  0
    1.9801    1.0209    4.6025 H   0  0  0  0  0  0  0  0  0  0  0  0
    0.6722   -1.1079    4.5278 H   0  0  0  0  0  0  0  0  0  0  0  0
  1  3  1  0  0  0  0
  1  4  2  0  0  0  0
  1 16  1  0  0  0  0
  2  5  1  0  0  0  0
  2  6  2  0  0  0  0
  2 17  1  0  0  0  0
  3  7  2  0  0  0  0
  3 18  1  0  0  0  0
  4  8  1  0  0  0  0
  4 19  1  0  0  0  0
  5  9  2  0  0  0  0
  5 20  1  0  0  0  0
  6 10  1  0  0  0  0
  6 21  1  0  0  0  0
  7 11  1  0  0  0  0
  7 22  1  0  0  0  0
  8 11  2  0  0  0  0
  8 23  1  0  0  0  0
  9 12  1  0  0  0  0
  9 24  1  0  0  0  0
 10 12  2  0  0  0  0
 10 25  1  0  0  0  0
 11 14  1  0  0  0  0
 12 15  1  0  0  0  0
 13 14  1  0  0  0  0
 13 26  1  0  0  0  0
 13 27  1  0  0  0  0
 13 28  1  0  0  0  0
 14 15  1  0  0  0  0
 14 29  1  0  0  0  0
M  END
$$$$
