
  -OEChem-05262117483D

 14 14  0     0  0  0  0  0  0999 V2000
   -1.0663   -0.0451   -0.9318 C   0  0  0  0  0  0  0  0  0  0  0  0
    0.3156    0.4678   -1.3290 C   0  0  0  0  0  0  0  0  0  0  0  0
    0.0680   -0.0302    0.0606 C   0  0  0  0  0  0  0  0  0  0  0  0
    0.6990   -1.3209    0.5455 C   0  0  0  0  0  0  0  0  0  0  0  0
    0.0673    0.9657    1.0669 O   0  0  0  0  0  0  0  0  0  0  0  0
    0.6671   -2.2912   -0.5046 O   0  0  0  0  0  0  0  0  0  0  0  0
   -1.8508    0.6937   -0.7939 H   0  0  0  0  0  0  0  0  0  0  0  0
   -1.3807   -1.0039   -1.3311 H   0  0  0  0  0  0  0  0  0  0  0  0
    0.9100   -0.1547   -1.9895 H   0  0  0  0  0  0  0  0  0  0  0  0
    0.4413    1.5404   -1.4378 H   0  0  0  0  0  0  0  0  0  0  0  0
    0.1426   -1.6829    1.4254 H   0  0  0  0  0  0  0  0  0  0  0  0
    1.7301   -1.1048    0.8590 H   0  0  0  0  0  0  0  0  0  0  0  0
   -0.6719    0.7779    1.6678 H   0  0  0  0  0  0  0  0  0  0  0  0
    1.1744   -3.0644   -0.2170 H   0  0  0  0  0  0  0  0  0  0  0  0
  1  2  1  0  0  0  0
  1  3  1  0  0  0  0
  1  7  1  0  0  0  0
  1  8  1  0  0  0  0
  2  3  1  0  0  0  0
  2  9  1  0  0  0  0
  2 10  1  0  0  0  0
  3  4  1  0  0  0  0
  3  5  1  0  0  0  0
  4  6  1  0  0  0  0
  4 11  1  0  0  0  0
  4 12  1  0  0  0  0
  5 13  1  0  0  0  0
  6 14  1  0  0  0  0
M  END
$$$$
