31
0 1 C14H14O2S
C                     4.629945949379     2.340218061455     5.971850168111
C                     4.864071166806     1.069683232278     6.507718560022
C                     3.515134405199     2.568133664779     5.154979305607
C                     1.471706842877    -1.134864471157     0.503574500654
C                     2.659008790908    -1.460303851878     1.155754879280
C                     0.343961276316    -0.799084835446     1.246471548584
C                     3.988700769099     0.016756772092     6.224192088761
C                     2.628886452420     1.526267685642     4.875330232188
C                     2.745151278862    -1.454528835142     2.553292106723
C                     0.364103538989    -0.770952404358     2.650563249628
C                     2.883347828342     0.261645263480     5.410153234519
C                     1.585700535983    -1.098332240868     3.285988697698
C                     4.075167161133    -1.818863767451     3.176397473229
C                    -0.932009335254    -0.402116158401     3.344812390985
O                     2.344617444989    -2.330314594626     5.558890824698
O                     0.430171673582    -0.672538471516     5.685423588774
S                     1.716042000115    -1.079771942882     5.102770475623
H                     5.316152808951     3.154488811735     6.188896381568
H                     5.729188068127     0.895389954769     7.141604843258
H                     3.335005075655     3.556058409454     4.740184246450
H                     1.424487450184    -1.147622997208    -0.582316159562
H                     3.538998995624    -1.728711063466     0.577401452676
H                    -0.582993247095    -0.554265105345     0.735162175769
H                     4.154648789701    -0.982727398951     6.614352133684
H                     1.759149326040     1.694127353626     4.246512641114
H                     4.517474021762    -0.967566757621     3.702555685578
H                     3.973037615798    -2.628183001278     3.900448631526
H                     4.774923465597    -2.125352989459     2.395823918084
H                    -1.287406813731    -1.203016495022     3.995312086915
H                    -0.825597672055     0.479739750532     3.979414502817
H                    -1.695809285181    -0.199374075917     2.590103086401
