
  -OEChem-05262117483D

 23 23  0     1  0  0  0  0  0999 V2000
    0.2894    2.4585   -0.2009 C   0  0  0  0  0  0  0  0  0  0  0  0
    0.9460    1.8651    1.0567 C   0  0  0  0  0  0  0  0  0  0  0  0
   -0.9673    1.6807   -0.6188 C   0  0  0  0  0  0  0  0  0  0  0  0
    1.3345    0.3908    0.8808 C   0  0  0  0  0  0  0  0  0  0  0  0
   -0.7000   -1.1831   -2.9660 C   0  0  0  0  0  0  0  0  0  0  0  0
   -0.0244   -0.0366   -2.2175 C   0  0  0  0  0  0  0  0  0  0  0  0
   -0.7037    0.2571   -0.9309 N   0  0  1  0  0  0  0  0  0  0  0  0
    0.3046   -1.9098   -0.0392 O   0  0  0  0  0  0  0  0  0  0  0  0
   -1.1125   -0.4255    1.4847 O   0  0  0  0  0  0  0  0  0  0  0  0
   -0.1257   -0.5846    0.4130 S   0  0  0  0  0  0  0  0  0  0  0  0
    0.0143    3.5018   -0.0103 H   0  0  0  0  0  0  0  0  0  0  0  0
    1.0103    2.4662   -1.0286 H   0  0  0  0  0  0  0  0  0  0  0  0
    1.8488    2.4301    1.3131 H   0  0  0  0  0  0  0  0  0  0  0  0
    0.2606    1.9489    1.9064 H   0  0  0  0  0  0  0  0  0  0  0  0
   -1.7148    1.7070    0.1781 H   0  0  0  0  0  0  0  0  0  0  0  0
   -1.4254    2.1214   -1.5084 H   0  0  0  0  0  0  0  0  0  0  0  0
    2.0718    0.2437    0.0865 H   0  0  0  0  0  0  0  0  0  0  0  0
    1.7147   -0.0542    1.8040 H   0  0  0  0  0  0  0  0  0  0  0  0
   -0.6333   -2.1062   -2.3875 H   0  0  0  0  0  0  0  0  0  0  0  0
   -1.7561   -0.9543   -3.1381 H   0  0  0  0  0  0  0  0  0  0  0  0
   -0.2123   -1.3392   -3.9350 H   0  0  0  0  0  0  0  0  0  0  0  0
   -0.0732    0.8821   -2.8098 H   0  0  0  0  0  0  0  0  0  0  0  0
    1.0401   -0.2591   -2.0716 H   0  0  0  0  0  0  0  0  0  0  0  0
  1  2  1  0  0  0  0
  1  3  1  0  0  0  0
  1 11  1  0  0  0  0
  1 12  1  0  0  0  0
  2  4  1  0  0  0  0
  2 13  1  0  0  0  0
  2 14  1  0  0  0  0
  3  7  1  0  0  0  0
  3 15  1  0  0  0  0
  3 16  1  0  0  0  0
  4 10  1  0  0  0  0
  4 17  1  0  0  0  0
  4 18  1  0  0  0  0
  5  6  1  0  0  0  0
  5 19  1  0  0  0  0
  5 20  1  0  0  0  0
  5 21  1  0  0  0  0
  6  7  1  0  0  0  0
  6 22  1  0  0  0  0
  6 23  1  0  0  0  0
  7 10  1  0  0  0  0
  8 10  2  0  0  0  0
  9 10  2  0  0  0  0
M  END
$$$$
