22
0 1 C10H10N2
C                     1.983340648948    -1.068446640389    -0.151634253313
C                     2.537353294430    -2.154324182301     0.533476690838
C                     1.437496028342    -0.001319064158     0.569989299237
C                     2.542754939600    -2.170331364290     1.931700292875
C                     1.439974456267    -0.020625248005     1.967419442380
C                     2.627072607570     2.144502214054     5.459707452317
C                     3.068047978961     1.025101761521     4.787521428698
C                     0.989517753292     0.758226417414     5.486179198315
C                     1.990473402112    -1.108011442395     2.658198107296
C                     1.960582065352    -1.170926326408     4.175563360055
N                     1.327818061145     1.967989181024     5.892164250681
N                     2.009864741157     0.134703889929     4.815000056051
H                     1.983034906231    -1.050536500107    -1.238345349876
H                     2.971188075542    -2.984063745551    -0.018579628829
H                     1.011921391274     0.849564610645     0.044306674323
H                     2.983194804821    -3.014353298746     2.459409359583
H                     1.025722613392     0.816949080188     2.522173512760
H                     3.169871300027     3.060155073317     5.657032199526
H                     3.999652890531     0.787725972534     4.293535873107
H                     0.033221761161     0.275741433100     5.649290686191
H                     1.038148043556    -1.656192719060     4.511869712303
H                     2.791450998605    -1.782981403818     4.541254557679
