
  -OEChem-05262117483D

 25 25  0     1  0  0  0  0  0999 V2000
   -3.4469   -2.6833   -1.5700 C   0  0  0  0  0  0  0  0  0  0  0  0
   -2.2449   -3.1097   -2.1485 C   0  0  0  0  0  0  0  0  0  0  0  0
   -3.4143   -1.9301   -0.3934 C   0  0  0  0  0  0  0  0  0  0  0  0
   -1.0244   -2.7838   -1.5542 C   0  0  0  0  0  0  0  0  0  0  0  0
   -2.1877   -1.6072    0.1988 C   0  0  0  0  0  0  0  0  0  0  0  0
   -0.9773   -2.0262   -0.3709 C   0  0  0  0  0  0  0  0  0  0  0  0
    1.1098   -2.9042    0.8395 C   0  0  0  0  0  0  0  0  0  0  0  0
    1.2665   -0.8642   -0.6456 C   0  0  0  0  0  0  0  0  0  0  0  0
    0.9295   -5.1847    1.7492 C   0  0  0  0  0  0  0  0  0  0  0  0
    0.3498   -1.6810    0.2787 C   0  0  1  0  0  0  0  0  0  0  0  0
    0.3399   -3.9700    1.2039 N   0  0  0  0  0  0  0  0  0  0  0  0
    2.3289   -2.8855    1.0102 O   0  0  0  0  0  0  0  0  0  0  0  0
   -4.3972   -2.9362   -2.0328 H   0  0  0  0  0  0  0  0  0  0  0  0
   -2.2605   -3.6976   -3.0629 H   0  0  0  0  0  0  0  0  0  0  0  0
   -4.3409   -1.5930    0.0642 H   0  0  0  0  0  0  0  0  0  0  0  0
   -0.0983   -3.1272   -2.0091 H   0  0  0  0  0  0  0  0  0  0  0  0
   -2.1707   -1.0218    1.1158 H   0  0  0  0  0  0  0  0  0  0  0  0
    1.5261   -1.4276   -1.5466 H   0  0  0  0  0  0  0  0  0  0  0  0
    0.7633    0.0576   -0.9521 H   0  0  0  0  0  0  0  0  0  0  0  0
    2.1955   -0.6168   -0.1290 H   0  0  0  0  0  0  0  0  0  0  0  0
    1.3828   -5.8052    0.9667 H   0  0  0  0  0  0  0  0  0  0  0  0
    0.1529   -5.7610    2.2578 H   0  0  0  0  0  0  0  0  0  0  0  0
    1.7093   -4.9181    2.4649 H   0  0  0  0  0  0  0  0  0  0  0  0
    0.1375   -1.0665    1.1629 H   0  0  0  0  0  0  0  0  0  0  0  0
   -0.6309   -3.9793    0.9214 H   0  0  0  0  0  0  0  0  0  0  0  0
  1  2  1  0  0  0  0
  1  3  2  0  0  0  0
  1 13  1  0  0  0  0
  2  4  2  0  0  0  0
  2 14  1  0  0  0  0
  3  5  1  0  0  0  0
  3 15  1  0  0  0  0
  4  6  1  0  0  0  0
  4 16  1  0  0  0  0
  5  6  2  0  0  0  0
  5 17  1  0  0  0  0
  6 10  1  0  0  0  0
  7 10  1  0  0  0  0
  7 11  1  0  0  0  0
  7 12  2  0  0  0  0
  8 10  1  0  0  0  0
  8 18  1  0  0  0  0
  8 19  1  0  0  0  0
  8 20  1  0  0  0  0
  9 11  1  0  0  0  0
  9 21  1  0  0  0  0
  9 22  1  0  0  0  0
  9 23  1  0  0  0  0
 10 24  1  0  0  0  0
 11 25  1  0  0  0  0
M  END
$$$$
