
  -OEChem-05262117483D

 26 27  0     1  0  0  0  0  0999 V2000
   -6.3860   -1.0677    0.3495 C   0  0  0  0  0  0  0  0  0  0  0  0
   -5.8160   -0.5500   -0.8168 C   0  0  0  0  0  0  0  0  0  0  0  0
   -5.7252   -2.0883    1.0419 C   0  0  0  0  0  0  0  0  0  0  0  0
   -4.5933   -1.0419   -1.2851 C   0  0  0  0  0  0  0  0  0  0  0  0
   -4.5050   -2.5777    0.5702 C   0  0  0  0  0  0  0  0  0  0  0  0
   -3.9205   -2.0597   -0.5955 C   0  0  0  0  0  0  0  0  0  0  0  0
   -2.3536   -2.4334   -2.5372 C   0  0  0  0  0  0  0  0  0  0  0  0
   -1.1681   -0.5152   -0.6774 C   0  0  0  0  0  0  0  0  0  0  0  0
   -1.4157   -1.9505   -0.2138 C   0  0  0  0  0  0  0  0  0  0  0  0
   -0.7424   -0.5094   -2.1437 C   0  0  0  0  0  0  0  0  0  0  0  0
   -2.5597   -2.5926   -1.0299 C   0  0  1  0  0  0  0  0  0  0  0  0
   -1.6338   -1.3423   -2.9579 N   0  0  0  0  0  0  0  0  0  0  0  0
   -2.8543   -3.2165   -3.3425 O   0  0  0  0  0  0  0  0  0  0  0  0
   -7.3379   -0.6870    0.7109 H   0  0  0  0  0  0  0  0  0  0  0  0
   -6.3258    0.2360   -1.3685 H   0  0  0  0  0  0  0  0  0  0  0  0
   -6.1631   -2.5075    1.9444 H   0  0  0  0  0  0  0  0  0  0  0  0
   -4.1700   -0.6367   -2.1998 H   0  0  0  0  0  0  0  0  0  0  0  0
   -4.0019   -3.3775    1.1104 H   0  0  0  0  0  0  0  0  0  0  0  0
   -2.0797    0.0775   -0.5493 H   0  0  0  0  0  0  0  0  0  0  0  0
   -0.3831   -0.0405   -0.0799 H   0  0  0  0  0  0  0  0  0  0  0  0
   -0.5002   -2.5422   -0.3463 H   0  0  0  0  0  0  0  0  0  0  0  0
   -1.6657   -1.9783    0.8513 H   0  0  0  0  0  0  0  0  0  0  0  0
   -0.7587    0.5095   -2.5452 H   0  0  0  0  0  0  0  0  0  0  0  0
    0.2903   -0.8788   -2.2283 H   0  0  0  0  0  0  0  0  0  0  0  0
   -2.5593   -3.6730   -0.8609 H   0  0  0  0  0  0  0  0  0  0  0  0
   -1.4874   -1.3354   -3.9625 H   0  0  0  0  0  0  0  0  0  0  0  0
  1  2  1  0  0  0  0
  1  3  2  0  0  0  0
  1 14  1  0  0  0  0
  2  4  2  0  0  0  0
  2 15  1  0  0  0  0
  3  5  1  0  0  0  0
  3 16  1  0  0  0  0
  4  6  1  0  0  0  0
  4 17  1  0  0  0  0
  5  6  2  0  0  0  0
  5 18  1  0  0  0  0
  6 11  1  0  0  0  0
  7 11  1  0  0  0  0
  7 12  1  0  0  0  0
  7 13  2  0  0  0  0
  8  9  1  0  0  0  0
  8 10  1  0  0  0  0
  8 19  1  0  0  0  0
  8 20  1  0  0  0  0
  9 11  1  0  0  0  0
  9 21  1  0  0  0  0
  9 22  1  0  0  0  0
 10 12  1  0  0  0  0
 10 23  1  0  0  0  0
 10 24  1  0  0  0  0
 11 25  1  0  0  0  0
 12 26  1  0  0  0  0
M  END
$$$$
