25
0 1 C10H13NO
C                    -3.446865734802    -2.683299109691    -1.569976654306
C                    -2.244949647914    -3.109749085242    -2.148526061689
C                    -3.414313287560    -1.930109930145    -0.393446997416
C                    -1.024362850215    -2.783824861778    -1.554169125586
C                    -2.187707416596    -1.607205996194     0.198782725676
C                    -0.977340401405    -2.026153577716    -0.370896316962
C                     1.109796193082    -2.904230626896     0.839499908811
C                     1.266515627718    -0.864197212495    -0.645631551347
C                     0.929503554159    -5.184668549590     1.749234000350
C                     0.349781585329    -1.681003271958     0.278696109931
N                     0.339851014043    -3.969961090622     1.203907290771
O                     2.328918937359    -2.885534917754     1.010231670231
H                    -4.397199825973    -2.936182500338    -2.032780739097
H                    -2.260453074366    -3.697631659883    -3.062875615692
H                    -4.340934365826    -1.592979283848     0.064222084018
H                    -0.098283585911    -3.127190549143    -2.009117987444
H                    -2.170733152671    -1.021817862381     1.115783912597
H                     1.526090474778    -1.427594810516    -1.546551333883
H                     0.763288838826     0.057600018613    -0.952109306085
H                     2.195503197054    -0.616797060853    -0.128969805051
H                     1.382768785803    -5.805248100352     0.966669003191
H                     0.152941998370    -5.761012542155     2.257800171422
H                     1.709328858020    -4.918130370743     2.464949871438
H                     0.137520261005    -1.066521678908     1.162926050709
H                    -0.630915651712    -3.979262544290     0.921381826998
