19
0 1 C4H11NO2S
C                    -0.198224406677     1.568156411703     4.383119648088
C                     1.099227264743    -0.766788266553     0.438840226014
C                     1.191679794052    -2.458721656756     2.246513049065
C                     0.583185200836     0.625318708399     3.468642091410
N                     0.416300732366    -1.423901206503     1.556722791927
O                    -1.316224248843     0.423223100547     1.621647157605
O                    -1.222187696347    -1.324094108819     3.486161926456
S                    -0.552803554931    -0.441752431082     2.525909890167
H                    -0.858595215541     2.215140042574     3.800864772539
H                    -0.801843880754     1.004026538258     5.098076980687
H                     0.501354163038     2.198211166178     4.940947513089
H                     0.431584650819    -0.035198523799    -0.015727421873
H                     1.338331230081    -1.528549323146    -0.309008751127
H                     2.035564962657    -0.274852060837     0.744995701247
H                     0.586191726450    -2.899829867501     3.037984569647
H                     2.131572065251    -2.071932608251     2.670135392650
H                     1.436240327864    -3.240492761096     1.521450368531
H                     1.236318701703    -0.044002439761     4.035370870555
H                     1.177065253020     1.172031962813     2.730917502000
