22
0 1 C9H12O
C                     1.903014607013    -1.173892888559    -0.012755393321
C                     2.939494213033    -1.744081809316     0.731127411209
C                     0.821657328584    -0.579662902070     0.641074261333
C                     2.904905571261    -1.740203072656     2.131527418569
C                     0.750709635057    -0.555832089026     2.041015524970
C                     1.797233781259    -1.150990289385     2.764789262113
C                     4.027090247353    -2.334679576349     2.948967485249
C                    -0.408438259704     0.099471583457     2.754251375309
C                     1.084420230209    -2.200383057620     4.761808951453
O                     1.773941665324    -1.104873151655     4.154554754911
H                     1.945456196257    -1.180376844004    -1.098901979511
H                     3.790434202874    -2.191179607572     0.221897302657
H                     0.024345062165    -0.118798003042     0.061876400196
H                     4.325144019491    -1.659722770272     3.756016109626
H                     3.728560226309    -3.280136976726     3.417071142219
H                     4.898689225539    -2.538066503599     2.321045489561
H                    -1.169333460670    -0.635651544326     3.043890494241
H                    -0.075705668707     0.599358279881     3.667448481891
H                    -0.895574071396     0.835113924044     2.108237456385
H                     1.161723093323    -2.058118627670     5.842082019862
H                     1.541498061945    -3.159230763428     4.487092640446
H                     0.026433592322    -2.216226856146     4.472248134873
