
  -OEChem-05262117483D

 14 14  0     0  0  0  0  0  0999 V2000
   -1.0716   -0.0263   -0.7966 C   0  0  0  0  0  0  0  0  0  0  0  0
    0.2851    0.5463   -1.1952 C   0  0  0  0  0  0  0  0  0  0  0  0
    0.1012   -0.0353    0.1691 C   0  0  0  0  0  0  0  0  0  0  0  0
    0.7392   -1.3494    0.5469 C   0  0  0  0  0  0  0  0  0  0  0  0
    0.0882    0.9021    1.2222 O   0  0  0  0  0  0  0  0  0  0  0  0
    0.0348   -1.9601    1.6411 O   0  0  0  0  0  0  0  0  0  0  0  0
   -1.8661    0.6844   -0.5926 H   0  0  0  0  0  0  0  0  0  0  0  0
   -1.3886   -0.9582   -1.2597 H   0  0  0  0  0  0  0  0  0  0  0  0
    0.8850    0.0010   -1.9186 H   0  0  0  0  0  0  0  0  0  0  0  0
    0.3723    1.6270   -1.2447 H   0  0  0  0  0  0  0  0  0  0  0  0
    1.7544   -1.1808    0.9155 H   0  0  0  0  0  0  0  0  0  0  0  0
    0.7872   -2.0230   -0.3191 H   0  0  0  0  0  0  0  0  0  0  0  0
   -0.2579    0.4305    2.0000 H   0  0  0  0  0  0  0  0  0  0  0  0
   -0.8524   -2.1931    1.3219 H   0  0  0  0  0  0  0  0  0  0  0  0
  1  2  1  0  0  0  0
  1  3  1  0  0  0  0
  1  7  1  0  0  0  0
  1  8  1  0  0  0  0
  2  3  1  0  0  0  0
  2  9  1  0  0  0  0
  2 10  1  0  0  0  0
  3  4  1  0  0  0  0
  3  5  1  0  0  0  0
  4  6  1  0  0  0  0
  4 11  1  0  0  0  0
  4 12  1  0  0  0  0
  5 13  1  0  0  0  0
  6 14  1  0  0  0  0
M  END
$$$$
