
  -OEChem-05262117483D

 31 32  0     0  0  0  0  0  0999 V2000
    4.6299    2.3402    5.9719 C   0  0  0  0  0  0  0  0  0  0  0  0
    4.8641    1.0697    6.5077 C   0  0  0  0  0  0  0  0  0  0  0  0
    3.5151    2.5681    5.1550 C   0  0  0  0  0  0  0  0  0  0  0  0
    1.4717   -1.1349    0.5036 C   0  0  0  0  0  0  0  0  0  0  0  0
    2.6590   -1.4603    1.1558 C   0  0  0  0  0  0  0  0  0  0  0  0
    0.3440   -0.7991    1.2465 C   0  0  0  0  0  0  0  0  0  0  0  0
    3.9887    0.0168    6.2242 C   0  0  0  0  0  0  0  0  0  0  0  0
    2.6289    1.5263    4.8753 C   0  0  0  0  0  0  0  0  0  0  0  0
    2.7452   -1.4545    2.5533 C   0  0  0  0  0  0  0  0  0  0  0  0
    0.3641   -0.7710    2.6506 C   0  0  0  0  0  0  0  0  0  0  0  0
    2.8833    0.2616    5.4102 C   0  0  0  0  0  0  0  0  0  0  0  0
    1.5857   -1.0983    3.2860 C   0  0  0  0  0  0  0  0  0  0  0  0
    4.0752   -1.8189    3.1764 C   0  0  0  0  0  0  0  0  0  0  0  0
   -0.9320   -0.4021    3.3448 C   0  0  0  0  0  0  0  0  0  0  0  0
    2.3446   -2.3303    5.5589 O   0  0  0  0  0  0  0  0  0  0  0  0
    0.4302   -0.6725    5.6854 O   0  0  0  0  0  0  0  0  0  0  0  0
    1.7160   -1.0798    5.1028 S   0  0  0  0  0  0  0  0  0  0  0  0
    5.3162    3.1545    6.1889 H   0  0  0  0  0  0  0  0  0  0  0  0
    5.7292    0.8954    7.1416 H   0  0  0  0  0  0  0  0  0  0  0  0
    3.3350    3.5561    4.7402 H   0  0  0  0  0  0  0  0  0  0  0  0
    1.4245   -1.1476   -0.5823 H   0  0  0  0  0  0  0  0  0  0  0  0
    3.5390   -1.7287    0.5774 H   0  0  0  0  0  0  0  0  0  0  0  0
   -0.5830   -0.5543    0.7352 H   0  0  0  0  0  0  0  0  0  0  0  0
    4.1546   -0.9827    6.6144 H   0  0  0  0  0  0  0  0  0  0  0  0
    1.7591    1.6941    4.2465 H   0  0  0  0  0  0  0  0  0  0  0  0
    4.5175   -0.9676    3.7026 H   0  0  0  0  0  0  0  0  0  0  0  0
    3.9730   -2.6282    3.9004 H   0  0  0  0  0  0  0  0  0  0  0  0
    4.7749   -2.1254    2.3958 H   0  0  0  0  0  0  0  0  0  0  0  0
   -1.2874   -1.2030    3.9953 H   0  0  0  0  0  0  0  0  0  0  0  0
   -0.8256    0.4797    3.9794 H   0  0  0  0  0  0  0  0  0  0  0  0
   -1.6958   -0.1994    2.5901 H   0  0  0  0  0  0  0  0  0  0  0  0
  1  2  1  0  0  0  0
  1  3  2  0  0  0  0
  1 18  1  0  0  0  0
  2  7  2  0  0  0  0
  2 19  1  0  0  0  0
  3  8  1  0  0  0  0
  3 20  1  0  0  0  0
  4  5  1  0  0  0  0
  4  6  2  0  0  0  0
  4 21  1  0  0  0  0
  5  9  2  0  0  0  0
  5 22  1  0  0  0  0
  6 10  1  0  0  0  0
  6 23  1  0  0  0  0
  7 11  1  0  0  0  0
  7 24  1  0  0  0  0
  8 11  2  0  0  0  0
  8 25  1  0  0  0  0
  9 12  1  0  0  0  0
  9 13  1  0  0  0  0
 10 12  2  0  0  0  0
 10 14  1  0  0  0  0
 11 17  1  0  0  0  0
 12 17  1  0  0  0  0
 13 26  1  0  0  0  0
 13 27  1  0  0  0  0
 13 28  1  0  0  0  0
 14 29  1  0  0  0  0
 14 30  1  0  0  0  0
 14 31  1  0  0  0  0
 15 17  2  0  0  0  0
 16 17  2  0  0  0  0
M  END
$$$$
