
  -OEChem-05262117483D

 19 20  0     0  0  0  0  0  0999 V2000
    0.4347   -0.7759   -1.5956 C   0  0  0  0  0  0  0  0  0  0  0  0
    0.3019    0.4102   -2.3989 C   0  0  0  0  0  0  0  0  0  0  0  0
   -0.4007    0.1886   -3.5631 C   0  0  0  0  0  0  0  0  0  0  0  0
   -0.1623   -1.8633   -2.1669 C   0  0  0  0  0  0  0  0  0  0  0  0
    2.2330    1.8426   -1.3869 C   0  0  0  0  0  0  0  0  0  0  0  0
    1.9820    2.3809   -2.7774 C   0  0  0  0  0  0  0  0  0  0  0  0
    0.8495    1.7404   -1.9932 C   0  0  0  0  0  0  0  0  0  0  0  0
   -0.7767    1.1774   -4.6279 C   0  0  0  0  0  0  0  0  0  0  0  0
   -0.9056   -1.4810   -3.6922 S   0  0  0  0  0  0  0  0  0  0  0  0
   -0.2189   -3.6283   -1.4790 Br  0  0  0  0  0  0  0  0  0  0  0  0
    0.9529   -0.8060   -0.6437 H   0  0  0  0  0  0  0  0  0  0  0  0
    2.8135    0.9284   -1.3037 H   0  0  0  0  0  0  0  0  0  0  0  0
    2.3859    2.5515   -0.5786 H   0  0  0  0  0  0  0  0  0  0  0  0
    1.9618    3.4577   -2.9193 H   0  0  0  0  0  0  0  0  0  0  0  0
    2.3873    1.8174   -3.6126 H   0  0  0  0  0  0  0  0  0  0  0  0
    0.1138    2.4359   -1.5928 H   0  0  0  0  0  0  0  0  0  0  0  0
   -0.6620    0.7581   -5.6327 H   0  0  0  0  0  0  0  0  0  0  0  0
   -1.8177    1.5054   -4.5226 H   0  0  0  0  0  0  0  0  0  0  0  0
   -0.1389    2.0612   -4.5530 H   0  0  0  0  0  0  0  0  0  0  0  0
  1  2  1  0  0  0  0
  1  4  2  0  0  0  0
  1 11  1  0  0  0  0
  2  3  2  0  0  0  0
  2  7  1  0  0  0  0
  3  8  1  0  0  0  0
  3  9  1  0  0  0  0
  4  9  1  0  0  0  0
  4 10  1  0  0  0  0
  5  6  1  0  0  0  0
  5  7  1  0  0  0  0
  5 12  1  0  0  0  0
  5 13  1  0  0  0  0
  6  7  1  0  0  0  0
  6 14  1  0  0  0  0
  6 15  1  0  0  0  0
  7 16  1  0  0  0  0
  8 17  1  0  0  0  0
  8 18  1  0  0  0  0
  8 19  1  0  0  0  0
M  END
$$$$
