
  -OEChem-05262117483D

 30 31  0     0  0  0  0  0  0999 V2000
   -1.5242   -3.2989    6.2986 C   0  0  0  0  0  0  0  0  0  0  0  0
    4.9386   -0.3059    0.1855 C   0  0  0  0  0  0  0  0  0  0  0  0
   -0.7645   -2.2858    6.8969 C   0  0  0  0  0  0  0  0  0  0  0  0
   -1.2370   -3.7317    4.9995 C   0  0  0  0  0  0  0  0  0  0  0  0
    5.2252   -1.6415    0.4912 C   0  0  0  0  0  0  0  0  0  0  0  0
    4.6824    0.6192    1.2035 C   0  0  0  0  0  0  0  0  0  0  0  0
    0.2916   -1.6984    6.1995 C   0  0  0  0  0  0  0  0  0  0  0  0
   -0.1832   -3.1557    4.2861 C   0  0  0  0  0  0  0  0  0  0  0  0
    5.2544   -2.0649    1.8200 C   0  0  0  0  0  0  0  0  0  0  0  0
    4.7028    0.2149    2.5388 C   0  0  0  0  0  0  0  0  0  0  0  0
    0.5588   -2.1465    4.9028 C   0  0  0  0  0  0  0  0  0  0  0  0
    4.9892   -1.1239    2.8189 C   0  0  0  0  0  0  0  0  0  0  0  0
    3.2647   -2.3355    4.7597 N   0  0  0  0  0  0  0  0  0  0  0  0
    1.8019   -1.7370    2.5931 O   0  0  0  0  0  0  0  0  0  0  0  0
    2.1363   -0.0383    4.4750 O   0  0  0  0  0  0  0  0  0  0  0  0
    5.7952   -2.8461    4.6722 O   0  0  0  0  0  0  0  0  0  0  0  0
    4.9869   -0.5336    5.4166 O   0  0  0  0  0  0  0  0  0  0  0  0
    3.2303   -3.5916    4.0975 F   0  0  0  0  0  0  0  0  0  0  0  0
    1.9049   -1.4016    4.0092 S   0  0  0  0  0  0  0  0  0  0  0  0
    4.9548   -1.6697    4.5099 S   0  0  0  0  0  0  0  0  0  0  0  0
   -2.3445   -3.7524    6.8483 H   0  0  0  0  0  0  0  0  0  0  0  0
    4.9152    0.0154   -0.8523 H   0  0  0  0  0  0  0  0  0  0  0  0
   -0.9941   -1.9537    7.9052 H   0  0  0  0  0  0  0  0  0  0  0  0
   -1.8315   -4.5166    4.5411 H   0  0  0  0  0  0  0  0  0  0  0  0
    5.4255   -2.3531   -0.3044 H   0  0  0  0  0  0  0  0  0  0  0  0
    4.4605    1.6540    0.9595 H   0  0  0  0  0  0  0  0  0  0  0  0
    0.8922   -0.9092    6.6404 H   0  0  0  0  0  0  0  0  0  0  0  0
    0.0586   -3.4694    3.2760 H   0  0  0  0  0  0  0  0  0  0  0  0
    5.4775   -3.0936    2.0823 H   0  0  0  0  0  0  0  0  0  0  0  0
    4.4886    0.9073    3.3453 H   0  0  0  0  0  0  0  0  0  0  0  0
  1  3  1  0  0  0  0
  1  4  2  0  0  0  0
  1 21  1  0  0  0  0
  2  5  1  0  0  0  0
  2  6  2  0  0  0  0
  2 22  1  0  0  0  0
  3  7  2  0  0  0  0
  3 23  1  0  0  0  0
  4  8  1  0  0  0  0
  4 24  1  0  0  0  0
  5  9  2  0  0  0  0
  5 25  1  0  0  0  0
  6 10  1  0  0  0  0
  6 26  1  0  0  0  0
  7 11  1  0  0  0  0
  7 27  1  0  0  0  0
  8 11  2  0  0  0  0
  8 28  1  0  0  0  0
  9 12  1  0  0  0  0
  9 29  1  0  0  0  0
 10 12  2  0  0  0  0
 10 30  1  0  0  0  0
 11 19  1  0  0  0  0
 12 20  1  0  0  0  0
 13 18  1  0  0  0  0
 13 19  1  0  0  0  0
 13 20  1  0  0  0  0
 14 19  2  0  0  0  0
 15 19  2  0  0  0  0
 16 20  2  0  0  0  0
 17 20  2  0  0  0  0
M  END
$$$$
