
  -OEChem-05262117483D

 30 31  0     0  0  0  0  0  0999 V2000
    2.8874    0.1002    0.2979 C   0  0  0  0  0  0  0  0  0  0  0  0
    6.9448   -3.3601    8.0233 C   0  0  0  0  0  0  0  0  0  0  0  0
    2.4540   -1.2218    0.4518 C   0  0  0  0  0  0  0  0  0  0  0  0
    2.8561    0.9912    1.3762 C   0  0  0  0  0  0  0  0  0  0  0  0
    6.0939   -2.3081    8.3849 C   0  0  0  0  0  0  0  0  0  0  0  0
    7.0527   -3.7620    6.6876 C   0  0  0  0  0  0  0  0  0  0  0  0
    1.9879   -1.6652    1.6896 C   0  0  0  0  0  0  0  0  0  0  0  0
    2.3973    0.5662    2.6235 C   0  0  0  0  0  0  0  0  0  0  0  0
    5.3412   -1.6506    7.4113 C   0  0  0  0  0  0  0  0  0  0  0  0
    6.3067   -3.1156    5.6993 C   0  0  0  0  0  0  0  0  0  0  0  0
    1.9719   -0.7586    2.7533 C   0  0  0  0  0  0  0  0  0  0  0  0
    5.4663   -2.0689    6.0836 C   0  0  0  0  0  0  0  0  0  0  0  0
    2.9371   -2.1019    5.0926 N   0  0  0  0  0  0  0  0  0  0  0  0
    1.1863   -0.2149    5.2400 O   0  0  0  0  0  0  0  0  0  0  0  0
    0.5400   -2.4634    4.2000 O   0  0  0  0  0  0  0  0  0  0  0  0
    4.2083    0.1316    5.2529 O   0  0  0  0  0  0  0  0  0  0  0  0
    5.0348   -1.5529    3.5153 O   0  0  0  0  0  0  0  0  0  0  0  0
    3.1151   -3.3461    4.4312 F   0  0  0  0  0  0  0  0  0  0  0  0
    1.4458   -1.3348    4.3500 S   0  0  0  0  0  0  0  0  0  0  0  0
    4.5078   -1.2349    4.8381 S   0  0  0  0  0  0  0  0  0  0  0  0
    3.2516    0.4377   -0.6688 H   0  0  0  0  0  0  0  0  0  0  0  0
    7.5271   -3.8681    8.7873 H   0  0  0  0  0  0  0  0  0  0  0  0
    2.4789   -1.9069   -0.3906 H   0  0  0  0  0  0  0  0  0  0  0  0
    3.1941    2.0155    1.2496 H   0  0  0  0  0  0  0  0  0  0  0  0
    6.0165   -2.0003    9.4236 H   0  0  0  0  0  0  0  0  0  0  0  0
    7.7161   -4.5774    6.4141 H   0  0  0  0  0  0  0  0  0  0  0  0
    1.6432   -2.6837    1.8335 H   0  0  0  0  0  0  0  0  0  0  0  0
    2.3811    1.2311    3.4800 H   0  0  0  0  0  0  0  0  0  0  0  0
    4.6776   -0.8304    7.6663 H   0  0  0  0  0  0  0  0  0  0  0  0
    6.3746   -3.4040    4.6556 H   0  0  0  0  0  0  0  0  0  0  0  0
  1  3  1  0  0  0  0
  1  4  2  0  0  0  0
  1 21  1  0  0  0  0
  2  5  1  0  0  0  0
  2  6  2  0  0  0  0
  2 22  1  0  0  0  0
  3  7  2  0  0  0  0
  3 23  1  0  0  0  0
  4  8  1  0  0  0  0
  4 24  1  0  0  0  0
  5  9  2  0  0  0  0
  5 25  1  0  0  0  0
  6 10  1  0  0  0  0
  6 26  1  0  0  0  0
  7 11  1  0  0  0  0
  7 27  1  0  0  0  0
  8 11  2  0  0  0  0
  8 28  1  0  0  0  0
  9 12  1  0  0  0  0
  9 29  1  0  0  0  0
 10 12  2  0  0  0  0
 10 30  1  0  0  0  0
 11 19  1  0  0  0  0
 12 20  1  0  0  0  0
 13 18  1  0  0  0  0
 13 19  1  0  0  0  0
 13 20  1  0  0  0  0
 14 19  2  0  0  0  0
 15 19  2  0  0  0  0
 16 20  2  0  0  0  0
 17 20  2  0  0  0  0
M  END
$$$$
