30
0 1 C12FH10NO4S2
C                     2.887421529762     0.100212230465     0.297857701398
C                     6.944828953360    -3.360093245502     8.023346852088
C                     2.453979228803    -1.221804910720     0.451808898918
C                     2.856089005327     0.991219481366     1.376191033698
C                     6.093863187297    -2.308146752717     8.384921977073
C                     7.052691371757    -3.762044210654     6.687593741627
C                     1.987887974555    -1.665201013844     1.689608772925
C                     2.397339471032     0.566210619404     2.623510271256
C                     5.341153548139    -1.650593510869     7.411343390623
C                     6.306663949578    -3.115570420859     5.699328762463
C                     1.971932927105    -0.758609779845     2.753260422189
C                     5.466292597028    -2.068931861252     6.083612268002
N                     2.937120948495    -2.101949963272     5.092647373793
O                     1.186254642829    -0.214893859237     5.240032175351
O                     0.540001795103    -2.463414712474     4.200044632434
O                     4.208249863759     0.131615193678     5.252859870155
O                     5.034811310393    -1.552873281724     3.515342498845
F                     3.115147010297    -3.346087120676     4.431213342077
S                     1.445753754046    -1.334815138563     4.350013157599
S                     4.507848320050    -1.234905189997     4.838092005414
H                     3.251618939496     0.437657663118    -0.668792288456
H                     7.527122453553    -3.868108294385     8.787333120019
H                     2.478885668612    -1.906929348890    -0.390589345227
H                     3.194146277963     2.015535218934     1.249591778506
H                     6.016483746948    -2.000334428929     9.423608643652
H                     7.716082062668    -4.577368616261     6.414077027730
H                     1.643204223177    -2.683681175637     1.833467370390
H                     2.381125534215     1.231058341555     3.479991302129
H                     4.677600569161    -0.830411713560     7.666325974347
H                     6.374589617891    -3.403979874831     4.655583918473
