30
0 1 C12FH10NO4S2
C                     2.638968781146     0.125989981719     0.211653299709
C                     6.271847031341    -1.957281899304     0.720028919360
C                     2.492362028841    -1.225056455966     0.548279507830
C                     2.562723610982     1.116651683846     1.196088485813
C                     6.227767448126    -2.976191927620     1.679305459796
C                     5.921296747320    -0.647579897168     1.060989808517
C                     2.252610324138    -1.594479189025     1.871728390876
C                     2.344163331566     0.764049001889     2.530137889077
C                     5.828687184674    -2.692513910590     2.985909346325
C                     5.505862584971    -0.348648405250     2.359256317589
C                     2.190335432335    -0.588689987937     2.841228957820
C                     5.455078008991    -1.380875617290     3.297772093028
N                     3.353041334741    -1.745386024761     5.220485670965
O                     1.646186194969     0.162712054333     5.322946052600
O                     0.920037997347    -2.168338255369     4.541382507437
O                     5.822543252046    -1.704646507557     5.894213050212
O                     4.693310279473     0.447793962628     5.073120544215
F                     3.470911192706    -3.065896561385     4.710300625094
S                     1.836317000253    -1.038827221338     4.528917447192
S                     4.968227206853    -0.979600459062     4.968365364439
H                     2.810857800208     0.406974216866    -0.823905866054
H                     6.590424518253    -2.184761979199    -0.293697971639
H                     2.555955619669    -1.990001439541    -0.219894890800
H                     2.672944286451     2.163724279892     0.928660707157
H                     6.515229436761    -3.989595607762     1.414356601199
H                     5.967219602930     0.143542339996     0.318533459368
H                     2.107887527371    -2.633577402013     2.148205327381
H                     2.290803138974     1.509803797261     3.316267582680
H                     5.814414328075    -3.464589297782     3.746722905831
H                     5.233335358373     0.660133054835     2.645890207391
