34
0 1 C12H17N5
C                     0.137783463166     0.349882589383     2.597677713119
C                     0.384586538869     0.609416261164     3.926439101435
C                     1.889447455850    -3.344261237045     2.635147370254
C                     0.624543950629    -0.981610702742     2.333638187349
C                     1.172433126765    -1.453381637159     3.555221542155
C                     0.752924897863    -1.881157794301     1.234613581603
C                     0.535162755267    -2.566750363799    -1.115795660331
C                    -0.964006199342    -0.879778211034    -0.247521290889
C                    -0.638223731869    -3.532679688377    -1.277132684725
C                    -2.133731399318    -1.855359214633    -0.415482486813
C                     1.445152312396    -0.587109616073     5.895230546861
C                    -3.009735047518    -3.688906517240    -1.714353760768
N                     1.800808838993    -2.625186090814     3.753092807711
N                     1.406932969906    -3.046036387207     1.417441333913
N                     1.004358120699    -0.482007560635     4.514303472379
N                     0.289557318719    -1.606282481418    -0.035175896181
N                    -1.880927861512    -2.789188263311    -1.511836245217
H                    -0.306004437474     1.056766265279     1.911699727983
H                     0.174375871488     1.497416711278     4.508158613691
H                     2.407014386224    -4.299065303990     2.714406130548
H                     1.451902761484    -3.113011240491    -0.905020551370
H                     0.659170920706    -1.992610817659    -2.041465987070
H                    -0.863961003664    -0.270783815235    -1.153316864618
H                    -1.167204199744    -0.218699278394     0.589627700538
H                    -0.455592515974    -4.186473597111    -2.137490822392
H                    -0.705296657566    -4.169906699094    -0.376274720670
H                    -2.295955869769    -2.384791113002     0.544461129123
H                    -3.045087572468    -1.288261588388    -0.638560653707
H                     0.594180392001    -0.512832291910     6.579884731703
H                     1.922969054111    -1.559036910328     6.021537267599
H                     2.167185485149     0.201085842483     6.131284509385
H                    -2.809783734515    -4.343498187078    -2.568921667855
H                    -3.911323239080    -3.107908601611    -1.935394267312
H                    -3.217668898199    -4.326623133296    -0.834163765195
