
  -OEChem-05262117483D

 27 27  0     1  0  0  0  0  0999 V2000
   -1.5599   -0.6503   -1.3665 C   0  0  0  0  0  0  0  0  0  0  0  0
    1.2531   -1.2568    0.6256 C   0  0  0  0  0  0  0  0  0  0  0  0
   -0.2609   -1.5373    0.6445 C   0  0  0  0  0  0  0  0  0  0  0  0
    1.3042    0.2684    0.7015 C   0  0  0  0  0  0  0  0  0  0  0  0
   -0.8926   -0.2880   -0.0340 C   0  0  1  0  0  0  0  0  0  0  0  0
   -2.0756    0.6074   -4.3734 C   0  0  0  0  0  0  0  0  0  0  0  0
   -0.1882    2.0691   -0.0670 C   0  0  0  0  0  0  0  0  0  0  0  0
   -1.2983   -0.5930   -3.8225 C   0  0  0  0  0  0  0  0  0  0  0  0
    0.2148    0.6755   -0.1927 N   0  0  1  0  0  0  0  0  0  0  0  0
   -0.8114   -0.3773   -2.4667 N   0  0  0  0  0  0  0  0  0  0  0  0
   -2.6688   -1.1899   -1.3954 O   0  0  0  0  0  0  0  0  0  0  0  0
    1.7857   -1.7417    1.4482 H   0  0  0  0  0  0  0  0  0  0  0  0
    1.6973   -1.5952   -0.3161 H   0  0  0  0  0  0  0  0  0  0  0  0
   -0.5375   -2.4629    0.1359 H   0  0  0  0  0  0  0  0  0  0  0  0
   -0.6198   -1.6124    1.6749 H   0  0  0  0  0  0  0  0  0  0  0  0
    1.1308    0.6083    1.7397 H   0  0  0  0  0  0  0  0  0  0  0  0
    2.2551    0.6949    0.3638 H   0  0  0  0  0  0  0  0  0  0  0  0
   -1.6949    0.1138    0.6001 H   0  0  0  0  0  0  0  0  0  0  0  0
   -2.9453    0.8141   -3.7433 H   0  0  0  0  0  0  0  0  0  0  0  0
   -1.4474    1.5047   -4.4039 H   0  0  0  0  0  0  0  0  0  0  0  0
   -2.4278    0.4034   -5.3908 H   0  0  0  0  0  0  0  0  0  0  0  0
   -0.9666    2.2995   -0.8015 H   0  0  0  0  0  0  0  0  0  0  0  0
    0.6678    2.7223   -0.2658 H   0  0  0  0  0  0  0  0  0  0  0  0
   -0.5813    2.3098    0.9373 H   0  0  0  0  0  0  0  0  0  0  0  0
   -0.4387   -0.8220   -4.4614 H   0  0  0  0  0  0  0  0  0  0  0  0
   -1.9424   -1.4752   -3.7987 H   0  0  0  0  0  0  0  0  0  0  0  0
    0.0381    0.1503   -2.2852 H   0  0  0  0  0  0  0  0  0  0  0  0
  1  5  1  0  0  0  0
  1 10  1  0  0  0  0
  1 11  2  0  0  0  0
  2  3  1  0  0  0  0
  2  4  1  0  0  0  0
  2 12  1  0  0  0  0
  2 13  1  0  0  0  0
  3  5  1  0  0  0  0
  3 14  1  0  0  0  0
  3 15  1  0  0  0  0
  4  9  1  0  0  0  0
  4 16  1  0  0  0  0
  4 17  1  0  0  0  0
  5  9  1  0  0  0  0
  5 18  1  0  0  0  0
  6  8  1  0  0  0  0
  6 19  1  0  0  0  0
  6 20  1  0  0  0  0
  6 21  1  0  0  0  0
  7  9  1  0  0  0  0
  7 22  1  0  0  0  0
  7 23  1  0  0  0  0
  7 24  1  0  0  0  0
  8 10  1  0  0  0  0
  8 25  1  0  0  0  0
  8 26  1  0  0  0  0
 10 27  1  0  0  0  0
M  END
$$$$
