
  -OEChem-05262117483D

 65 67  0     0  0  0  0  0  0999 V2000
   -2.2091    2.8683   -3.2378 C   0  0  0  0  0  0  0  0  0  0  0  0
   -1.1446    4.0060   -1.3865 C   0  0  0  0  0  0  0  0  0  0  0  0
   -0.9807    2.3246   -3.6294 C   0  0  0  0  0  0  0  0  0  0  0  0
    0.0890    3.4675   -1.7607 C   0  0  0  0  0  0  0  0  0  0  0  0
   -2.3078    3.7009   -2.1090 C   0  0  0  0  0  0  0  0  0  0  0  0
   -3.6407    4.2204   -1.6780 C   0  0  0  0  0  0  0  0  0  0  0  0
   -4.4844    3.3883   -0.9100 C   0  0  0  0  0  0  0  0  0  0  0  0
   -4.0700    5.5049   -2.0271 C   0  0  0  0  0  0  0  0  0  0  0  0
    0.1472    2.6271   -2.8706 C   0  0  0  0  0  0  0  0  0  0  0  0
   -5.7775    3.8501   -0.5985 C   0  0  0  0  0  0  0  0  0  0  0  0
   -5.3434    5.9215   -1.5726 C   0  0  0  0  0  0  0  0  0  0  0  0
   -6.0996   -2.0759   -2.1339 C   0  0  0  0  0  0  0  0  0  0  0  0
   -4.9957   -1.5242   -3.0473 C   0  0  0  0  0  0  0  0  0  0  0  0
   -6.3065   -1.1919   -0.8956 C   0  0  0  0  0  0  0  0  0  0  0  0
   -3.6816   -1.3150   -2.2769 C   0  0  0  0  0  0  0  0  0  0  0  0
   -4.9923   -0.9817   -0.1260 C   0  0  0  0  0  0  0  0  0  0  0  0
   -3.8653   -0.4538   -1.0217 C   0  0  0  0  0  0  0  0  0  0  0  0
   -8.0717    2.8598   -0.8063 C   0  0  0  0  0  0  0  0  0  0  0  0
   -7.2094    3.6264    1.4595 C   0  0  0  0  0  0  0  0  0  0  0  0
   -5.9725    8.0104   -0.3696 C   0  0  0  0  0  0  0  0  0  0  0  0
   -7.2207    7.3335   -2.4831 C   0  0  0  0  0  0  0  0  0  0  0  0
   -3.9726    2.0658   -0.4107 C   0  0  0  0  0  0  0  0  0  0  0  0
   -3.1592    6.4281   -2.7987 C   0  0  0  0  0  0  0  0  0  0  0  0
   -6.8364    3.0089    0.1005 C   0  0  0  0  0  0  0  0  0  0  0  0
   -5.8686    7.3333   -1.7504 C   0  0  0  0  0  0  0  0  0  0  0  0
   -6.1642    5.0870   -0.9222 N   0  0  0  0  0  0  0  0  0  0  0  0
   -4.1726    0.9763   -1.4541 N   0  3  0  0  0  0  0  0  0  0  0  0
   -2.4911    7.2599   -1.8391 O   0  0  0  0  0  0  0  0  0  0  0  0
    1.3344    2.0999   -3.2316 F   0  0  0  0  0  0  0  0  0  0  0  0
   -3.0873    2.7005   -3.8603 H   0  0  0  0  0  0  0  0  0  0  0  0
   -1.2060    4.6774   -0.5354 H   0  0  0  0  0  0  0  0  0  0  0  0
   -0.8860    1.7009   -4.5131 H   0  0  0  0  0  0  0  0  0  0  0  0
    0.9975    3.6951   -1.2115 H   0  0  0  0  0  0  0  0  0  0  0  0
   -5.8248   -3.0873   -1.8095 H   0  0  0  0  0  0  0  0  0  0  0  0
   -7.0368   -2.1696   -2.6905 H   0  0  0  0  0  0  0  0  0  0  0  0
   -4.8160   -2.2061   -3.8834 H   0  0  0  0  0  0  0  0  0  0  0  0
   -5.3297   -0.5806   -3.5047 H   0  0  0  0  0  0  0  0  0  0  0  0
   -6.7424   -0.2261   -1.1950 H   0  0  0  0  0  0  0  0  0  0  0  0
   -7.0439   -1.6410   -0.2240 H   0  0  0  0  0  0  0  0  0  0  0  0
   -3.2971   -2.2846   -1.9426 H   0  0  0  0  0  0  0  0  0  0  0  0
   -2.9040   -0.8844   -2.9204 H   0  0  0  0  0  0  0  0  0  0  0  0
   -5.1420   -0.3343    0.7440 H   0  0  0  0  0  0  0  0  0  0  0  0
   -4.6473   -1.9425    0.2711 H   0  0  0  0  0  0  0  0  0  0  0  0
   -2.9261   -0.3803   -0.4667 H   0  0  0  0  0  0  0  0  0  0  0  0
   -8.5069    3.8393   -1.0177 H   0  0  0  0  0  0  0  0  0  0  0  0
   -8.8291    2.2388   -0.3183 H   0  0  0  0  0  0  0  0  0  0  0  0
   -7.8159    2.3943   -1.7663 H   0  0  0  0  0  0  0  0  0  0  0  0
   -7.6122    4.6320    1.3154 H   0  0  0  0  0  0  0  0  0  0  0  0
   -6.3375    3.7020    2.1179 H   0  0  0  0  0  0  0  0  0  0  0  0
   -7.9664    3.0163    1.9618 H   0  0  0  0  0  0  0  0  0  0  0  0
   -6.6774    7.4713    0.2700 H   0  0  0  0  0  0  0  0  0  0  0  0
   -6.3276    9.0391   -0.4844 H   0  0  0  0  0  0  0  0  0  0  0  0
   -4.9983    8.0386    0.1277 H   0  0  0  0  0  0  0  0  0  0  0  0
   -7.9699    6.7825   -1.9087 H   0  0  0  0  0  0  0  0  0  0  0  0
   -7.1408    6.8717   -3.4733 H   0  0  0  0  0  0  0  0  0  0  0  0
   -7.5740    8.3605   -2.6168 H   0  0  0  0  0  0  0  0  0  0  0  0
   -2.8992    2.0902   -0.2212 H   0  0  0  0  0  0  0  0  0  0  0  0
   -4.4762    1.7374    0.4943 H   0  0  0  0  0  0  0  0  0  0  0  0
   -2.4324    5.8435   -3.3741 H   0  0  0  0  0  0  0  0  0  0  0  0
   -3.7361    7.0315   -3.5090 H   0  0  0  0  0  0  0  0  0  0  0  0
   -6.4443    2.0021    0.2863 H   0  0  0  0  0  0  0  0  0  0  0  0
   -5.1523    7.9081   -2.3398 H   0  0  0  0  0  0  0  0  0  0  0  0
   -3.5695    1.2269   -2.2507 H   0  0  0  0  0  0  0  0  0  0  0  0
   -5.1374    1.0308   -1.7974 H   0  0  0  0  0  0  0  0  0  0  0  0
   -1.9540    7.9120   -2.3184 H   0  0  0  0  0  0  0  0  0  0  0  0
  1  3  1  0  0  0  0
  1  5  2  0  0  0  0
  1 30  1  0  0  0  0
  2  4  2  0  0  0  0
  2  5  1  0  0  0  0
  2 31  1  0  0  0  0
  3  9  2  0  0  0  0
  3 32  1  0  0  0  0
  4  9  1  0  0  0  0
  4 33  1  0  0  0  0
  5  6  1  0  0  0  0
  6  7  1  0  0  0  0
  6  8  2  0  0  0  0
  7 10  2  0  0  0  0
  7 22  1  0  0  0  0
  8 11  1  0  0  0  0
  8 23  1  0  0  0  0
  9 29  1  0  0  0  0
 10 24  1  0  0  0  0
 10 26  1  0  0  0  0
 11 25  1  0  0  0  0
 11 26  2  0  0  0  0
 12 13  1  0  0  0  0
 12 14  1  0  0  0  0
 12 34  1  0  0  0  0
 12 35  1  0  0  0  0
 13 15  1  0  0  0  0
 13 36  1  0  0  0  0
 13 37  1  0  0  0  0
 14 16  1  0  0  0  0
 14 38  1  0  0  0  0
 14 39  1  0  0  0  0
 15 17  1  0  0  0  0
 15 40  1  0  0  0  0
 15 41  1  0  0  0  0
 16 17  1  0  0  0  0
 16 42  1  0  0  0  0
 16 43  1  0  0  0  0
 17 27  1  0  0  0  0
 17 44  1  0  0  0  0
 18 24  1  0  0  0  0
 18 45  1  0  0  0  0
 18 46  1  0  0  0  0
 18 47  1  0  0  0  0
 19 24  1  0  0  0  0
 19 48  1  0  0  0  0
 19 49  1  0  0  0  0
 19 50  1  0  0  0  0
 20 25  1  0  0  0  0
 20 51  1  0  0  0  0
 20 52  1  0  0  0  0
 20 53  1  0  0  0  0
 21 25  1  0  0  0  0
 21 54  1  0  0  0  0
 21 55  1  0  0  0  0
 21 56  1  0  0  0  0
 22 27  1  0  0  0  0
 22 57  1  0  0  0  0
 22 58  1  0  0  0  0
 23 28  1  0  0  0  0
 23 59  1  0  0  0  0
 23 60  1  0  0  0  0
 24 61  1  0  0  0  0
 25 62  1  0  0  0  0
 27 63  1  0  0  0  0
 27 64  1  0  0  0  0
 28 65  1  0  0  0  0
M  CHG  1  27   1
M  END
$$$$
