
  -OEChem-05262117483D

 65 68  0     1  0  0  0  0  0999 V2000
    3.8436    3.9248   -2.0836 C   0  0  0  0  0  0  0  0  0  0  0  0
    3.9128    3.0751   -1.2177 C   0  0  0  0  0  0  0  0  0  0  0  0
    6.5929    7.3849    0.6012 C   0  0  0  0  0  0  0  0  0  0  0  0
    5.6872    6.6256   -0.1449 C   0  0  0  0  0  0  0  0  0  0  0  0
    3.8351    4.8099   -4.4041 C   0  0  0  0  0  0  0  0  0  0  0  0
    3.6696    7.1805   -4.7654 C   0  0  0  0  0  0  0  0  0  0  0  0
    3.7690    5.0056   -3.0122 C   0  0  0  0  0  0  0  0  0  0  0  0
    4.1757    8.5445   -0.1615 C   0  0  0  0  0  0  0  0  0  0  0  0
    3.6000    7.4160   -3.3882 C   0  0  0  0  0  0  0  0  0  0  0  0
    6.3332    8.7037    0.9734 C   0  0  0  0  0  0  0  0  0  0  0  0
    3.7860    5.8857   -5.2926 C   0  0  0  0  0  0  0  0  0  0  0  0
    4.4900    7.2211   -0.5072 C   0  0  0  0  0  0  0  0  0  0  0  0
    3.6461    6.3184   -2.5219 C   0  0  0  0  0  0  0  0  0  0  0  0
    5.1029    9.2912    0.5913 C   0  0  0  0  0  0  0  0  0  0  0  0
    2.8034    9.0157   -0.5494 C   0  0  0  0  0  0  0  0  0  0  0  0
    3.5258    8.8375   -2.8797 C   0  0  0  0  0  0  0  0  0  0  0  0
    2.8304    3.5301    1.5471 C   0  0  0  0  0  0  0  0  0  0  0  0
    4.3513    3.6133    1.8545 C   0  0  0  0  0  0  0  0  0  0  0  0
    2.6509    2.2311    0.7413 C   0  0  0  0  0  0  0  0  0  0  0  0
    5.0335    2.5526    0.9474 C   0  0  0  0  0  0  0  0  0  0  0  0
    3.9549    2.1367   -0.0911 C   0  0  0  0  0  0  0  0  0  0  0  0
    3.8219    5.6651   -6.7876 C   0  0  0  0  0  0  0  0  0  0  0  0
    8.4804   12.2190   -0.8129 C   0  0  0  0  0  0  0  0  0  0  0  0
    9.2835    9.8253   -0.6945 C   0  0  0  0  0  0  0  0  0  0  0  0
    4.1157   11.4867    0.2175 C   0  0  0  0  0  0  0  0  0  0  0  0
    7.8285   10.8045    1.1650 C   0  0  0  0  0  0  0  0  0  0  0  0
    7.3868    9.4565    1.7646 C   0  0  1  0  0  0  0  0  0  0  0  0
    8.1489   10.7971   -0.3387 C   0  0  0  0  0  0  0  0  0  0  0  0
    1.9556    9.3413    0.2511 O   0  0  0  0  0  0  0  0  0  0  0  0
    3.5058    6.4807   -1.1526 O   0  0  0  0  0  0  0  0  0  0  0  0
    2.5074    9.0552   -1.8805 O   0  0  0  0  0  0  0  0  0  0  0  0
    6.8907    9.6261    3.1036 O   0  0  0  0  0  0  0  0  0  0  0  0
    4.9238   10.5829    0.9769 O   0  0  0  0  0  0  0  0  0  0  0  0
    7.5345    6.9354    0.9065 H   0  0  0  0  0  0  0  0  0  0  0  0
    5.8818    5.5950   -0.4219 H   0  0  0  0  0  0  0  0  0  0  0  0
    3.9295    3.7946   -4.7796 H   0  0  0  0  0  0  0  0  0  0  0  0
    3.6241    8.0289   -5.4464 H   0  0  0  0  0  0  0  0  0  0  0  0
    4.4972    9.1611   -2.4932 H   0  0  0  0  0  0  0  0  0  0  0  0
    3.2525    9.5019   -3.7019 H   0  0  0  0  0  0  0  0  0  0  0  0
    2.2168    3.5413    2.4524 H   0  0  0  0  0  0  0  0  0  0  0  0
    2.5264    4.3842    0.9352 H   0  0  0  0  0  0  0  0  0  0  0  0
    4.7300    4.6173    1.6499 H   0  0  0  0  0  0  0  0  0  0  0  0
    4.5596    3.4044    2.9081 H   0  0  0  0  0  0  0  0  0  0  0  0
    2.6071    1.3629    1.4105 H   0  0  0  0  0  0  0  0  0  0  0  0
    1.7517    2.2263    0.1198 H   0  0  0  0  0  0  0  0  0  0  0  0
    5.9457    2.9180    0.4685 H   0  0  0  0  0  0  0  0  0  0  0  0
    5.3046    1.6664    1.5316 H   0  0  0  0  0  0  0  0  0  0  0  0
    4.1282    1.1222   -0.4661 H   0  0  0  0  0  0  0  0  0  0  0  0
    2.8135    5.7153   -7.2153 H   0  0  0  0  0  0  0  0  0  0  0  0
    4.4283    6.4257   -7.2893 H   0  0  0  0  0  0  0  0  0  0  0  0
    4.2369    4.6844   -7.0359 H   0  0  0  0  0  0  0  0  0  0  0  0
    9.3807   12.5993   -0.3149 H   0  0  0  0  0  0  0  0  0  0  0  0
    8.6637   12.2433   -1.8930 H   0  0  0  0  0  0  0  0  0  0  0  0
    7.6607   12.9127   -0.5941 H   0  0  0  0  0  0  0  0  0  0  0  0
   10.1967   10.0710   -0.1379 H   0  0  0  0  0  0  0  0  0  0  0  0
    9.0191    8.7882   -0.4686 H   0  0  0  0  0  0  0  0  0  0  0  0
    9.5213    9.8780   -1.7626 H   0  0  0  0  0  0  0  0  0  0  0  0
    4.5217   12.4808    0.4174 H   0  0  0  0  0  0  0  0  0  0  0  0
    3.0713   11.4401    0.5296 H   0  0  0  0  0  0  0  0  0  0  0  0
    4.1920   11.2813   -0.8565 H   0  0  0  0  0  0  0  0  0  0  0  0
    8.7267   11.1299    1.7126 H   0  0  0  0  0  0  0  0  0  0  0  0
    7.0447   11.5378    1.3659 H   0  0  0  0  0  0  0  0  0  0  0  0
    8.2673    8.8003    1.8036 H   0  0  0  0  0  0  0  0  0  0  0  0
    7.2460   10.4683   -0.8701 H   0  0  0  0  0  0  0  0  0  0  0  0
    7.4328   10.3055    3.5360 H   0  0  0  0  0  0  0  0  0  0  0  0
  1  2  3  0  0  0  0
  1  7  1  0  0  0  0
  2 21  1  0  0  0  0
  3  4  1  0  0  0  0
  3 10  2  0  0  0  0
  3 34  1  0  0  0  0
  4 12  2  0  0  0  0
  4 35  1  0  0  0  0
  5  7  2  0  0  0  0
  5 11  1  0  0  0  0
  5 36  1  0  0  0  0
  6  9  1  0  0  0  0
  6 11  2  0  0  0  0
  6 37  1  0  0  0  0
  7 13  1  0  0  0  0
  8 12  1  0  0  0  0
  8 14  2  0  0  0  0
  8 15  1  0  0  0  0
  9 13  2  0  0  0  0
  9 16  1  0  0  0  0
 10 14  1  0  0  0  0
 10 27  1  0  0  0  0
 11 22  1  0  0  0  0
 12 30  1  0  0  0  0
 13 30  1  0  0  0  0
 14 33  1  0  0  0  0
 15 29  2  0  0  0  0
 15 31  1  0  0  0  0
 16 31  1  0  0  0  0
 16 38  1  0  0  0  0
 16 39  1  0  0  0  0
 17 18  1  0  0  0  0
 17 19  1  0  0  0  0
 17 40  1  0  0  0  0
 17 41  1  0  0  0  0
 18 20  1  0  0  0  0
 18 42  1  0  0  0  0
 18 43  1  0  0  0  0
 19 21  1  0  0  0  0
 19 44  1  0  0  0  0
 19 45  1  0  0  0  0
 20 21  1  0  0  0  0
 20 46  1  0  0  0  0
 20 47  1  0  0  0  0
 21 48  1  0  0  0  0
 22 49  1  0  0  0  0
 22 50  1  0  0  0  0
 22 51  1  0  0  0  0
 23 28  1  0  0  0  0
 23 52  1  0  0  0  0
 23 53  1  0  0  0  0
 23 54  1  0  0  0  0
 24 28  1  0  0  0  0
 24 55  1  0  0  0  0
 24 56  1  0  0  0  0
 24 57  1  0  0  0  0
 25 33  1  0  0  0  0
 25 58  1  0  0  0  0
 25 59  1  0  0  0  0
 25 60  1  0  0  0  0
 26 27  1  0  0  0  0
 26 28  1  0  0  0  0
 26 61  1  0  0  0  0
 26 62  1  0  0  0  0
 27 32  1  0  0  0  0
 27 63  1  0  0  0  0
 28 64  1  0  0  0  0
 32 65  1  0  0  0  0
M  END
$$$$
