
  -OEChem-05262117483D

 69 71  0     0  0  0  0  0  0999 V2000
  -11.6031   -2.0890   -2.1503 C   0  0  0  0  0  0  0  0  0  0  0  0
  -10.7502   -3.6308   -0.4634 C   0  0  0  0  0  0  0  0  0  0  0  0
   -9.7220   -4.1341    0.3310 C   0  0  0  0  0  0  0  0  0  0  0  0
   -8.2064   -2.4870   -0.6054 C   0  0  0  0  0  0  0  0  0  0  0  0
  -10.5138   -2.5631   -1.3425 C   0  0  0  0  0  0  0  0  0  0  0  0
   -9.2264   -1.9899   -1.4074 C   0  0  0  0  0  0  0  0  0  0  0  0
   -8.4529   -3.5627    0.2508 C   0  0  0  0  0  0  0  0  0  0  0  0
   -7.5038   -4.1429    2.4730 C   0  0  0  0  0  0  0  0  0  0  0  0
   -6.1460   -4.4960    0.6253 C   0  0  0  0  0  0  0  0  0  0  0  0
    1.7573    0.7184    0.9241 C   0  0  0  0  0  0  0  0  0  0  0  0
    0.1817   -0.9627    2.0046 C   0  0  0  0  0  0  0  0  0  0  0  0
   -0.1211   -0.2830   -0.3115 C   0  0  0  0  0  0  0  0  0  0  0  0
    0.1001   -2.4396    1.6103 C   0  0  0  0  0  0  0  0  0  0  0  0
   -0.1953   -1.7346   -0.7664 C   0  0  0  0  0  0  0  0  0  0  0  0
   -6.1718   -4.6989    2.9824 C   0  0  0  0  0  0  0  0  0  0  0  0
   -6.4178   -6.0643    3.6446 C   0  0  0  0  0  0  0  0  0  0  0  0
   -5.5262   -3.7018    3.9528 C   0  0  0  0  0  0  0  0  0  0  0  0
    4.4110    1.9896    3.4819 C   0  0  0  0  0  0  0  0  0  0  0  0
    2.5138    0.8574    2.2368 C   0  0  0  0  0  0  0  0  0  0  0  0
    3.6607    1.8699    2.1523 C   0  0  0  0  0  0  0  0  0  0  0  0
   -3.0361   -4.2996    1.2463 C   0  0  0  0  0  0  0  0  0  0  0  0
   -1.6649   -4.9074    0.9103 C   0  0  0  0  0  0  0  0  0  0  0  0
   -4.0733   -5.3689    1.6309 C   0  0  0  0  0  0  0  0  0  0  0  0
   -0.8624   -4.0591   -0.0744 C   0  0  0  0  0  0  0  0  0  0  0  0
   -8.9443   -0.8315   -2.3409 C   0  0  0  0  0  0  0  0  0  0  0  0
  -12.5104   -1.7353   -2.7879 N   0  0  0  0  0  0  0  0  0  0  0  0
   -7.4020   -4.0578    1.0807 N   0  0  0  0  0  0  0  0  0  0  0  0
   -5.4146   -4.8202    1.7246 N   0  0  0  0  0  0  0  0  0  0  0  0
    0.6737   -0.1706    0.8983 N   0  0  0  0  0  0  0  0  0  0  0  0
   -0.7265   -2.6105    0.3554 N   0  3  0  0  0  0  0  0  0  0  0  0
   -8.4642   -3.8390    3.1465 O   0  0  0  0  0  0  0  0  0  0  0  0
    2.0560    1.3340   -0.0885 O   0  0  0  0  0  0  0  0  0  0  0  0
   -7.6549   -0.4183   -2.2401 F   0  0  0  0  0  0  0  0  0  0  0  0
   -9.1553   -1.1700   -3.6304 F   0  0  0  0  0  0  0  0  0  0  0  0
   -9.7267    0.2331   -2.0630 F   0  0  0  0  0  0  0  0  0  0  0  0
   -5.6702   -4.6169   -0.9630 S   0  0  0  0  0  0  0  0  0  0  0  0
  -11.7428   -4.0656   -0.4126 H   0  0  0  0  0  0  0  0  0  0  0  0
   -9.9089   -4.9589    1.0098 H   0  0  0  0  0  0  0  0  0  0  0  0
   -7.2201   -2.0452   -0.6520 H   0  0  0  0  0  0  0  0  0  0  0  0
   -0.8123   -0.6105    2.3242 H   0  0  0  0  0  0  0  0  0  0  0  0
    0.8401   -0.8838    2.8680 H   0  0  0  0  0  0  0  0  0  0  0  0
    0.3507    0.3180   -1.0904 H   0  0  0  0  0  0  0  0  0  0  0  0
   -1.1341    0.1154   -0.1467 H   0  0  0  0  0  0  0  0  0  0  0  0
    1.0901   -2.8419    1.3851 H   0  0  0  0  0  0  0  0  0  0  0  0
   -0.3641   -3.0348    2.3974 H   0  0  0  0  0  0  0  0  0  0  0  0
   -0.8688   -1.8582   -1.6170 H   0  0  0  0  0  0  0  0  0  0  0  0
    0.7926   -2.1217   -1.0244 H   0  0  0  0  0  0  0  0  0  0  0  0
   -5.4891   -6.4756    4.0506 H   0  0  0  0  0  0  0  0  0  0  0  0
   -6.8337   -6.7780    2.9280 H   0  0  0  0  0  0  0  0  0  0  0  0
   -7.1261   -5.9414    4.4673 H   0  0  0  0  0  0  0  0  0  0  0  0
   -4.5720   -4.0909    4.3228 H   0  0  0  0  0  0  0  0  0  0  0  0
   -6.1876   -3.5453    4.8080 H   0  0  0  0  0  0  0  0  0  0  0  0
   -5.3546   -2.7365    3.4674 H   0  0  0  0  0  0  0  0  0  0  0  0
    4.8527    1.0323    3.7825 H   0  0  0  0  0  0  0  0  0  0  0  0
    3.7484    2.3207    4.2898 H   0  0  0  0  0  0  0  0  0  0  0  0
    5.2238    2.7173    3.4032 H   0  0  0  0  0  0  0  0  0  0  0  0
    2.9087   -0.1249    2.5311 H   0  0  0  0  0  0  0  0  0  0  0  0
    1.8115    1.1542    3.0271 H   0  0  0  0  0  0  0  0  0  0  0  0
    3.2566    2.8418    1.8542 H   0  0  0  0  0  0  0  0  0  0  0  0
    4.3454    1.5693    1.3539 H   0  0  0  0  0  0  0  0  0  0  0  0
   -3.4377   -3.7868    0.3649 H   0  0  0  0  0  0  0  0  0  0  0  0
   -2.9620   -3.5676    2.0613 H   0  0  0  0  0  0  0  0  0  0  0  0
   -1.0869   -5.1229    1.8146 H   0  0  0  0  0  0  0  0  0  0  0  0
   -1.8050   -5.8705    0.4073 H   0  0  0  0  0  0  0  0  0  0  0  0
   -3.8227   -5.8267    2.5904 H   0  0  0  0  0  0  0  0  0  0  0  0
   -4.0723   -6.1569    0.8711 H   0  0  0  0  0  0  0  0  0  0  0  0
   -1.3689   -4.0334   -1.0420 H   0  0  0  0  0  0  0  0  0  0  0  0
    0.1517   -4.4372   -0.2222 H   0  0  0  0  0  0  0  0  0  0  0  0
   -1.6750   -2.2780    0.5686 H   0  0  0  0  0  0  0  0  0  0  0  0
  1  5  1  0  0  0  0
  1 26  3  0  0  0  0
  2  3  1  0  0  0  0
  2  5  2  0  0  0  0
  2 37  1  0  0  0  0
  3  7  2  0  0  0  0
  3 38  1  0  0  0  0
  4  6  2  0  0  0  0
  4  7  1  0  0  0  0
  4 39  1  0  0  0  0
  5  6  1  0  0  0  0
  6 25  1  0  0  0  0
  7 27  1  0  0  0  0
  8 15  1  0  0  0  0
  8 27  1  0  0  0  0
  8 31  2  0  0  0  0
  9 27  1  0  0  0  0
  9 28  1  0  0  0  0
  9 36  2  0  0  0  0
 10 19  1  0  0  0  0
 10 29  1  0  0  0  0
 10 32  2  0  0  0  0
 11 13  1  0  0  0  0
 11 29  1  0  0  0  0
 11 40  1  0  0  0  0
 11 41  1  0  0  0  0
 12 14  1  0  0  0  0
 12 29  1  0  0  0  0
 12 42  1  0  0  0  0
 12 43  1  0  0  0  0
 13 30  1  0  0  0  0
 13 44  1  0  0  0  0
 13 45  1  0  0  0  0
 14 30  1  0  0  0  0
 14 46  1  0  0  0  0
 14 47  1  0  0  0  0
 15 16  1  0  0  0  0
 15 17  1  0  0  0  0
 15 28  1  0  0  0  0
 16 48  1  0  0  0  0
 16 49  1  0  0  0  0
 16 50  1  0  0  0  0
 17 51  1  0  0  0  0
 17 52  1  0  0  0  0
 17 53  1  0  0  0  0
 18 20  1  0  0  0  0
 18 54  1  0  0  0  0
 18 55  1  0  0  0  0
 18 56  1  0  0  0  0
 19 20  1  0  0  0  0
 19 57  1  0  0  0  0
 19 58  1  0  0  0  0
 20 59  1  0  0  0  0
 20 60  1  0  0  0  0
 21 22  1  0  0  0  0
 21 23  1  0  0  0  0
 21 61  1  0  0  0  0
 21 62  1  0  0  0  0
 22 24  1  0  0  0  0
 22 63  1  0  0  0  0
 22 64  1  0  0  0  0
 23 28  1  0  0  0  0
 23 65  1  0  0  0  0
 23 66  1  0  0  0  0
 24 30  1  0  0  0  0
 24 67  1  0  0  0  0
 24 68  1  0  0  0  0
 25 33  1  0  0  0  0
 25 34  1  0  0  0  0
 25 35  1  0  0  0  0
 30 69  1  0  0  0  0
M  CHG  1  30   1
M  END
$$$$
