68
0 1 C25F3H32N5O2S
C                    -9.429595818115    -0.605404907403     7.048154375689
C                    -7.113763803600    -0.194286243416     6.406336535707
C                    -5.747556586999    -0.435210752987     6.519640086478
C                    -6.192325137678    -2.102734992372     8.224620324934
C                    -8.031427689726    -0.898360787381     7.201595393461
C                    -7.557262641188    -1.856686544538     8.120523155853
C                    -5.290695733795    -1.396930324684     7.422886444247
C                    -3.242592250512    -1.638508939622     8.793984332504
C                    -3.008761970004    -1.965527438057     6.504035036835
C                     5.132508742583    -0.211850460554    -0.398595489501
C                     4.977724757719     0.175866479022     2.022947806299
C                     3.834410284318    -1.774268162371     1.105688417941
C                     3.713715366188     0.521007063794     2.805986036053
C                     2.589178402143    -1.398042903894     1.911017274593
C                    -1.775529514462    -1.964864834104     8.516331479569
C                    -1.413283895492    -3.279091597730     9.228658399256
C                    -0.886876567679    -0.804606349839     8.985882187497
C                     4.982112435853    -1.444418735196    -4.103681832795
C                     4.760278597419    -1.079390210317    -1.601890596325
C                     5.362991649144    -0.562330528051    -2.910000018478
C                     0.017043115172    -1.204670893486     5.577348324719
C                     1.173126280118    -1.595822944592     4.651859468721
C                    -0.592589949895    -2.430554257637     6.267148911396
C                     1.789413584564    -0.372644686716     3.966914416333
C                    -8.525472190367    -2.624371348414     8.993352550430
N                   -10.550756261133    -0.333889880391     6.889695879526
N                    -3.898292975240    -1.651952623158     7.564163699402
N                    -1.781941607641    -2.114938030521     7.054127770378
N                     4.638619555453    -0.591295185555     0.827184293502
N                     2.955554159282    -0.690562575402     3.139783834318
O                    -3.742229053581    -1.416299570580     9.879389821886
O                     5.841674722746     0.788845933767    -0.526295756090
F                    -7.886561713481    -3.514143631999     9.787600669128
F                    -9.228738844776    -1.798019154324     9.801496994975
F                    -9.419588140418    -3.319182121420     8.252237480297
S                    -3.428897787202    -2.144208446617     4.908310323409
H                    -7.481106864930     0.546881416348     5.704423304932
H                    -5.042618044819     0.112606915432     5.906317111055
H                    -5.828105634795    -2.837300504961     8.931288091237
H                     5.501749316971     1.077833127542     1.708772518143
H                     5.648303278558    -0.419204666395     2.658100521727
H                     4.430093089797    -2.493904844999     1.685256528497
H                     3.530604588738    -2.257837197952     0.179074954535
H                     3.997646329925     1.022871782297     3.737009609416
H                     3.104491349813     1.229624842826     2.213123448768
H                     1.921956118969    -0.781240313139     1.277266471307
H                     2.052124589779    -2.315833464460     2.164671898691
H                    -0.358405581039    -3.524112351670     9.077298683080
H                    -2.021915482104    -4.106753854673     8.853613830389
H                    -1.592287405812    -3.168280095905    10.300859033361
H                     0.167189719052    -1.034460556831     8.805981176753
H                    -1.032319188331    -0.649931306687    10.057805807916
H                    -1.138930409547     0.120470314155     8.460559784094
H                     3.894970377370    -1.483759965122    -4.242823392230
H                     5.335457606354    -2.474055032111    -3.970410335615
H                     5.420527145180    -1.061795306192    -5.031318375670
H                     3.667122371143    -1.125612331514    -1.691481049523
H                     5.092459431214    -2.110125894055    -1.421916924257
H                     6.451141906633    -0.510589003878    -2.807838367962
H                     5.029749307031     0.466464207763    -3.076410947428
H                    -0.768565995058    -0.707341710522     4.999879227320
H                     0.363515924739    -0.491936031087     6.334773832425
H                     1.960542975032    -2.113257548912     5.213869516469
H                     0.797497811824    -2.305025231603     3.905837714029
H                     0.135017967187    -2.895200069626     6.937835627808
H                    -0.876882082370    -3.175543365336     5.518919974435
H                     1.011208309107     0.154866044374     3.381659730429
H                     2.121977426241     0.326640904036     4.742841642108
