
  -OEChem-05262117483D

 68 70  0     0  0  0  0  0  0999 V2000
   -9.8912   -2.0387    8.3363 C   0  0  0  0  0  0  0  0  0  0  0  0
   -7.8460   -3.0680    9.1714 C   0  0  0  0  0  0  0  0  0  0  0  0
   -6.4633   -3.2354    9.1607 C   0  0  0  0  0  0  0  0  0  0  0  0
   -6.2829   -1.5740    7.4020 C   0  0  0  0  0  0  0  0  0  0  0  0
   -8.4607   -2.1638    8.2926 C   0  0  0  0  0  0  0  0  0  0  0  0
   -7.6631   -1.4119    7.4040 C   0  0  0  0  0  0  0  0  0  0  0  0
   -5.6858   -2.4926    8.2717 C   0  0  0  0  0  0  0  0  0  0  0  0
   -3.5018   -2.5506    9.4359 C   0  0  0  0  0  0  0  0  0  0  0  0
   -3.4681   -2.9019    7.1373 C   0  0  0  0  0  0  0  0  0  0  0  0
    3.8280    3.4191    6.2303 C   0  0  0  0  0  0  0  0  0  0  0  0
    1.6487    2.7067    5.3459 C   0  0  0  0  0  0  0  0  0  0  0  0
    2.8529    1.1600    6.8012 C   0  0  0  0  0  0  0  0  0  0  0  0
    1.3768    1.5545    4.3828 C   0  0  0  0  0  0  0  0  0  0  0  0
    2.5545    0.0310    5.8122 C   0  0  0  0  0  0  0  0  0  0  0  0
   -2.0454   -2.7414    9.0127 C   0  0  0  0  0  0  0  0  0  0  0  0
   -1.4822   -3.9950    9.7030 C   0  0  0  0  0  0  0  0  0  0  0  0
   -1.2346   -1.4877    9.3719 C   0  0  0  0  0  0  0  0  0  0  0  0
    7.2639    3.9207    8.0226 C   0  0  0  0  0  0  0  0  0  0  0  0
    5.0477    3.0997    7.0961 C   0  0  0  0  0  0  0  0  0  0  0  0
    6.0493    4.2555    7.1505 C   0  0  0  0  0  0  0  0  0  0  0  0
   -0.6444   -1.8488    5.9246 C   0  0  0  0  0  0  0  0  0  0  0  0
    0.5065   -2.0954    4.9464 C   0  0  0  0  0  0  0  0  0  0  0  0
   -1.0515   -3.1286    6.6610 C   0  0  0  0  0  0  0  0  0  0  0  0
    0.9341   -0.8215    4.2079 C   0  0  0  0  0  0  0  0  0  0  0  0
   -8.3000   -0.4197    6.4560 C   0  0  0  0  0  0  0  0  0  0  0  0
  -11.0516   -1.9719    8.4072 N   0  0  0  0  0  0  0  0  0  0  0  0
   -4.2720   -2.6454    8.2794 N   0  0  0  0  0  0  0  0  0  0  0  0
   -2.1845   -2.9293    7.5620 N   0  0  0  0  0  0  0  0  0  0  0  0
    2.8615    2.4467    6.1187 N   0  0  0  0  0  0  0  0  0  0  0  0
    1.3005    0.2795    5.1029 N   0  0  0  0  0  0  0  0  0  0  0  0
   -3.9080   -2.3580   10.5656 O   0  0  0  0  0  0  0  0  0  0  0  0
    3.7211    4.5022    5.6517 O   0  0  0  0  0  0  0  0  0  0  0  0
   -7.3758    0.2099    5.6947 F   0  0  0  0  0  0  0  0  0  0  0  0
   -9.1704   -1.0233    5.6146 F   0  0  0  0  0  0  0  0  0  0  0  0
   -8.9858    0.5372    7.1253 F   0  0  0  0  0  0  0  0  0  0  0  0
   -4.0322   -3.1540    5.5976 S   0  0  0  0  0  0  0  0  0  0  0  0
   -8.4608   -3.6418    9.8568 H   0  0  0  0  0  0  0  0  0  0  0  0
   -5.9914   -3.9336    9.8425 H   0  0  0  0  0  0  0  0  0  0  0  0
   -5.6709   -0.9948    6.7238 H   0  0  0  0  0  0  0  0  0  0  0  0
    1.7856    3.6437    4.8074 H   0  0  0  0  0  0  0  0  0  0  0  0
    0.7974    2.8161    6.0321 H   0  0  0  0  0  0  0  0  0  0  0  0
    2.0779    1.1633    7.5821 H   0  0  0  0  0  0  0  0  0  0  0  0
    3.8126    0.9745    7.2803 H   0  0  0  0  0  0  0  0  0  0  0  0
    0.4203    1.7286    3.8794 H   0  0  0  0  0  0  0  0  0  0  0  0
    2.1670    1.5358    3.6084 H   0  0  0  0  0  0  0  0  0  0  0  0
    3.4041   -0.0677    5.1081 H   0  0  0  0  0  0  0  0  0  0  0  0
    2.4776   -0.9065    6.3709 H   0  0  0  0  0  0  0  0  0  0  0  0
   -0.4293   -4.1392    9.4449 H   0  0  0  0  0  0  0  0  0  0  0  0
   -2.0399   -4.8875    9.4056 H   0  0  0  0  0  0  0  0  0  0  0  0
   -1.5598   -3.8754   10.7863 H   0  0  0  0  0  0  0  0  0  0  0  0
   -0.1870   -1.6165    9.0853 H   0  0  0  0  0  0  0  0  0  0  0  0
   -1.2846   -1.3238   10.4512 H   0  0  0  0  0  0  0  0  0  0  0  0
   -1.6299   -0.6047    8.8632 H   0  0  0  0  0  0  0  0  0  0  0  0
    7.8034    3.0457    7.6402 H   0  0  0  0  0  0  0  0  0  0  0  0
    6.9679    3.7011    9.0556 H   0  0  0  0  0  0  0  0  0  0  0  0
    7.9696    4.7574    8.0517 H   0  0  0  0  0  0  0  0  0  0  0  0
    5.5421    2.1994    6.7083 H   0  0  0  0  0  0  0  0  0  0  0  0
    4.7156    2.8486    8.1120 H   0  0  0  0  0  0  0  0  0  0  0  0
    5.5447    5.1494    7.5293 H   0  0  0  0  0  0  0  0  0  0  0  0
    6.3683    4.5016    6.1333 H   0  0  0  0  0  0  0  0  0  0  0  0
   -1.5140   -1.4681    5.3793 H   0  0  0  0  0  0  0  0  0  0  0  0
   -0.3555   -1.0763    6.6418 H   0  0  0  0  0  0  0  0  0  0  0  0
    1.3612   -2.5393    5.4726 H   0  0  0  0  0  0  0  0  0  0  0  0
    0.2029   -2.8322    4.1925 H   0  0  0  0  0  0  0  0  0  0  0  0
   -0.2189   -3.5101    7.2591 H   0  0  0  0  0  0  0  0  0  0  0  0
   -1.3284   -3.9071    5.9446 H   0  0  0  0  0  0  0  0  0  0  0  0
    1.7557   -1.0612    3.5062 H   0  0  0  0  0  0  0  0  0  0  0  0
    0.0909   -0.4767    3.5990 H   0  0  0  0  0  0  0  0  0  0  0  0
  1  5  1  0  0  0  0
  1 26  3  0  0  0  0
  2  3  1  0  0  0  0
  2  5  2  0  0  0  0
  2 37  1  0  0  0  0
  3  7  2  0  0  0  0
  3 38  1  0  0  0  0
  4  6  2  0  0  0  0
  4  7  1  0  0  0  0
  4 39  1  0  0  0  0
  5  6  1  0  0  0  0
  6 25  1  0  0  0  0
  7 27  1  0  0  0  0
  8 15  1  0  0  0  0
  8 27  1  0  0  0  0
  8 31  2  0  0  0  0
  9 27  1  0  0  0  0
  9 28  1  0  0  0  0
  9 36  2  0  0  0  0
 10 19  1  0  0  0  0
 10 29  1  0  0  0  0
 10 32  2  0  0  0  0
 11 13  1  0  0  0  0
 11 29  1  0  0  0  0
 11 40  1  0  0  0  0
 11 41  1  0  0  0  0
 12 14  1  0  0  0  0
 12 29  1  0  0  0  0
 12 42  1  0  0  0  0
 12 43  1  0  0  0  0
 13 30  1  0  0  0  0
 13 44  1  0  0  0  0
 13 45  1  0  0  0  0
 14 30  1  0  0  0  0
 14 46  1  0  0  0  0
 14 47  1  0  0  0  0
 15 16  1  0  0  0  0
 15 17  1  0  0  0  0
 15 28  1  0  0  0  0
 16 48  1  0  0  0  0
 16 49  1  0  0  0  0
 16 50  1  0  0  0  0
 17 51  1  0  0  0  0
 17 52  1  0  0  0  0
 17 53  1  0  0  0  0
 18 20  1  0  0  0  0
 18 54  1  0  0  0  0
 18 55  1  0  0  0  0
 18 56  1  0  0  0  0
 19 20  1  0  0  0  0
 19 57  1  0  0  0  0
 19 58  1  0  0  0  0
 20 59  1  0  0  0  0
 20 60  1  0  0  0  0
 21 22  1  0  0  0  0
 21 23  1  0  0  0  0
 21 61  1  0  0  0  0
 21 62  1  0  0  0  0
 22 24  1  0  0  0  0
 22 63  1  0  0  0  0
 22 64  1  0  0  0  0
 23 28  1  0  0  0  0
 23 65  1  0  0  0  0
 23 66  1  0  0  0  0
 24 30  1  0  0  0  0
 24 67  1  0  0  0  0
 24 68  1  0  0  0  0
 25 33  1  0  0  0  0
 25 34  1  0  0  0  0
 25 35  1  0  0  0  0
M  END
$$$$
