68
0 1 C25F3H32N5O2S
C                    -9.533304031363    -1.640039452410     6.948977099429
C                    -7.195847581726    -1.155636428253     6.453797217332
C                    -5.832569757869    -1.361738193346     6.644706791550
C                    -6.331431935462    -3.075559802927     8.287912454089
C                    -8.139185479205    -1.900207163157     7.179165651167
C                    -7.694235330782    -2.864879199724     8.106134039020
C                    -5.403723149314    -2.328514323172     7.556253193325
C                    -3.436375659159    -2.529452699841     9.047013617308
C                    -3.052386106268    -2.813264222990     6.771890708184
C                    -2.054923154041     1.305124778016     0.409561041451
C                    -1.864607083816    -0.371871045509     2.195372474408
C                    -0.705218159418     1.756463455357     2.496590583388
C                    -0.601385113266    -1.104492789660     2.637434712288
C                     0.542623243753     0.986549762362     2.934000660364
C                    -1.943661782794    -2.794906695128     8.854495503123
C                    -1.562828539127    -4.091460405738     9.587381682417
C                    -1.134859655645    -1.595236235235     9.368876395097
C                    -1.955935175053     4.389928618884    -1.987385960011
C                    -1.690698232383     2.695189028392    -0.115295627798
C                    -2.330931932760     2.996382816387    -1.472346946215
C                    -0.067535659417    -1.896215653542     6.017330869702
C                     0.991650527955    -2.196450921688     4.952891884125
C                    -0.612290809982    -3.172307901785     6.669728745453
C                     1.348888982197    -0.965230085687     4.109125203589
C                    -8.691045754591    -3.680442190169     8.900196823984
N                   -10.650106578340    -1.392913853780     6.731071750896
N                    -4.015462117910    -2.545949328416     7.779171845041
N                    -1.859832672392    -2.942603483694     7.395622303001
N                    -1.530397104130     0.931083529140     1.623915967853
N                     0.175621454098    -0.277690625605     3.567394396035
O                    -4.008276579319    -2.341998531098    10.102896796950
O                    -2.785095289258     0.550852515598    -0.237183448946
F                    -8.075252844537    -4.558012149995     9.726114891674
F                    -9.480048367146    -2.893287813691     9.667475812440
F                    -9.504421904337    -4.397091392271     8.089564421033
S                    -3.366607808557    -2.964092576454     5.147678448719
H                    -7.541242690153    -0.410924746998     5.744523322061
H                    -5.107983955962    -0.782871687103     6.085103283003
H                    -5.989190405704    -3.814457927470     9.001021645864
H                    -2.403137014841    -0.944554206006     1.441606920336
H                    -2.521529546429    -0.234629809064     3.065108378388
H                    -1.282316081338     2.035952145747     3.389941507237
H                    -0.405965250554     2.671705519643     1.988745993068
H                    -0.907034483415    -2.026413678899     3.137159972620
H                    -0.002275700136    -1.379182467178     1.748146731686
H                     1.193982297013     0.828122196607     2.052016436541
H                     1.100821538092     1.594005919387     3.655184355525
H                    -0.492103034123    -4.290801164658     9.488956208221
H                    -2.115679005619    -4.944296178229     9.183667297712
H                    -1.800363335283    -3.988537639640    10.648957491194
H                    -0.063443733134    -1.778927064992     9.248691603798
H                    -1.347170902547    -1.444876653403    10.430231018384
H                    -1.396617639162    -0.683756657959     8.824859817165
H                    -0.871216330145     4.492888734310    -2.112623335317
H                    -2.284632144224     5.175272262075    -1.296019564426
H                    -2.421188815862     4.588505579294    -2.958615534114
H                    -0.598941282947     2.778928258045    -0.194677400626
H                    -1.999355784471     3.452318159818     0.617327931431
H                    -3.417602790688     2.903727924421    -1.384470466251
H                    -2.023996238647     2.230739646984    -2.191145994236
H                    -0.896292344791    -1.366531385269     5.545015602439
H                     0.341646522902    -1.224792782837     6.781441060352
H                     1.913984879224    -2.571971628334     5.413630775476
H                     0.631985431069    -3.001324315515     4.301939318339
H                     0.106725454701    -3.604152002899     7.370897122262
H                    -0.815718039367    -3.923521334714     5.901588065995
H                     1.884439777821    -0.243627948938     4.738180019515
H                     2.048941620608    -1.270115043479     3.307387687454
