69
1 1 C25F3H33N5O2S
C                   -11.603123402174    -2.089005288554    -2.150319332128
C                   -10.750214095219    -3.630831265741    -0.463350904771
C                    -9.722048021932    -4.134136764452     0.331044997247
C                    -8.206428937549    -2.487037971633    -0.605391265215
C                   -10.513756619196    -2.563125886206    -1.342541792603
C                    -9.226436897450    -1.989926661510    -1.407441488039
C                    -8.452922021243    -3.562663345393     0.250829754436
C                    -7.503838105940    -4.142885788862     2.472967186643
C                    -6.146019702821    -4.496032464991     0.625324418222
C                     1.757302545201     0.718440847967     0.924079016782
C                     0.181711733449    -0.962683219273     2.004555723165
C                    -0.121147073598    -0.282965151826    -0.311451650094
C                     0.100085386688    -2.439601335820     1.610253654753
C                    -0.195261522307    -1.734587915064    -0.766362225981
C                    -6.171798829936    -4.698922526590     2.982413935053
C                    -6.417823485962    -6.064345714236     3.644597884961
C                    -5.526164706788    -3.701792516789     3.952842017353
C                     4.411042339789     1.989621209840     3.481934324428
C                     2.513783614464     0.857350828871     2.236755799191
C                     3.660651682171     1.869926399596     2.152264307091
C                    -3.036143593882    -4.299626776886     1.246310758089
C                    -1.664897980514    -4.907384665465     0.910285499484
C                    -4.073339689970    -5.368936489430     1.630898133058
C                    -0.862362258767    -4.059098599879    -0.074356171567
C                    -8.944349052646    -0.831476333439    -2.340922592118
N                   -12.510377467673    -1.735250587810    -2.787879031266
N                    -7.402034745438    -4.057846698893     1.080650377051
N                    -5.414561677566    -4.820197856868     1.724602383433
N                     0.673700195414    -0.170590936780     0.898274960129
N                    -0.726513541568    -2.610459639385     0.355400129655
O                    -8.464175752518    -3.838963018116     3.146473428026
O                     2.055966903172     1.334042513377    -0.088459061738
F                    -7.654919220898    -0.418344361836    -2.240058410038
F                    -9.155271479251    -1.169983115656    -3.630420994650
F                    -9.726711724191     0.233144027626    -2.062976326295
S                    -5.670165488877    -4.616902524902    -0.962964895010
H                   -11.742769727875    -4.065583894142    -0.412555904000
H                    -9.908885090671    -4.958947819875     1.009833882430
H                    -7.220137000908    -2.045195437547    -0.652017804803
H                    -0.812252187934    -0.610455591664     2.324197306070
H                     0.840085834986    -0.883752316011     2.867951427981
H                     0.350738866903     0.317951517898    -1.090402239902
H                    -1.134111309109     0.115392038594    -0.146694151213
H                     1.090071869277    -2.841943262386     1.385101642369
H                    -0.364065692235    -3.034840886592     2.397393679945
H                    -0.868765541145    -1.858211881973    -1.617032869914
H                     0.792612262603    -2.121710974932    -1.024365559602
H                    -5.489081692982    -6.475609743203     4.050613544937
H                    -6.833716243866    -6.777987258284     2.928042722942
H                    -7.126063284296    -5.941376979841     4.467297391020
H                    -4.572004897221    -4.090888963144     4.322756811134
H                    -6.187637114435    -3.545273015886     4.808007540140
H                    -5.354632459002    -2.736473407620     3.467409738230
H                     4.852747864603     1.032336444800     3.782462883752
H                     3.748353253191     2.320671631154     4.289783583341
H                     5.223769416644     2.717260570632     3.403237047613
H                     2.908679583751    -0.124933341832     2.531070516285
H                     1.811509294327     1.154212147790     3.027146237190
H                     3.256649340395     2.841773523504     1.854222277395
H                     4.345357647003     1.569271372211     1.353936898862
H                    -3.437747455826    -3.786844709186     0.364864030142
H                    -2.962005215779    -3.567620100699     2.061311026780
H                    -1.086940082126    -5.122896180342     1.814554074162
H                    -1.805004886184    -5.870507403454     0.407341317681
H                    -3.822704413450    -5.826656938096     2.590372024843
H                    -4.072339063490    -6.156949159594     0.871057899780
H                    -1.368882953541    -4.033368876748    -1.042026653213
H                     0.151708750881    -4.437220291892    -0.222194298075
H                    -1.675011573031    -2.278034082297     0.568581634939
