
  -OEChem-05262117483D

 69 71  0     0  0  0  0  0  0999 V2000
   -8.9019   -4.6036   -3.7039 C   0  0  0  0  0  0  0  0  0  0  0  0
   -7.1682   -3.5690   -2.3397 C   0  0  0  0  0  0  0  0  0  0  0  0
   -6.4749   -3.4239   -1.1414 C   0  0  0  0  0  0  0  0  0  0  0  0
   -7.8901   -5.1128   -0.1242 C   0  0  0  0  0  0  0  0  0  0  0  0
   -8.2258   -4.4874   -2.4412 C   0  0  0  0  0  0  0  0  0  0  0  0
   -8.5884   -5.2590   -1.3189 C   0  0  0  0  0  0  0  0  0  0  0  0
   -6.8342   -4.2046   -0.0438 C   0  0  0  0  0  0  0  0  0  0  0  0
   -6.7500   -3.5951    2.3686 C   0  0  0  0  0  0  0  0  0  0  0  0
   -4.8002   -4.4040    1.4153 C   0  0  0  0  0  0  0  0  0  0  0  0
    1.7553   -5.7195   -3.8254 C   0  0  0  0  0  0  0  0  0  0  0  0
    0.6933   -6.3832   -1.6109 C   0  0  0  0  0  0  0  0  0  0  0  0
    2.2804   -4.5424   -1.7322 C   0  0  0  0  0  0  0  0  0  0  0  0
   -0.2765   -5.5251   -0.7995 C   0  0  0  0  0  0  0  0  0  0  0  0
    1.3493   -3.6432   -0.9293 C   0  0  0  0  0  0  0  0  0  0  0  0
   -5.6788   -3.6248    3.4607 C   0  0  0  0  0  0  0  0  0  0  0  0
   -6.1190   -4.5897    4.5722 C   0  0  0  0  0  0  0  0  0  0  0  0
   -5.4337   -2.2062    3.9917 C   0  0  0  0  0  0  0  0  0  0  0  0
    0.5931   -8.0936   -6.6913 C   0  0  0  0  0  0  0  0  0  0  0  0
    1.0130   -6.8508   -4.5208 C   0  0  0  0  0  0  0  0  0  0  0  0
    1.3461   -6.9453   -6.0132 C   0  0  0  0  0  0  0  0  0  0  0  0
   -2.0671   -3.5335    2.7771 C   0  0  0  0  0  0  0  0  0  0  0  0
   -0.9562   -4.3487    2.0759 C   0  0  0  0  0  0  0  0  0  0  0  0
   -3.2221   -4.4141    3.3246 C   0  0  0  0  0  0  0  0  0  0  0  0
   -0.4427   -3.6130    0.8433 C   0  0  0  0  0  0  0  0  0  0  0  0
   -9.7266   -6.2565   -1.4067 C   0  0  0  0  0  0  0  0  0  0  0  0
   -9.4116   -4.6648   -4.7484 N   0  0  0  0  0  0  0  0  0  0  0  0
   -6.1398   -4.0623    1.1967 N   0  0  0  0  0  0  0  0  0  0  0  0
   -4.5142   -4.1370    2.7072 N   0  0  0  0  0  0  0  0  0  0  0  0
    1.5224   -5.5471   -2.4549 N   0  0  0  0  0  0  0  0  0  0  0  0
    0.4776   -4.4741   -0.0054 N   0  3  0  0  0  0  0  0  0  0  0  0
   -7.9019   -3.2435    2.4843 O   0  0  0  0  0  0  0  0  0  0  0  0
    2.5226   -4.9662   -4.4077 O   0  0  0  0  0  0  0  0  0  0  0  0
   -9.9121   -6.8979   -0.2305 F   0  0  0  0  0  0  0  0  0  0  0  0
  -10.8886   -5.6517   -1.7284 F   0  0  0  0  0  0  0  0  0  0  0  0
   -9.4795   -7.1976   -2.3452 F   0  0  0  0  0  0  0  0  0  0  0  0
   -3.7807   -5.0463    0.2554 S   0  0  0  0  0  0  0  0  0  0  0  0
   -6.9029   -2.9705   -3.2047 H   0  0  0  0  0  0  0  0  0  0  0  0
   -5.6596   -2.7132   -1.0594 H   0  0  0  0  0  0  0  0  0  0  0  0
   -8.1664   -5.7028    0.7415 H   0  0  0  0  0  0  0  0  0  0  0  0
    1.3136   -6.9909   -0.9324 H   0  0  0  0  0  0  0  0  0  0  0  0
    0.1005   -7.0756   -2.2061 H   0  0  0  0  0  0  0  0  0  0  0  0
    2.8326   -3.9412   -2.4562 H   0  0  0  0  0  0  0  0  0  0  0  0
    3.0146   -5.0181   -1.0629 H   0  0  0  0  0  0  0  0  0  0  0  0
   -0.9612   -4.9800   -1.4512 H   0  0  0  0  0  0  0  0  0  0  0  0
   -0.8584   -6.1237   -0.0997 H   0  0  0  0  0  0  0  0  0  0  0  0
    1.9081   -2.9430   -0.3046 H   0  0  0  0  0  0  0  0  0  0  0  0
    0.6703   -3.0883   -1.5799 H   0  0  0  0  0  0  0  0  0  0  0  0
   -5.3914   -4.6053    5.3884 H   0  0  0  0  0  0  0  0  0  0  0  0
   -6.2381   -5.6063    4.1869 H   0  0  0  0  0  0  0  0  0  0  0  0
   -7.0779   -4.2549    4.9746 H   0  0  0  0  0  0  0  0  0  0  0  0
   -4.6647   -2.2146    4.7699 H   0  0  0  0  0  0  0  0  0  0  0  0
   -6.3580   -1.8175    4.4251 H   0  0  0  0  0  0  0  0  0  0  0  0
   -5.1164   -1.5341    3.1894 H   0  0  0  0  0  0  0  0  0  0  0  0
   -0.4927   -7.9652   -6.6124 H   0  0  0  0  0  0  0  0  0  0  0  0
    0.8485   -9.0613   -6.2443 H   0  0  0  0  0  0  0  0  0  0  0  0
    0.8426   -8.1454   -7.7549 H   0  0  0  0  0  0  0  0  0  0  0  0
   -0.0683   -6.7072   -4.3903 H   0  0  0  0  0  0  0  0  0  0  0  0
    1.2572   -7.7991   -4.0235 H   0  0  0  0  0  0  0  0  0  0  0  0
    2.4258   -7.0766   -6.1299 H   0  0  0  0  0  0  0  0  0  0  0  0
    1.1034   -5.9936   -6.4950 H   0  0  0  0  0  0  0  0  0  0  0  0
   -2.4984   -2.8154    2.0752 H   0  0  0  0  0  0  0  0  0  0  0  0
   -1.6358   -2.9439    3.5909 H   0  0  0  0  0  0  0  0  0  0  0  0
   -0.1283   -4.5461    2.7680 H   0  0  0  0  0  0  0  0  0  0  0  0
   -1.3768   -5.3081    1.7722 H   0  0  0  0  0  0  0  0  0  0  0  0
   -3.3478   -4.2509    4.3949 H   0  0  0  0  0  0  0  0  0  0  0  0
   -2.9931   -5.4758    3.1884 H   0  0  0  0  0  0  0  0  0  0  0  0
    0.1272   -2.7211    1.1143 H   0  0  0  0  0  0  0  0  0  0  0  0
   -1.2711   -3.3239    0.1938 H   0  0  0  0  0  0  0  0  0  0  0  0
    1.1085   -4.9706    0.6350 H   0  0  0  0  0  0  0  0  0  0  0  0
  1  5  1  0  0  0  0
  1 26  3  0  0  0  0
  2  3  1  0  0  0  0
  2  5  2  0  0  0  0
  2 37  1  0  0  0  0
  3  7  2  0  0  0  0
  3 38  1  0  0  0  0
  4  6  2  0  0  0  0
  4  7  1  0  0  0  0
  4 39  1  0  0  0  0
  5  6  1  0  0  0  0
  6 25  1  0  0  0  0
  7 27  1  0  0  0  0
  8 15  1  0  0  0  0
  8 27  1  0  0  0  0
  8 31  2  0  0  0  0
  9 27  1  0  0  0  0
  9 28  1  0  0  0  0
  9 36  2  0  0  0  0
 10 19  1  0  0  0  0
 10 29  1  0  0  0  0
 10 32  2  0  0  0  0
 11 13  1  0  0  0  0
 11 29  1  0  0  0  0
 11 40  1  0  0  0  0
 11 41  1  0  0  0  0
 12 14  1  0  0  0  0
 12 29  1  0  0  0  0
 12 42  1  0  0  0  0
 12 43  1  0  0  0  0
 13 30  1  0  0  0  0
 13 44  1  0  0  0  0
 13 45  1  0  0  0  0
 14 30  1  0  0  0  0
 14 46  1  0  0  0  0
 14 47  1  0  0  0  0
 15 16  1  0  0  0  0
 15 17  1  0  0  0  0
 15 28  1  0  0  0  0
 16 48  1  0  0  0  0
 16 49  1  0  0  0  0
 16 50  1  0  0  0  0
 17 51  1  0  0  0  0
 17 52  1  0  0  0  0
 17 53  1  0  0  0  0
 18 20  1  0  0  0  0
 18 54  1  0  0  0  0
 18 55  1  0  0  0  0
 18 56  1  0  0  0  0
 19 20  1  0  0  0  0
 19 57  1  0  0  0  0
 19 58  1  0  0  0  0
 20 59  1  0  0  0  0
 20 60  1  0  0  0  0
 21 22  1  0  0  0  0
 21 23  1  0  0  0  0
 21 61  1  0  0  0  0
 21 62  1  0  0  0  0
 22 24  1  0  0  0  0
 22 63  1  0  0  0  0
 22 64  1  0  0  0  0
 23 28  1  0  0  0  0
 23 65  1  0  0  0  0
 23 66  1  0  0  0  0
 24 30  1  0  0  0  0
 24 67  1  0  0  0  0
 24 68  1  0  0  0  0
 25 33  1  0  0  0  0
 25 34  1  0  0  0  0
 25 35  1  0  0  0  0
 30 69  1  0  0  0  0
M  CHG  1  30   1
M  END
$$$$
