60
0 1 C27H26N4O3
C                    10.671394700179    -5.346139387025    -0.571675686464
C                     9.069203795787    -3.654842597007    -1.372415470719
C                     8.571427579791    -4.918338935357     0.643155552345
C                     7.865591415475    -2.970844999373    -1.232552865001
C                     7.371165536818    -4.226361514722     0.772205654746
C                     5.224720871977    -2.148042028586     1.250883066152
C                     4.951312851079    -2.163690036835    -1.144407383094
C                     4.022286773518    -1.464969475050     1.386597536384
C                     3.747211585110    -1.473956105319    -1.010219991290
C                     2.271589672265     1.313968678609    -1.404411758004
C                    -0.389654728312     1.053513026666    -2.170905786153
C                     9.430982516412    -4.636246439085    -0.432994939836
C                     6.994616157300    -3.241894789657    -0.160641114027
C                     5.715005383324    -2.511740387169    -0.018722564886
C                     3.262767967769    -1.108897692512     0.257083639505
C                     1.442784069750     0.398024861840    -0.741824463934
C                     0.094648863447     0.272311719179    -1.120307869738
C                     1.776089420993     2.112599538218    -2.433278345499
C                     0.433618808017     1.965472070245    -2.836820879905
C                     1.971501076166    -0.390052510822     0.400634255832
C                    -0.021371922342     0.845800499061     2.944147839758
C                    -0.769087986042    -0.723566934689    -0.394630825046
C                    -1.055002972728    -0.316824111142     1.058227445268
C                    -1.641163811104    -1.490385374927     1.852067367250
C                     1.005787539472     1.452928021162     5.075927495936
C                     2.328109645483     4.386460237984    -2.789096646861
C                     0.435939678720     2.490161096154    -5.152826448669
N                    11.678486693226    -5.922460773139    -0.684286766521
N                     1.383216850731    -0.476102530351     1.553936763873
N                     0.169519845063     0.233488828913     1.693233779696
N                     1.111807241111     0.977819523743     3.704346617055
O                    -1.122647653234     1.288940136450     3.278934818398
O                     2.625413271882     3.003667157655    -3.056665070236
O                    -0.109595648390     2.731079334975    -3.843075090175
H                     9.737303719364    -3.429447464738    -2.198003956258
H                     8.845703149683    -5.683031707782     1.363415484017
H                     7.610002362917    -2.195449485568    -1.948588247997
H                     6.702710747004    -4.473023326569     1.591699548140
H                     5.809134801129    -2.377110211625     2.137718220423
H                     5.283215432914    -2.463105434854    -2.134563699818
H                     3.658992383526    -1.193612772567     2.371744555796
H                     3.170194029332    -1.233981288921    -1.897231329821
H                     3.311041148084     1.438105354733    -1.115540522831
H                    -1.422457510529     0.966492469673    -2.498058621514
H                    -1.727423982779    -0.851106347281    -0.905629951846
H                    -0.277630220026    -1.704091935132    -0.399188951159
H                    -1.762241927620     0.514221551424     1.064375500187
H                    -0.912370537070    -2.304299904276     1.929008759995
H                    -2.535583032615    -1.877129305783     1.350867946212
H                    -1.925208616735    -1.168855566023     2.856032166403
H                     2.000760284289     1.734466013802     5.430607044983
H                     0.583400501876     0.697659487393     5.751844292975
H                     0.358101219475     2.330322373531     5.101323721005
H                     3.079436184749     4.967344242926    -3.327268663588
H                     2.405480031610     4.589871507385    -1.714548990116
H                     1.326914909108     4.651000180183    -3.142768261491
H                    -0.103578988174     3.154786865507    -5.829838452030
H                     0.263320929576     1.448090632359    -5.447677285779
H                     1.506625511308     2.710548285805    -5.184513939884
H                     1.879851732028     0.368285150226     3.451550291934
