
  -OEChem-05262117483D

 36 38  0     1  0  0  0  0  0999 V2000
   -0.0033   -6.6154   -6.4414 C   0  0  0  0  0  0  0  0  0  0  0  0
    0.8084   -4.2874   -6.4456 C   0  0  0  0  0  0  0  0  0  0  0  0
   -0.5984   -5.0623   -4.6266 C   0  0  0  0  0  0  0  0  0  0  0  0
    0.8752   -3.0331   -5.8479 C   0  0  0  0  0  0  0  0  0  0  0  0
   -0.5239   -3.7990   -4.0402 C   0  0  0  0  0  0  0  0  0  0  0  0
    3.1611    0.6667   -4.8988 C   0  0  0  0  0  0  0  0  0  0  0  0
    1.7942    0.4993   -4.8763 C   0  0  0  0  0  0  0  0  0  0  0  0
    2.8143   -1.2620   -4.0157 C   0  0  0  0  0  0  0  0  0  0  0  0
    0.0696   -5.3154   -5.8341 C   0  0  0  0  0  0  0  0  0  0  0  0
    0.2158   -2.7680   -4.6355 C   0  0  0  0  0  0  0  0  0  0  0  0
   -0.3177    0.1230   -0.5370 C   0  0  0  0  0  0  0  0  0  0  0  0
    0.1396   -1.3250   -0.1936 C   0  0  0  0  0  0  0  0  0  0  0  0
   -0.2437    0.2365   -2.0818 C   0  0  0  0  0  0  0  0  0  0  0  0
    0.6996   -1.8964   -1.5095 C   0  0  0  0  0  0  0  0  0  0  0  0
   -0.1704   -1.2196   -2.5818 C   0  0  0  0  0  0  0  0  0  0  0  0
    0.2664   -1.3541   -4.0532 C   0  0  1  0  0  0  0  0  0  0  0  0
   -0.0647   -7.6700   -6.9338 N   0  0  0  0  0  0  0  0  0  0  0  0
    3.7878   -0.4398   -4.3614 N   0  0  0  0  0  0  0  0  0  0  0  0
    1.5757   -0.7437   -4.3051 N   0  0  0  0  0  0  0  0  0  0  0  0
    1.3251   -4.4785   -7.3811 H   0  0  0  0  0  0  0  0  0  0  0  0
   -1.1700   -5.8538   -4.1518 H   0  0  0  0  0  0  0  0  0  0  0  0
    1.4552   -2.2494   -6.3256 H   0  0  0  0  0  0  0  0  0  0  0  0
   -1.0516   -3.6319   -3.1085 H   0  0  0  0  0  0  0  0  0  0  0  0
    3.7246    1.5124   -5.2714 H   0  0  0  0  0  0  0  0  0  0  0  0
    0.9752    1.1274   -5.1975 H   0  0  0  0  0  0  0  0  0  0  0  0
    2.9423   -2.2467   -3.5871 H   0  0  0  0  0  0  0  0  0  0  0  0
   -1.3343    0.3041   -0.1756 H   0  0  0  0  0  0  0  0  0  0  0  0
    0.3233    0.8706   -0.0618 H   0  0  0  0  0  0  0  0  0  0  0  0
    0.8767   -1.3528    0.6136 H   0  0  0  0  0  0  0  0  0  0  0  0
   -0.7165   -1.9243    0.1356 H   0  0  0  0  0  0  0  0  0  0  0  0
   -1.0927    0.7806   -2.5089 H   0  0  0  0  0  0  0  0  0  0  0  0
    0.6661    0.7678   -2.3777 H   0  0  0  0  0  0  0  0  0  0  0  0
    1.7408   -1.5819   -1.6357 H   0  0  0  0  0  0  0  0  0  0  0  0
    0.6783   -2.9894   -1.5463 H   0  0  0  0  0  0  0  0  0  0  0  0
   -1.1834   -1.6374   -2.5174 H   0  0  0  0  0  0  0  0  0  0  0  0
   -0.4409   -0.7566   -4.6412 H   0  0  0  0  0  0  0  0  0  0  0  0
  1  9  1  0  0  0  0
  1 17  3  0  0  0  0
  2  4  1  0  0  0  0
  2  9  2  0  0  0  0
  2 20  1  0  0  0  0
  3  5  2  0  0  0  0
  3  9  1  0  0  0  0
  3 21  1  0  0  0  0
  4 10  2  0  0  0  0
  4 22  1  0  0  0  0
  5 10  1  0  0  0  0
  5 23  1  0  0  0  0
  6  7  2  0  0  0  0
  6 18  1  0  0  0  0
  6 24  1  0  0  0  0
  7 19  1  0  0  0  0
  7 25  1  0  0  0  0
  8 18  2  0  0  0  0
  8 19  1  0  0  0  0
  8 26  1  0  0  0  0
 10 16  1  0  0  0  0
 11 12  1  0  0  0  0
 11 13  1  0  0  0  0
 11 27  1  0  0  0  0
 11 28  1  0  0  0  0
 12 14  1  0  0  0  0
 12 29  1  0  0  0  0
 12 30  1  0  0  0  0
 13 15  1  0  0  0  0
 13 31  1  0  0  0  0
 13 32  1  0  0  0  0
 14 15  1  0  0  0  0
 14 33  1  0  0  0  0
 14 34  1  0  0  0  0
 15 16  1  0  0  0  0
 15 35  1  0  0  0  0
 16 19  1  0  0  0  0
 16 36  1  0  0  0  0
M  END
$$$$
