16   
torsion grid (-165,)
C       -0.4053016553    0.9475357878   -2.9991472335
C        0.2727532415    0.3231109353   -1.8510845081
C       -0.4686540640   -0.1075528769   -0.6080053510
C        0.3618087612    0.1252538159    0.6630116862
C       -0.3841781697   -0.3142353766    1.9123105624
O        0.3655627056    1.7440868953   -2.0787359942
F        0.2347823805    0.2127947064    3.0592290982
H        0.0195215360    0.8554767723   -3.9984279154
H       -1.4822498990    1.1114913933   -2.9577632386
H        1.2096536748   -0.2033712253   -2.0460368968
H       -1.4088087195    0.4520667164   -0.5440104532
H       -0.7303259799   -1.1702723448   -0.7075589163
H        1.3218138127   -0.3999461027    0.5996848658
H        0.5816502500    1.1943086164    0.7515163974
H       -0.4035235508   -1.4040016103    2.0226341052
H       -1.4136655125    0.0619070475    1.9097084456
16   
torsion grid (-150,)
C       -0.3979784578    0.9774133770   -2.9886866039
C        0.2649644343    0.3088441014   -1.8567315395
C       -0.4790069810   -0.0931851354   -0.6058509075
C        0.3753481724    0.0981459290    0.6565172368
C       -0.3632459130   -0.3230528398    1.9224026042
O        0.4286836457    1.7248239613   -2.0755683943
F        0.0758927212    0.4361036743    3.0219889137
H        0.0046184696    0.8721047712   -3.9958411374
H       -1.4639901429    1.1971342390   -2.9277925375
H        1.1697485262   -0.2642276942   -2.0713886835
H       -1.3917684767    0.5077665429   -0.5244957718
H       -0.7899143161   -1.1424435775   -0.7077071348
H        1.3246021255   -0.4422059537    0.5690002237
H        0.6187282392    1.1614354708    0.7508277007
H       -0.2073482049   -1.3777677438    2.1710503153
H       -1.4391422809   -0.1357800919    1.8299148737
16   
torsion grid (-135,)
C       -0.4159850785    1.0216235786   -2.9780040256
C        0.2413095371    0.3080108096   -1.8703943481
C       -0.4929209143   -0.0873860859   -0.6118077905
C        0.3898462161    0.0549114118    0.6374061962
C       -0.3363263787   -0.3419342975    1.9249325530
O        0.4551492380    1.7206420406   -2.0681174270
F       -0.0955524469    0.6041728917    2.9388692119
H       -0.0360050054    0.9187060690   -3.9941757139
H       -1.4714705684    1.2806216090   -2.8931855739
H        1.1194390283   -0.2948802850   -2.1127368761
H       -1.3829549918    0.5427682728   -0.5032301053
H       -0.8407468491   -1.1239185686   -0.7221609960
H        1.3128558483   -0.5240455613    0.5209654965
H        0.6844717841    1.1043967513    0.7350333953
H       -0.0133965398   -1.3137091346    2.3102672575
H       -1.4220765253   -0.3628779207    1.7791165291
16   
torsion grid (-120,)
C       -0.3797075389    1.0528674422   -2.9622238734
C        0.2500288520    0.3045290017   -1.8614886671
C       -0.4953849075   -0.0686123053   -0.6028368284
C        0.3947065606    0.0292505299    0.6452367905
C       -0.3397541911   -0.3301424983    1.9422763127
O        0.5230811985    1.7081884667   -2.0509126143
F       -0.3286789405    0.7592288720    2.8347359403
H       -0.0073488302    0.9401145046   -3.9801993521
H       -1.4229969772    1.3557417155   -2.8721610932
H        1.1013009977   -0.3330782298   -2.1112656120
H       -1.3612185972    0.5936953201   -0.4885744156
H       -0.8810285740   -1.0910886328   -0.7155812012
H        1.2768876306   -0.6094521387    0.5213095257
H        0.7614693124    1.0553053968    0.7431340669
H        0.1275016664   -1.1682494615    2.4673718177
H       -1.3929424949   -0.5704749625    1.7606612048
16   
torsion grid (-105,)
C       -0.3970019795    1.0747593088   -2.9656444239
C        0.2210879799    0.2994651614   -1.8769720131
C       -0.5181460373   -0.0532229453   -0.6089122906
C        0.3944005488   -0.0030747874    0.6251275541
C       -0.3232476346   -0.3486195657    1.9320198297
O        0.5424553186    1.6930358041   -2.0656813387
F       -0.5537152873    0.8163916816    2.6897496557
H       -0.0441179469    0.9524958787   -3.9894648454
H       -1.4270862199    1.4150138912   -2.8587884577
H        1.0451097469   -0.3673612051   -2.1419503799
H       -1.3564759465    0.6404983951   -0.4773238056
H       -0.9428043286   -1.0600361082   -0.7198112564
H        1.2332805088   -0.6948926517    0.4794378079
H        0.8274411303    0.9961644753    0.7292083648
H        0.2775854228   -1.0095343181    2.5637280438
H       -1.2996570347   -0.8139429957    1.7593098622
16   
torsion grid (-90,)
C        1.8325201911   -0.1940880555   -2.3866138018
C        0.5005744914    0.1917815022   -1.8926898212
C       -0.0568601872   -0.3577654505   -0.5985258164
C        0.2211495274    0.5532536446    0.6073061035
C       -0.4545489172    1.9189055591    0.5384979552
O        0.6390482553   -0.7431104871   -2.9811765954
F        0.3866940517    2.8537294726   -0.1007284639
H        2.3948777180    0.4880640625   -3.0232198976
H        2.4281433676   -0.9056554559   -1.8138183233
H        0.1204129691    1.1653260711   -2.2039353157
H       -1.1394884902   -0.5014817247   -0.7069494990
H        0.3771747500   -1.3486195704   -0.4270985063
H       -0.1380803646    0.0463589660    1.5113620202
H        1.2966158445    0.7114329471    0.7435258671
H       -0.6459028341    2.3195290277    1.5386582292
H       -1.3955581369    1.8909060717   -0.0213814146
16   
torsion grid (-75,)
C       -0.2964171092    0.4663387762   -3.1092005699
C        0.3731868633    0.5483682347   -1.8002781204
C       -0.0748799939   -0.2587683412   -0.6057451552
C        0.0467850724    0.5332360763    0.7030927753
C       -0.3864582920   -0.2537454521    1.9277868537
O       -0.5184125090    1.5937764029   -2.2406616101
F       -1.7913502960   -0.3472873635    1.9734206293
H        0.2595356826    0.6875403696   -4.0200905687
H       -1.1529600996   -0.1973284200   -3.2277976389
H        1.4209485944    0.8584508092   -1.7924239166
H       -1.1142099209   -0.5716526686   -0.7506846545
H        0.5359557507   -1.1699552375   -0.5478910175
H        1.0924361485    0.8353694252    0.8536062049
H       -0.5445294839    1.4527354874    0.6445303100
H       -0.0769720861    0.2455291976    2.8516499149
H        0.0066481881   -1.2766476328    1.9218152924
16   
torsion grid (-60,)
C       -0.3144151231    0.4850130214   -3.1021524168
C        0.3747538599    0.5311772634   -1.8016842091
C       -0.0980091315   -0.2578410386   -0.6046373090
C        0.0728237384    0.5279755110    0.7023845257
C       -0.3858393798   -0.2427787184    1.9272895359
O       -0.4715826290    1.6194201290   -2.2284475566
F       -1.7511164284   -0.5707144657    1.8162862166
H        0.2399600336    0.6821674594   -4.0195068564
H       -1.2030852589   -0.1366955720   -3.2111516046
H        1.4360253876    0.7912062274   -1.8066197236
H       -1.1517429446   -0.5207201992   -0.7363140176
H        0.4693985944   -1.1975191001   -0.5557652488
H        1.1293081859    0.7889849143    0.8536565863
H       -0.4827302522    1.4694815494    0.6358334828
H       -0.2717810608    0.3491917990    2.8410775596
H        0.1585849719   -1.1876234840    2.0385083684
16   
torsion grid (-45,)
C       -0.3249232051    0.5061021605   -3.0959874247
C        0.3787953675    0.5063373793   -1.8025488456
C       -0.1271137006   -0.2576568823   -0.6029176932
C        0.0966700170    0.5220767306    0.7003709409
C       -0.3661223038   -0.2326342050    1.9390522327
O       -0.4070051104    1.6443960478   -2.2168678154
F       -1.6325421203   -0.8116060352    1.7273824629
H        0.2300270135    0.6745434675   -4.0187202588
H       -1.2492560824   -0.0625263218   -3.1978277512
H        1.4532241550    0.7040306065   -1.8182954262
H       -1.1936697264   -0.4627945325   -0.7241501893
H        0.3871416118   -1.2278361008   -0.5609350699
H        1.1602762461    0.7596286039    0.8336663844
H       -0.4355564176    1.4768443827    0.6271865485
H       -0.4502328670    0.4250583171    2.8096401840
H        0.3122230481   -1.0601311776    2.1768244827
16   
torsion grid (-30,)
C       -0.3324232538    0.5293904998   -3.0938455626
C        0.3808276660    0.4882149298   -1.8064354335
C       -0.1536126521   -0.2593006609   -0.6088704760
C        0.1173369244    0.5078778840    0.6939447758
C       -0.3711986869   -0.2227928927    1.9469534209
O       -0.3532543571    1.6651675855   -2.2076273191
F       -1.4941608220   -1.0259447913    1.6662836552
H        0.2228768943    0.6768161604   -4.0199636213
H       -1.2835901210    0.0060901594   -3.1915050347
H        1.4632820416    0.6348704269   -1.8295701537
H       -1.2289694365   -0.4126615160   -0.7248519181
H        0.3120231455   -1.2533061477   -0.5763630847
H        1.1906933198    0.7024342815    0.8110380875
H       -0.3725545877    1.4841312107    0.6130879214
H       -0.6594106846    0.4719849781    2.7411579652
H        0.3945271422   -0.9061753807    2.3297817193
16   
torsion grid (-15,)
C       -0.3534049006    0.5587391526   -3.0891600645
C        0.3731636147    0.4793375007   -1.8111105362
C       -0.1765074477   -0.2540867657   -0.6118568760
C        0.1472806182    0.4955115883    0.6902741806
C       -0.3598077195   -0.2137474846    1.9580172361
O       -0.3160286860    1.6888221180   -2.1959915910
F       -1.3003635116   -1.2177125308    1.6510522947
H        0.1966913486    0.6886271171   -4.0209855935
H       -1.3267086041    0.0761968961   -3.1783626435
H        1.4604220862    0.5808229847   -1.8471155015
H       -1.2587297043   -0.3624943872   -0.7168310110
H        0.2463594017   -1.2660835190   -0.5911004100
H        1.2307261065    0.6386635282    0.7780019962
H       -0.2952502097    1.4940222410    0.6157743326
H       -0.8502560952    0.4794029371    2.6470424923
H        0.4546076409   -0.7212085883    2.4843093200
16   
torsion grid (0,)
C       -0.3682152645    0.5771639445   -3.0779981290
C        0.3678247545    0.4641642830   -1.8080283436
C       -0.1958896832   -0.2592775034   -0.6094257733
C        0.1723357327    0.4677022033    0.6941305133
C       -0.3836938312   -0.2067770493    1.9645511058
O       -0.2836231203    1.6991666785   -2.1777529390
F       -1.1248043704   -1.3669588944    1.6592506858
H        0.1766405719    0.6949772341   -4.0144907261
H       -1.3580855640    0.1283017651   -3.1606459420
H        1.4575415273    0.5291531886   -1.8535916211
H       -1.2828443256   -0.3276065366   -0.7071974609
H        0.1892870040   -1.2851006824   -0.5983743544
H        1.2639358258    0.5345200773    0.7682290964
H       -0.2000460324    1.4947477976    0.6278990976
H       -1.0635119803    0.4547603152    2.5087043782
H        0.4164365938   -0.5247358051    2.6390040933
16   
torsion grid (15,)
C       -0.3792560201    0.5973156046   -3.0727478458
C        0.3601901209    0.4450571767   -1.8089452105
C       -0.2238824249   -0.2564558108   -0.6072113820
C        0.1909337423    0.4460662658    0.6951700232
C       -0.3852877312   -0.2069471078    1.9633797992
O       -0.2377505281    1.7100306550   -2.1679962435
F       -0.8896418549   -1.4973149602    1.7010509245
H        0.1630069872    0.6953151838   -4.0130178852
H       -1.3889396054    0.1939527163   -3.1500536894
H        1.4513192950    0.4609826693   -1.8630511722
H       -1.3147458422   -0.2754845459   -0.6978652917
H        0.1147510175   -1.2974766731   -0.5983332977
H        1.2862583911    0.4509246557    0.7497298698
H       -0.1254023502    1.4931296495    0.6535176895
H       -1.2295582431    0.3670670364    2.3571508303
H        0.3676628627   -0.3154602525    2.7488369517
16   
torsion grid (30,)
C       -0.3851922931    0.6275421412   -3.0715625029
C        0.3612017614    0.4419485075   -1.8164206740
C       -0.2366941562   -0.2384153820   -0.6094679548
C        0.2219771892    0.4361640275    0.6918561232
C       -0.3831706773   -0.1906386584    1.9497180775
O       -0.1886694784    1.7312216399   -2.1658677787
F       -0.6444499985   -1.5632083136    1.7629404409
H        0.1500542326    0.7059970471   -4.0176435056
H       -1.4112628728    0.2657560878   -3.1386388211
H        1.4513624376    0.4134941262   -1.8824155613
H       -1.3294471992   -0.2100904722   -0.6873088998
H        0.0580564748   -1.2924494596   -0.6058067191
H        1.3165786569    0.3807045976    0.7430364352
H       -0.0396470761    1.4996640114    0.6712925918
H       -1.3491569843    0.2654912921    2.1906979551
H        0.2801533073   -0.1014809159    2.8147994653
16   
torsion grid (45,)
C       -0.3883928318    0.6557172550   -3.0706554633
C        0.3602263861    0.4290835407   -1.8236236818
C       -0.2567743227   -0.2259144963   -0.6123022995
C        0.2401095143    0.4178712704    0.6896466357
C       -0.3895673439   -0.1884734729    1.9353644374
O       -0.1314561005    1.7446053928   -2.1622297384
F       -0.3985463364   -1.5958605722    1.8555321119
H        0.1406605019    0.7134184674   -4.0216703951
H       -1.4310245529    0.3430706295   -3.1293166718
H        1.4469779792    0.3490142387   -1.9004284477
H       -1.3482643309   -0.1445870509   -0.6789875754
H       -0.0111658946   -1.2929313779   -0.6140254019
H        1.3310906862    0.3148831852    0.7469757170
H        0.0210050940    1.4920148637    0.6838390061
H       -1.4363731730    0.1180830677    2.0391706731
H        0.1567928138    0.0824397228    2.8438799343
16   
torsion grid (60,)
C       -0.3975807022    0.6704122447   -3.0616264661
C        0.3481001387    0.3994752438   -1.8217486894
C       -0.2948404553   -0.2200594268   -0.6054245646
C        0.2444065435    0.3895124492    0.6955198547
C       -0.3875625346   -0.2067769991    1.9392747812
O       -0.0725147891    1.7412472461   -2.1541530737
F       -0.1404075604   -1.5936131239    1.9949205705
H        0.1260127737    0.6998419993   -4.0169815429
H       -1.4565056874    0.4165448271   -3.1125438410
H        1.4278728803    0.2589583983   -1.9075306601
H       -1.3801107407   -0.0737251860   -0.6617468067
H       -0.1107634095   -1.3004990021   -0.6124206459
H        1.3318540797    0.2567404870    0.7507351585
H        0.0530186782    1.4696307113    0.7017118045
H       -1.4758438952   -0.0788796669    1.9405795349
H        0.0284060527    0.2295720740    2.8528934150
16   
torsion grid (75,)
C       -0.3993707032    0.7078448844   -3.0588780295
C        0.3409987187    0.3899990074   -1.8269471244
C       -0.3230308206   -0.2071993286   -0.6105251550
C        0.2501438317    0.3636205319    0.6937643705
C       -0.3910216014   -0.2196155456    1.9398906502
O       -0.0155081605    1.7534166234   -2.1444496601
F        0.0834765175   -1.5294253683    2.1602602809
H        0.1183852288    0.7200925709   -4.0176999274
H       -1.4699270718    0.5070769363   -3.1036177168
H        1.4117632097    0.1966321179   -1.9217783439
H       -1.3997906885   -0.0067905330   -0.6572210457
H       -0.1919295627   -1.2962923515   -0.6310320192
H        1.3322037978    0.1970630861    0.7509184214
H        0.0942366108    1.4494312487    0.7036275068
H       -1.4814411684   -0.2800781350    1.8538179610
H       -0.1313642646    0.3598904879    2.8314905621
16   
torsion grid (90,)
C       -0.3877293145    0.7400592065   -3.0613591965
C        0.3394421868    0.3838903188   -1.8320409052
C       -0.3495006614   -0.1888268903   -0.6176134551
C        0.2560837592    0.3393270778    0.6905929781
C       -0.4012038153   -0.2289126944    1.9417553040
O        0.0435147178    1.7631024183   -2.1427991864
F        0.2571300879   -1.4103030243    2.3429542308
H        0.1292215186    0.7331933789   -4.0206485590
H       -1.4662658587    0.5875199167   -3.1056597302
H        1.4004078650    0.1433044149   -1.9287498774
H       -1.4141727894    0.0682375684   -0.6584704453
H       -0.2762094598   -1.2837698722   -0.6512335692
H        1.3291312412    0.1247073457    0.7451754694
H        0.1518798852    1.4306748239    0.7021394427
H       -1.4547241642   -0.4822248475    1.7823695128
H       -0.3232936854    0.4643730897    2.7847700175
16   
torsion grid (105,)
C       -0.3898265826    0.7639655271   -3.0652205133
C        0.3260377696    0.3781476564   -1.8380823320
C       -0.3816787065   -0.1716097639   -0.6237008640
C        0.2530084583    0.3207485026    0.6851013408
C       -0.4320040955   -0.2214789847    1.9410534690
O        0.0805815772    1.7678269214   -2.1450719231
F        0.3581274417   -1.2275337757    2.5349133111
H        0.1236008979    0.7415903837   -4.0261599675
H       -1.4733200255    0.6513548662   -3.1073778801
H        1.3772797934    0.0987762122   -1.9370074243
H       -1.4345425456    0.1308674912   -0.6607311394
H       -0.3561558195   -1.2688006482   -0.6640502880
H        1.3093464239    0.0356227983    0.7353913902
H        0.2236883390    1.4156868512    0.6921583886
H       -1.4072368032   -0.6694649271    1.7231215355
H       -0.5596417994    0.5540551025    2.7017413576
16   
torsion grid (120,)
C       -0.3919824058    0.7988213637   -3.0619626934
C        0.3194898022    0.3740383695   -1.8450456630
C       -0.3973863200   -0.1599439015   -0.6288059372
C        0.2726586624    0.2911208763    0.6776896540
C       -0.4308734625   -0.2365240689    1.9336715549
O        0.1248150647    1.7746296033   -2.1367814545
F        0.4512546365   -1.0281319487    2.6967689181
H        0.1132258630    0.7645359274   -4.0269024196
H       -1.4793449262    0.7283587675   -3.0958261286
H        1.3582285280    0.0551318709   -1.9560971538
H       -1.4388313138    0.1814917275   -0.6548572226
H       -0.4134791205   -1.2569562708   -0.6788817697
H        1.3064846904   -0.0693300811    0.7088806625
H        0.3201219390    1.3844149482    0.6945939670
H       -1.2848887726   -0.8759473915    1.6857135395
H       -0.7719362646    0.5696894807    2.5891256439
16   
torsion grid (135,)
C       -0.3967946457    0.8292392419   -3.0524990012
C        0.3143211782    0.3763541058   -1.8455311601
C       -0.4073708278   -0.1452667931   -0.6265471114
C        0.3008743319    0.2578250777    0.6755349012
C       -0.4223795050   -0.2496447808    1.9255672027
O        0.1590982312    1.7833115648   -2.1271871194
F        0.4984289045   -0.8037042548    2.8360563959
H        0.0957775049    0.7868483634   -4.0236194036
H       -1.4860693990    0.7917512295   -3.0745508599
H        1.3418342422    0.0268021642   -1.9686511425
H       -1.4348886920    0.2376558658   -0.6362840353
H       -0.4684002060   -1.2398410056   -0.6905992918
H        1.3067064072   -0.1768357408    0.6871423832
H        0.4236370745    1.3445462710    0.7079165979
H       -1.1287774904   -1.0507493933    1.6809483989
H       -0.9577143416    0.5443027260    2.4542688354
16   
torsion grid (150,)
C       -0.3987456048    0.8691515201   -3.0354140173
C        0.3101048549    0.3791226115   -1.8417032274
C       -0.4147657566   -0.1333595256   -0.6204045825
C        0.3274873300    0.2217911379    0.6766958943
C       -0.4189076153   -0.2566093112    1.9176708871
O        0.1986915837    1.7931016491   -2.1052495024
F        0.4894237887   -0.5529620315    2.9508278574
H        0.0824582011    0.8208371850   -4.0119290744
H       -1.4888607705    0.8682929080   -3.0459041019
H        1.3238950655   -0.0031232577   -1.9803333720
H       -1.4270037527    0.2887319157   -0.6109130936
H       -0.5190697810   -1.2235000510   -0.7008769859
H        1.3065237841   -0.2715646836    0.6757862908
H        0.5096062660    1.2997008007    0.7234807545
H       -0.9669519897   -1.1841092619    1.7154230275
H       -1.1183127661    0.4922472126    2.3022158324
16   
torsion grid (165,)
C       -0.4007906385    0.8926934390   -3.0213031862
C        0.2987102577    0.3581547930   -1.8412553386
C       -0.4354131000   -0.1358278546   -0.6176500032
C        0.3319077243    0.1781989979    0.6752823005
C       -0.4342113754   -0.2748087874    1.9075729976
O        0.2467506764    1.7782955387   -2.0873111785
F        0.4145522909   -0.2929441387    3.0283866977
H        0.0671802101    0.8349764543   -4.0037118860
H       -1.4899434163    0.9398530066   -3.0193806565
H        1.2931394278   -0.0665413520   -1.9953975770
H       -1.4285781805    0.3287177748   -0.5932166897
H       -0.5871452711   -1.2196060553   -0.7095678992
H        1.2959004921   -0.3443105796    0.6661159440
H        0.5428908488    1.2505104102    0.7352559082
H       -0.8142531833   -1.2958104551    1.7852455863
H       -1.2714220173    0.3915575814    2.1409904945
16   
torsion grid (180,)
C       -0.4033840870    0.9209127645   -3.0126337381
C        0.2887562996    0.3446788422   -1.8479665032
C       -0.4486684316   -0.1194626129   -0.6145062131
C        0.3532536350    0.1514405903    0.6670546388
C       -0.4030747060   -0.2971383094    1.9047038431
O        0.3045666891    1.7669316914   -2.0857383438
F        0.3562397596   -0.0359119994    3.0584113254
H        0.0437401838    0.8456698540   -4.0035418584
H       -1.4885053973    1.0233656983   -2.9911695329
H        1.2573901443   -0.1290260417   -2.0221109386
H       -1.4163453296    0.3937993724   -0.5685019684
H       -0.6562354501   -1.1938134068   -0.7127588792
H        1.3149168439   -0.3739144515    0.6296619832
H        0.5690262205    1.2220403821    0.7446528696
H       -0.6039113374   -1.3745230863    1.8885112683
H       -1.3513650922    0.2409569233    2.0139066376
