48
0 1 C20H22N2O3S
C                    -9.557526578421     8.389201343215    -3.801043835524
C                    -8.312732161754     8.792627527428    -3.248025932071
C                    -3.665863918943     0.225342315092    -0.315972765554
C                    -9.896563627954     7.053465669143    -3.847507753664
C                    -9.290086358809     4.678235666482    -3.360078396790
C                    -7.428268282315     7.858177034200    -2.751283246793
C                    -4.151548869601    -1.079461585739    -0.347776257705
C                    -4.423990935710     1.309453198886    -0.776332951234
C                    -8.372100568894     3.786562594231    -2.851634645573
C                    -6.228941067928    -0.233540159103    -1.284904911505
C                    -9.005218550321     6.067681811417    -3.343441097037
C                    -7.750633524449     6.474149907324    -2.786038071376
C                    -5.451987349492    -1.302570593082    -0.832320455759
C                    -5.711572314419     1.069683433365    -1.273015992948
C                    -7.156080856280     4.293839012272    -2.320102289393
C                    -7.628727229723    -3.311288041003     5.523181285051
C                    -6.088074496622     3.384431026189    -1.752376794387
C                    -7.560979555457    -2.562415555760     4.187790893817
C                    -6.880193047471    -3.391450683600     3.089853731363
C                    -6.821711065077    -2.626643651231     1.767247531274
N                    -6.851810596026     5.578173227322    -2.284673023163
N                    -5.985039544955    -2.621302676228    -0.897481649405
O                    -6.921289050196    -4.720315552519     0.098526266580
O                    -4.644014765830    -3.875594649053     0.895477734685
O                    -6.552522994304     2.036701540054    -1.753404620576
S                    -6.023299999222    -3.626074460044     0.477054387858
H                   -10.241473877762     9.139983750722    -4.187666849387
H                    -8.058952741795     9.849078022082    -3.218251077799
H                    -2.662467577825     0.407052937268     0.059637610171
H                   -10.848380870553     6.739040096043    -4.270004727825
H                   -10.232774484882     4.328603579007    -3.775766945208
H                    -6.472203836964     8.147522951914    -2.324893147644
H                    -3.548794721973    -1.915187344475    -0.012874960912
H                    -4.005503934157     2.308183726329    -0.748622369634
H                    -8.553440444225     2.718449420154    -2.847160325254
H                    -7.240135613136    -0.389081962775    -1.652745182450
H                    -6.626061195490    -3.566418879015     5.883740908385
H                    -8.117064850487    -2.704241959274     6.292439073476
H                    -8.193701749373    -4.244807351677     5.424003315569
H                    -5.179297411485     3.475574413413    -2.360702781161
H                    -5.847988605927     3.708954819208    -0.732667586772
H                    -8.575098196345    -2.292437783253     3.866166505070
H                    -7.016951610799    -1.618720564208     4.322250542004
H                    -7.425139209842    -4.330222771312     2.943345019719
H                    -5.862998378834    -3.653617012003     3.398257685856
H                    -7.818816092422    -2.385015293636     1.387704379313
H                    -6.233902352991    -1.708473548895     1.850182459193
H                    -6.869165105528    -2.702688543697    -1.394364635437
