
  -OEChem-05262117483D

 25 26  0     0  0  0  0  0  0999 V2000
    1.4530    1.0986    0.8544 C   0  0  0  0  0  0  0  0  0  0  0  0
    0.0932    0.9635    0.5571 C   0  0  0  0  0  0  0  0  0  0  0  0
    1.8695    1.8012    2.0021 C   0  0  0  0  0  0  0  0  0  0  0  0
   -0.7962    1.5567    1.4551 C   0  0  0  0  0  0  0  0  0  0  0  0
   -0.2490    2.2388    2.5702 C   0  0  0  0  0  0  0  0  0  0  0  0
   -2.4761    2.3282    2.5667 C   0  0  0  0  0  0  0  0  0  0  0  0
   -3.8715    2.6617    3.0407 C   0  0  0  0  0  0  0  0  0  0  0  0
   -5.2262    2.3347   -0.2658 C   0  0  0  0  0  0  0  0  0  0  0  0
   -5.0163    3.1753    0.9855 C   0  0  0  0  0  0  0  0  0  0  0  0
    1.0341    2.3840    2.8797 N   0  0  0  0  0  0  0  0  0  0  0  0
   -2.1856    1.6293    1.4899 N   0  0  0  0  0  0  0  0  0  0  0  0
   -1.3513    2.7264    3.2619 N   0  0  0  0  0  0  0  0  0  0  0  0
   -4.0379    1.7294   -0.7453 O   0  0  0  0  0  0  0  0  0  0  0  0
   -4.8589    2.2941    2.1154 O   0  0  0  0  0  0  0  0  0  0  0  0
    2.2049    0.6639    0.2026 H   0  0  0  0  0  0  0  0  0  0  0  0
   -0.2567    0.4299   -0.3220 H   0  0  0  0  0  0  0  0  0  0  0  0
    2.9306    1.8984    2.2216 H   0  0  0  0  0  0  0  0  0  0  0  0
   -4.0784    2.0978    3.9583 H   0  0  0  0  0  0  0  0  0  0  0  0
   -3.9214    3.7320    3.3000 H   0  0  0  0  0  0  0  0  0  0  0  0
   -5.6048    2.9831   -1.0647 H   0  0  0  0  0  0  0  0  0  0  0  0
   -6.0009    1.5831   -0.0472 H   0  0  0  0  0  0  0  0  0  0  0  0
   -5.8871    3.8202    1.1688 H   0  0  0  0  0  0  0  0  0  0  0  0
   -4.1282    3.8066    0.8592 H   0  0  0  0  0  0  0  0  0  0  0  0
   -1.3153    3.2684    4.1162 H   0  0  0  0  0  0  0  0  0  0  0  0
   -3.4851    1.4752    0.0256 H   0  0  0  0  0  0  0  0  0  0  0  0
  1  2  1  0  0  0  0
  1  3  2  0  0  0  0
  1 15  1  0  0  0  0
  2  4  2  0  0  0  0
  2 16  1  0  0  0  0
  3 10  1  0  0  0  0
  3 17  1  0  0  0  0
  4  5  1  0  0  0  0
  4 11  1  0  0  0  0
  5 10  2  0  0  0  0
  5 12  1  0  0  0  0
  6  7  1  0  0  0  0
  6 11  2  0  0  0  0
  6 12  1  0  0  0  0
  7 14  1  0  0  0  0
  7 18  1  0  0  0  0
  7 19  1  0  0  0  0
  8  9  1  0  0  0  0
  8 13  1  0  0  0  0
  8 20  1  0  0  0  0
  8 21  1  0  0  0  0
  9 14  1  0  0  0  0
  9 22  1  0  0  0  0
  9 23  1  0  0  0  0
 12 24  1  0  0  0  0
 13 25  1  0  0  0  0
M  END
$$$$
