
  -OEChem-05262117483D

 55 57  0     0  0  0  0  0  0999 V2000
   -0.8097  -10.9626    3.0087 C   0  0  0  0  0  0  0  0  0  0  0  0
   -1.0724  -10.4251    4.2898 C   0  0  0  0  0  0  0  0  0  0  0  0
   -0.8746  -10.1525    1.8927 C   0  0  0  0  0  0  0  0  0  0  0  0
   -1.3727   -9.0863    4.4312 C   0  0  0  0  0  0  0  0  0  0  0  0
   -1.7983   -8.5648   -3.9543 C   0  0  0  0  0  0  0  0  0  0  0  0
    0.3029   -9.1606   -2.9417 C   0  0  0  0  0  0  0  0  0  0  0  0
   -1.5829   -6.5818    1.0044 C   0  0  0  0  0  0  0  0  0  0  0  0
   -1.4569   -9.2770   -5.1138 C   0  0  0  0  0  0  0  0  0  0  0  0
    0.6588   -9.8747   -4.0817 C   0  0  0  0  0  0  0  0  0  0  0  0
   -1.7726   -6.0304    2.2935 C   0  0  0  0  0  0  0  0  0  0  0  0
   -1.2091   -8.7752    1.9967 C   0  0  0  0  0  0  0  0  0  0  0  0
   -1.4419   -8.2261    3.3023 C   0  0  0  0  0  0  0  0  0  0  0  0
   -0.9315   -8.4920   -2.8630 C   0  0  0  0  0  0  0  0  0  0  0  0
   -1.3118   -7.9295    0.8367 C   0  0  0  0  0  0  0  0  0  0  0  0
   -0.2257   -9.9273   -5.1640 C   0  0  0  0  0  0  0  0  0  0  0  0
   -1.7189   -6.8294    3.4090 C   0  0  0  0  0  0  0  0  0  0  0  0
    0.3309  -15.0086   -6.4735 C   0  0  0  0  0  0  0  0  0  0  0  0
    1.7060  -13.9570   -9.7654 C   0  0  0  0  0  0  0  0  0  0  0  0
   -1.2865   -7.6958   -1.6264 C   0  0  0  0  0  0  0  0  0  0  0  0
   -0.2527  -13.9031   -7.3426 C   0  0  0  0  0  0  0  0  0  0  0  0
    1.9962  -13.3305   -8.4095 C   0  0  0  0  0  0  0  0  0  0  0  0
    0.1167  -11.6472   -8.3897 C   0  0  0  0  0  0  0  0  0  0  0  0
   -0.6542  -10.7996   -7.3816 C   0  0  0  0  0  0  0  0  0  0  0  0
   -1.0941   -8.5056   -0.4300 N   0  0  0  0  0  0  0  0  0  0  0  0
    0.7576  -12.8254   -7.6887 N   0  3  0  0  0  0  0  0  0  0  0  0
    0.2151  -10.6633   -6.2681 O   0  0  0  0  0  0  0  0  0  0  0  0
   -1.9974   -6.0987    4.9840 Cl  0  0  0  0  0  0  0  0  0  0  0  0
   -0.5445  -12.0114    2.9056 H   0  0  0  0  0  0  0  0  0  0  0  0
   -1.0239  -11.0654    5.1662 H   0  0  0  0  0  0  0  0  0  0  0  0
   -0.6306  -10.5745    0.9226 H   0  0  0  0  0  0  0  0  0  0  0  0
   -1.5568   -8.6725    5.4163 H   0  0  0  0  0  0  0  0  0  0  0  0
   -2.7598   -8.0593   -3.9142 H   0  0  0  0  0  0  0  0  0  0  0  0
    0.9832   -9.1162   -2.0962 H   0  0  0  0  0  0  0  0  0  0  0  0
   -1.6745   -5.9202    0.1510 H   0  0  0  0  0  0  0  0  0  0  0  0
   -2.1552   -9.3024   -5.9433 H   0  0  0  0  0  0  0  0  0  0  0  0
    1.6186  -10.3799   -4.1482 H   0  0  0  0  0  0  0  0  0  0  0  0
   -1.9832   -4.9707    2.3956 H   0  0  0  0  0  0  0  0  0  0  0  0
    1.0545  -15.6284   -7.0071 H   0  0  0  0  0  0  0  0  0  0  0  0
    0.8023  -14.6068   -5.5707 H   0  0  0  0  0  0  0  0  0  0  0  0
   -0.4853  -15.6611   -6.1530 H   0  0  0  0  0  0  0  0  0  0  0  0
    1.0971  -14.8607   -9.6863 H   0  0  0  0  0  0  0  0  0  0  0  0
    1.2189  -13.2591  -10.4511 H   0  0  0  0  0  0  0  0  0  0  0  0
    2.6586  -14.2457  -10.2170 H   0  0  0  0  0  0  0  0  0  0  0  0
   -0.6199   -6.8282   -1.5585 H   0  0  0  0  0  0  0  0  0  0  0  0
   -2.3112   -7.3020   -1.7167 H   0  0  0  0  0  0  0  0  0  0  0  0
   -1.0626  -13.3958   -6.8174 H   0  0  0  0  0  0  0  0  0  0  0  0
   -0.6463  -14.2852   -8.2853 H   0  0  0  0  0  0  0  0  0  0  0  0
    2.6542  -12.4638   -8.5039 H   0  0  0  0  0  0  0  0  0  0  0  0
    2.4793  -14.0398   -7.7369 H   0  0  0  0  0  0  0  0  0  0  0  0
    0.9283  -11.0613   -8.8238 H   0  0  0  0  0  0  0  0  0  0  0  0
   -0.5291  -12.0138   -9.1880 H   0  0  0  0  0  0  0  0  0  0  0  0
   -0.8806   -9.8308   -7.8421 H   0  0  0  0  0  0  0  0  0  0  0  0
   -1.6013  -11.2661   -7.0847 H   0  0  0  0  0  0  0  0  0  0  0  0
   -1.5367   -9.4141   -0.5220 H   0  0  0  0  0  0  0  0  0  0  0  0
    1.0754  -12.4251   -6.7932 H   0  0  0  0  0  0  0  0  0  0  0  0
  1  2  1  0  0  0  0
  1  3  2  0  0  0  0
  1 28  1  0  0  0  0
  2  4  2  0  0  0  0
  2 29  1  0  0  0  0
  3 11  1  0  0  0  0
  3 30  1  0  0  0  0
  4 12  1  0  0  0  0
  4 31  1  0  0  0  0
  5  8  2  0  0  0  0
  5 13  1  0  0  0  0
  5 32  1  0  0  0  0
  6  9  1  0  0  0  0
  6 13  2  0  0  0  0
  6 33  1  0  0  0  0
  7 10  2  0  0  0  0
  7 14  1  0  0  0  0
  7 34  1  0  0  0  0
  8 15  1  0  0  0  0
  8 35  1  0  0  0  0
  9 15  2  0  0  0  0
  9 36  1  0  0  0  0
 10 16  1  0  0  0  0
 10 37  1  0  0  0  0
 11 12  1  0  0  0  0
 11 14  2  0  0  0  0
 12 16  2  0  0  0  0
 13 19  1  0  0  0  0
 14 24  1  0  0  0  0
 15 26  1  0  0  0  0
 16 27  1  0  0  0  0
 17 20  1  0  0  0  0
 17 38  1  0  0  0  0
 17 39  1  0  0  0  0
 17 40  1  0  0  0  0
 18 21  1  0  0  0  0
 18 41  1  0  0  0  0
 18 42  1  0  0  0  0
 18 43  1  0  0  0  0
 19 24  1  0  0  0  0
 19 44  1  0  0  0  0
 19 45  1  0  0  0  0
 20 25  1  0  0  0  0
 20 46  1  0  0  0  0
 20 47  1  0  0  0  0
 21 25  1  0  0  0  0
 21 48  1  0  0  0  0
 21 49  1  0  0  0  0
 22 23  1  0  0  0  0
 22 25  1  0  0  0  0
 22 50  1  0  0  0  0
 22 51  1  0  0  0  0
 23 26  1  0  0  0  0
 23 52  1  0  0  0  0
 23 53  1  0  0  0  0
 24 54  1  0  0  0  0
 25 55  1  0  0  0  0
M  CHG  1  25   1
M  END
$$$$
