37
0 1 C11H19N3O2S2
C                     9.380541053644    -1.370949681596    -1.290279129421
C                     7.667839188332    -1.211247185063     0.304259687292
C                    10.485521633564    -1.169984438599    -2.284529319800
C                     7.196318708197    -1.551726089033     8.055134156709
C                    13.612451351260    -3.606877911130    -2.241046706688
C                     6.455391887565    -1.122513750233     6.784160539080
C                    13.401488559018    -2.366412830810    -3.114698500860
C                     7.232575734586    -1.449874695116     5.503325238455
C                     6.493819154364    -1.009765322230     4.231999887318
C                    12.032114544901    -2.334379755125    -3.807095458479
C                     7.288723341676    -1.343676036328     2.972581621392
N                     8.906750403275    -2.544465922984    -0.949951236751
N                     7.901229346862    -2.452321253101    -0.025193862411
N                    10.912392453168    -2.314870779987    -2.868248904950
O                    10.922625650317    -0.041648569568    -2.516315669207
O                     6.460401994518     0.805491980819     1.537067102407
S                     8.640668094719    -0.012321769640    -0.496227626515
S                     6.383159997366    -0.707789055769     1.488888041551
H                     7.380313402092    -2.632273038399     8.060495478576
H                     8.167322371257    -1.049665622588     8.135152466221
H                     6.619772998571    -1.307200793132     8.953407063630
H                    12.877482510385    -3.652443206990    -1.430075270481
H                    13.523190427295    -4.528566602701    -2.828866139904
H                    14.606527172456    -3.600731263823    -1.782929655578
H                     6.257938105785    -0.043550204917     6.819867723889
H                     5.474033369515    -1.612979880490     6.747278908953
H                    14.171002463922    -2.322305100659    -3.895265250787
H                    13.508686923517    -1.456343971184    -2.515186055783
H                     7.428033766850    -2.529883286046     5.461417393221
H                     8.214608980039    -0.959708073867     5.539610612868
H                     6.313725290277     0.070272712120     4.266173505987
H                     5.512050000090    -1.498273057591     4.189702170775
H                    11.951436028609    -1.443385357939    -4.434399121179
H                    11.905804717892    -3.212770786311    -4.448457502255
H                     7.412689411068    -2.420404363565     2.820006766170
H                     8.268328976091    -0.855742066649     2.967180648276
H                    10.492847975627    -3.179927222811    -2.546753730694
