31
0 1 C12ClH14NO2S
C                    -0.432979662490     2.390315770708     3.788839469140
C                    -0.684977538577     4.347600040725     2.373798361344
C                     0.341739457004     3.129241057916     4.684639001779
C                     0.087370687094     5.095594070631     3.267428346795
C                    -0.924378345871     2.998879998353     2.630378843281
C                     0.597856993550     4.476937899110     4.410318478283
C                    -1.184998900017    -0.165508909353     0.098815308464
C                     1.663619070323     1.438445467510    -0.507716624687
C                     1.773499214966     0.053231570779    -1.155030710850
C                     0.235723322020     1.942619330148    -0.254850855641
C                     1.148850492541    -1.077246825651    -0.327615240992
C                    -0.558549705050     1.076604034094     0.732626326825
N                    -0.314132631180    -1.111991193693    -0.358015566852
O                    -2.403155012158    -0.302920895408     0.000200653415
O                    -2.398492775720     3.084254734843     0.413411281918
S                    -1.985761650562     2.073045303880     1.462935164391
Cl                    1.569420917691     5.409500859562     5.535657325723
H                    -0.652879834479     1.346645011527     4.005206520689
H                    -1.114777306415     4.794794863623     1.480937095751
H                     0.734123083399     2.672327630956     5.587635836617
H                     0.286974256584     6.146450347235     3.082099009765
H                     2.211669349170     1.432432321030     0.444508407162
H                     2.172688785263     2.167553009306    -1.148446910250
H                     1.309107016447     0.059150200918    -2.148453876625
H                     2.835152315366    -0.181315760725    -1.299554118936
H                     0.299136563963     2.958146725439     0.145946519067
H                    -0.326156886808     2.020286177223    -1.189960814801
H                     1.483548706996    -2.042713199546    -0.714954967177
H                     1.502427114570    -1.020582249469     0.710733307809
H                     0.069927011232     0.786913262174     1.582133394740
H                    -0.770862243145    -1.900856844602    -0.801438176462
