54
0 1 C23ClH27N2O
C                    -0.573831374500   -10.449356340044     4.034156768697
C                    -1.161591629828   -10.054700072158     5.257932509978
C                    -0.397164885371    -9.524826654783     3.024060096865
C                    -1.539886309872    -8.742654741039     5.453654723381
C                    -0.376787466929    -7.661313359095    -2.591089340427
C                     1.753822633530    -7.915133319320    -1.506271920388
C                    -0.997512911848    -5.885311061837     2.352438382532
C                     0.105620363348    -8.334433623912    -3.711500436763
C                     2.255262613236    -8.595069809952    -2.620134692164
C                    -1.520868532896    -5.481123301659     3.601354327655
C                    -0.799659193807    -8.171032168092     3.178255721339
C                    -1.365093896543    -7.767052125844     4.434919127749
C                     0.438664073504    -7.437095116942    -1.471988613867
C                    -0.645611876538    -7.207735076796     2.115419639992
C                     1.426776824259    -8.806512131999    -3.733555844390
C                    -1.713945796889    -6.394601274337     4.608816517203
C                     4.541473007323   -11.856545585182    -8.908411876838
C                     6.044878348302   -13.185408559647    -5.737831897399
C                    -0.087864811606    -6.719037536153    -0.251730175919
C                     5.226887355228   -11.089514770254    -7.764384559400
C                     4.640272276426   -12.604928809051    -5.903353792760
C                     3.309989937555   -10.617092074725    -6.315239118107
C                     3.149529569296    -9.959560772564    -4.947228851871
N                    -0.110897207366    -7.624175533113     0.897041770849
N                     4.632643800635   -11.234276361003    -6.429604637580
O                     1.812644749868    -9.454788823259    -4.872881078346
Cl                   -2.402538732379    -5.837874457775     6.134514644121
H                    -0.250655999099   -11.477236832266     3.892857907237
H                    -1.303502722863   -10.784140969138     6.050993927615
H                     0.091127585993    -9.841827098355     2.107874663073
H                    -1.975179678005    -8.438245137843     6.399027143190
H                    -1.404266250146    -7.303829064995    -2.588123471498
H                     2.399360970311    -7.757039966016    -0.645530605502
H                    -0.891082473442    -5.137459618731     1.575653646254
H                    -0.523741131938    -8.507077180883    -4.579662271380
H                     3.280747467307    -8.946235019058    -2.611704862155
H                    -1.789421765644    -4.440704103600     3.755528372282
H                     4.589328195851   -12.939968506852    -8.759508257309
H                     3.487012853994   -11.576578386299    -9.005299350390
H                     5.035678351377   -11.631639301528    -9.859992090381
H                     6.534208393297   -13.368136477385    -6.699336961822
H                     6.675205777210   -12.504443036302    -5.156984458602
H                     5.992295733995   -14.144073106638    -5.211300953790
H                     0.560932955162    -5.870465677831    -0.003784680702
H                    -1.086436813431    -6.306858020028    -0.465524637750
H                     5.234124890771   -10.019220671680    -7.998281077020
H                     6.277843265318   -11.388476102475    -7.704324004344
H                     4.159861830822   -12.578455877696    -4.919901108817
H                     4.027274464524   -13.285845103040    -6.521578377933
H                     2.486643470022   -11.332996290566    -6.471477102026
H                     3.200108120712    -9.841858462688    -7.079257020252
H                     3.875629982215    -9.144938071814    -4.840514848565
H                     3.321390160958   -10.682496816892    -4.140196579070
H                    -0.365221875648    -8.567603062628     0.630747828451
