33
0 1 C13H17NO2
C                    -2.199516630482    -0.006681222125     2.705959790211
C                    -2.516307847968     1.040197366972     1.828652296990
C                    -1.141306865024    -0.879726378126     2.422340083218
C                    -1.775755795929     1.225555041442     0.654666114488
C                    -0.400473264250    -0.691915284646     1.253843664476
C                    -0.717268106600     0.358534102309     0.381228629003
C                    -0.276957524664     0.193639657657    -3.272240991272
C                     0.767118414923    -1.491466272298     0.716929729525
C                     0.190386969388     0.337233857020    -0.831279722938
C                     1.378114751612    -0.558456638654    -0.358844406533
C                     2.139352864702    -1.273561294189    -1.471008646465
C                    -1.215807470219     1.185911302071    -6.031623644531
C                    -1.218271017681    -0.447637707181    -4.310815350572
N                    -0.542483197004    -0.189920436176    -1.987705508961
O                     0.618692912295     0.979507001075    -3.569297386078
O                    -0.898880026643    -0.150277691658    -5.642733317992
H                    -2.779093186706    -0.138465202166     3.616281908758
H                    -3.336913378637     1.712614630449     2.065225276522
H                    -0.900586321517    -1.688756453651     3.108557372872
H                    -2.017568185483     2.036546877431    -0.028755500211
H                     1.492237066531    -1.763879106658     1.490563289597
H                     0.415557921024    -2.430575456476     0.267076002814
H                     0.545938385516     1.326020260948    -1.128547571666
H                     2.065870380584     0.123019270818     0.157174294200
H                     1.489134368250    -1.973717275617    -2.006220832176
H                     2.976709087216    -1.845777185916    -1.056788093839
H                     2.534578511391    -0.561996442602    -2.201098917967
H                    -1.001027574587     1.254685892341    -7.100210871429
H                    -0.607927272912     1.913993092054    -5.486657452803
H                    -2.284344033691     1.395477315191    -5.867553081171
H                    -1.155905636575    -1.537458936964    -4.212299969167
H                    -2.254448267718    -0.152232033057    -4.070394533037
H                    -1.308291464405    -0.828713816729    -1.811160825842
