55
1 1 C23ClH28N2O
C                     1.271151648717   -10.864709421862     3.390784169027
C                     0.677684894519   -10.931431952868     4.672394386176
C                     1.031648969518    -9.777941724504     2.573923286805
C                    -0.124695646012    -9.901920965117     5.118350955569
C                     0.268298481547    -6.525546672544    -2.614956402110
C                     2.284221037032    -6.868460553698    -1.345983592931
C                    -0.879699120208    -6.554897751122     2.610582461416
C                     0.990437706706    -6.621795312783    -3.805015585662
C                     3.025815647553    -6.972644116251    -2.527423093568
C                    -1.413633141867    -6.589640102998     3.920463002651
C                     0.187871821857    -8.711916784244     2.988090048568
C                    -0.386066261228    -8.768340955219     4.302443756515
C                     0.903048223237    -6.640258808382    -1.370811947352
C                    -0.095127345481    -7.590508760377     2.131431103025
C                     2.367360375523    -6.842382123953    -3.752144104100
C                    -1.186594189386    -7.669107139263     4.738234112010
C                     3.872447595139    -3.454224705931    -7.476980499794
C                     5.179741676921    -6.308144984296    -9.484632465277
C                     0.125285715644    -6.502989033410    -0.079416873153
C                     4.700499670474    -4.604689231299    -6.921295633160
C                     3.887950899880    -6.266851857769    -8.681576990965
C                     4.814737700573    -7.077372413825    -6.478643606112
C                     4.428493842182    -7.067320110614    -5.002357305988
N                     0.473338441984    -7.576106699870     0.842513710612
N                     4.091556816534    -5.964725257354    -7.206472946814
O                     3.015978163830    -6.927325506932    -4.988099493897
Cl                   -1.902523985654    -7.675480671299     6.344447202420
H                     1.924903657200   -11.664945397662     3.054454395396
H                     0.864754102716   -11.789544558793     5.312000498256
H                     1.527001003545    -9.727842649975     1.609281905474
H                    -0.565560509326    -9.947149016340     6.107871793964
H                    -0.805477301443    -6.362530113768    -2.659913350556
H                     2.784552946118    -6.973678260815    -0.387757638596
H                    -1.119492402365    -5.701213072550     1.987388611188
H                     0.493830141536    -6.543410245230    -4.768193881966
H                     4.093077322581    -7.157479064181    -2.467146009780
H                    -2.024652709436    -5.763865294163     4.270488332295
H                     3.882363836306    -3.414604234482    -8.568220654767
H                     2.834778160620    -3.498994225101    -7.130691066006
H                     4.298298880761    -2.516246892045    -7.111707399793
H                     5.682663051186    -5.338794581969    -9.517039870337
H                     5.879566160577    -7.059183672326    -9.109542503589
H                     4.931433070886    -6.579723994125   -10.513870418755
H                     0.388921140529    -5.550674628822     0.395395068065
H                    -0.953580715070    -6.459090106003    -0.297823511258
H                     4.772137511628    -4.530575105388    -5.835738963141
H                     5.712517652464    -4.617519799535    -7.327807862446
H                     3.367271073981    -7.226348435381    -8.715081994228
H                     3.204966295596    -5.507159169681    -9.062791776692
H                     4.496027395473    -8.013299533725    -6.939762139777
H                     5.889477723818    -6.956096014609    -6.616423290952
H                     4.748848888262    -8.014041752389    -4.551933242663
H                     4.908785476918    -6.248493525557    -4.453362699826
H                     0.423222306781    -8.483066368210     0.389549173334
H                     3.157164321129    -5.964032405632    -6.770324412433
