
  -OEChem-05262117483D

 31 32  0     0  0  0  0  0  0999 V2000
    7.0411   -5.4515   -2.2630 C   0  0  0  0  0  0  0  0  0  0  0  0
    5.9998   -5.0780   -3.1181 C   0  0  0  0  0  0  0  0  0  0  0  0
    7.0954   -4.9359   -0.9585 C   0  0  0  0  0  0  0  0  0  0  0  0
    5.0168   -4.1925   -2.6722 C   0  0  0  0  0  0  0  0  0  0  0  0
    6.1207   -4.0497   -0.5087 C   0  0  0  0  0  0  0  0  0  0  0  0
    1.9543   -1.0590   -0.3296 C   0  0  0  0  0  0  0  0  0  0  0  0
    1.1712    0.4378    1.3851 C   0  0  0  0  0  0  0  0  0  0  0  0
    0.9917   -0.1622    0.1220 C   0  0  0  0  0  0  0  0  0  0  0  0
    5.0731   -3.6697   -1.3701 C   0  0  0  0  0  0  0  0  0  0  0  0
    3.0781   -1.3621    0.4581 C   0  0  0  0  0  0  0  0  0  0  0  0
    3.2524   -0.7597    1.7275 C   0  0  0  0  0  0  0  0  0  0  0  0
    2.2794    0.1474    2.1730 C   0  0  0  0  0  0  0  0  0  0  0  0
   -1.4536   -0.7219   -0.2568 C   0  0  0  0  0  0  0  0  0  0  0  0
   -0.2512    0.1363   -0.6880 C   0  0  0  0  0  0  0  0  0  0  0  0
    4.0261   -2.7798   -1.0337 N   0  0  0  0  0  0  0  0  0  0  0  0
    4.1144   -2.2445    0.1088 N   0  0  0  0  0  0  0  0  0  0  0  0
    4.3331   -1.0437    2.4886 O   0  0  0  0  0  0  0  0  0  0  0  0
    2.4977    0.9950    3.8709 Br  0  0  0  0  0  0  0  0  0  0  0  0
    7.8069   -6.1424   -2.6055 H   0  0  0  0  0  0  0  0  0  0  0  0
    5.9533   -5.4763   -4.1280 H   0  0  0  0  0  0  0  0  0  0  0  0
    7.9032   -5.2319   -0.2941 H   0  0  0  0  0  0  0  0  0  0  0  0
    4.1967   -3.8877   -3.3161 H   0  0  0  0  0  0  0  0  0  0  0  0
    6.1556   -3.6516    0.4994 H   0  0  0  0  0  0  0  0  0  0  0  0
    1.8611   -1.5431   -1.2967 H   0  0  0  0  0  0  0  0  0  0  0  0
    0.4342    1.1453    1.7553 H   0  0  0  0  0  0  0  0  0  0  0  0
   -1.2336   -1.7877   -0.3780 H   0  0  0  0  0  0  0  0  0  0  0  0
   -2.3392   -0.4839   -0.8560 H   0  0  0  0  0  0  0  0  0  0  0  0
   -1.6999   -0.5517    0.7966 H   0  0  0  0  0  0  0  0  0  0  0  0
   -0.5083    1.1973   -0.5888 H   0  0  0  0  0  0  0  0  0  0  0  0
   -0.0426   -0.0366   -1.7492 H   0  0  0  0  0  0  0  0  0  0  0  0
    4.8585   -1.6877    1.9683 H   0  0  0  0  0  0  0  0  0  0  0  0
  1  2  1  0  0  0  0
  1  3  2  0  0  0  0
  1 19  1  0  0  0  0
  2  4  2  0  0  0  0
  2 20  1  0  0  0  0
  3  5  1  0  0  0  0
  3 21  1  0  0  0  0
  4  9  1  0  0  0  0
  4 22  1  0  0  0  0
  5  9  2  0  0  0  0
  5 23  1  0  0  0  0
  6  8  2  0  0  0  0
  6 10  1  0  0  0  0
  6 24  1  0  0  0  0
  7  8  1  0  0  0  0
  7 12  2  0  0  0  0
  7 25  1  0  0  0  0
  8 14  1  0  0  0  0
  9 15  1  0  0  0  0
 10 11  2  0  0  0  0
 10 16  1  0  0  0  0
 11 12  1  0  0  0  0
 11 17  1  0  0  0  0
 12 18  1  0  0  0  0
 13 14  1  0  0  0  0
 13 26  1  0  0  0  0
 13 27  1  0  0  0  0
 13 28  1  0  0  0  0
 14 29  1  0  0  0  0
 14 30  1  0  0  0  0
 15 16  2  0  0  0  0
 17 31  1  0  0  0  0
M  END
$$$$
