
  -OEChem-05262117483D

 20 20  0     0  0  0  0  0  0999 V2000
    2.2372   -0.7527    0.1165 C   0  0  0  0  0  0  0  0  0  0  0  0
    1.0462   -1.1728    2.1924 C   0  0  0  0  0  0  0  0  0  0  0  0
    1.1101   -0.5606    0.9304 C   0  0  0  0  0  0  0  0  0  0  0  0
    3.2799   -1.5487    0.5720 C   0  0  0  0  0  0  0  0  0  0  0  0
    2.0990   -1.9616    2.6234 C   0  0  0  0  0  0  0  0  0  0  0  0
    3.2278   -2.1617    1.8233 C   0  0  0  0  0  0  0  0  0  0  0  0
   -0.0579    0.2877    0.5065 C   0  0  0  0  0  0  0  0  0  0  0  0
    0.8369    2.3481   -0.6495 C   0  0  0  0  0  0  0  0  0  0  0  0
    0.0126    1.0541   -0.8034 C   0  0  0  0  0  0  0  0  0  0  0  0
   -1.0367    0.3861    1.2363 O   0  0  0  0  0  0  0  0  0  0  0  0
    4.3699   -1.7455   -0.1954 F   0  0  0  0  0  0  0  0  0  0  0  0
    2.0616   -2.5591    3.8291 F   0  0  0  0  0  0  0  0  0  0  0  0
    4.2392   -2.9273    2.2501 F   0  0  0  0  0  0  0  0  0  0  0  0
    2.3299   -0.3022   -0.8647 H   0  0  0  0  0  0  0  0  0  0  0  0
    0.1743   -1.0251    2.8210 H   0  0  0  0  0  0  0  0  0  0  0  0
    0.4009    2.9901    0.1215 H   0  0  0  0  0  0  0  0  0  0  0  0
    1.8742    2.1414   -0.3698 H   0  0  0  0  0  0  0  0  0  0  0  0
    0.8448    2.9047   -1.5914 H   0  0  0  0  0  0  0  0  0  0  0  0
    0.4322    0.4322   -1.6007 H   0  0  0  0  0  0  0  0  0  0  0  0
   -1.0155    1.3004   -1.0786 H   0  0  0  0  0  0  0  0  0  0  0  0
  1  3  1  0  0  0  0
  1  4  2  0  0  0  0
  1 14  1  0  0  0  0
  2  3  2  0  0  0  0
  2  5  1  0  0  0  0
  2 15  1  0  0  0  0
  3  7  1  0  0  0  0
  4  6  1  0  0  0  0
  4 11  1  0  0  0  0
  5  6  2  0  0  0  0
  5 12  1  0  0  0  0
  6 13  1  0  0  0  0
  7  9  1  0  0  0  0
  7 10  2  0  0  0  0
  8  9  1  0  0  0  0
  8 16  1  0  0  0  0
  8 17  1  0  0  0  0
  8 18  1  0  0  0  0
  9 19  1  0  0  0  0
  9 20  1  0  0  0  0
M  END
$$$$
