33
0 1 C11H17N3OS
C                     2.731395407231     4.310844529403    -0.006307977563
C                     2.896588143784     3.662959894955     1.190103904318
C                     1.579784932738     2.475600959830    -0.485658026121
C                     0.334192204623     0.381266343463    -0.898103533171
C                     0.352318688423    -0.621771130838    -3.247507978709
C                    -1.095578736045    -1.642022554590    -1.445573987256
C                     1.354399722542    -1.753523277981    -3.009152433992
C                    -0.059346229323    -2.763593311033    -1.316128314307
C                    -0.482801247074    -0.334157935107    -1.976291712163
C                     3.268527633074     5.658848880765    -0.394088455447
C                     3.632618212513     4.085212611499     2.428396722773
N                     1.980073842231     3.624506730223    -0.953271395115
N                     0.628328610164    -2.960961069766    -2.602562881332
N                     0.810019605158     1.622386169455    -1.270136861456
O                     0.554922983745    -0.069366173349     0.223041034530
S                     2.072530239826     2.108369464932     1.149876889951
H                     0.878261329852     0.273593640388    -3.597242975277
H                    -0.333869507068    -0.928724478302    -4.044184327583
H                    -1.871470602198    -1.960789762116    -2.150613342987
H                    -1.568906504524    -1.467196935391    -0.475721866724
H                     1.895474424439    -1.964639510448    -3.937558855624
H                     2.099655535555    -1.430949375982    -2.257877463046
H                     0.636975561582    -2.516924064246    -0.500511760545
H                    -0.568817679726    -3.696534723151    -1.052385000773
H                    -1.296171538829     0.352582716101    -2.248104279646
H                     3.919898137729     5.571696828528    -1.270362666663
H                     2.448114061438     6.332191304759    -0.664572766964
H                     3.839870482947     6.121414608266     0.412963645624
H                     2.966344056148     4.137582845824     3.296972908437
H                     4.442198076701     3.388998942081     2.675603227306
H                     4.076811642816     5.073800505180     2.292703747719
H                     1.284803849241    -3.733430096010    -2.514634325039
H                     0.607784670237     1.990271409879    -2.192852696576
