20
0 1 C8ClH8NO2
C                     2.088754479723    -1.118977211308    -0.045675253592
C                     1.066535040633    -0.499473303186     0.671572236264
C                     3.064326106301    -1.857069589462     0.616503563297
C                     1.002329620405    -0.634025340423     2.067802358955
C                     3.044701839324    -1.994842887134     2.017095233351
C                     1.992321405351    -1.380965900214     2.731425877255
C                    -0.157091298046    -0.022297686121     2.790672229672
C                    -1.786381997117     1.684524935712     2.723501178645
N                     4.077818698799    -2.667306194319     2.667882590012
O                    -0.655409724888    -0.434995515448     3.819688346771
O                    -0.627391098651     1.067066117590     2.128922935341
Cl                    2.011177624524    -1.552202083934     4.478909740399
H                     2.128057307260    -1.024365400849    -1.127204816245
H                     0.306322441227     0.082393955348     0.164970852549
H                     3.869554895543    -2.327503594699     0.056432420848
H                    -2.030563084410     2.526008549966     2.075136379379
H                    -1.557206047139     2.030096672908     3.734195646097
H                    -2.617104983296     0.975978092885     2.767275606529
H                     4.542320225329    -3.369987938573     2.106014647512
H                     3.859043266512    -2.995690340381     3.601025544562
