
  -OEChem-05262117483D

 25 26  0     0  0  0  0  0  0999 V2000
   -5.4503   -0.5628   -3.2460 C   0  0  0  0  0  0  0  0  0  0  0  0
   -4.5881   -1.5781   -2.8071 C   0  0  0  0  0  0  0  0  0  0  0  0
   -3.6131    1.0392   -3.0468 C   0  0  0  0  0  0  0  0  0  0  0  0
   -2.7561    0.0224   -2.6071 C   0  0  0  0  0  0  0  0  0  0  0  0
   -4.9358    0.7199   -3.3537 C   0  0  0  0  0  0  0  0  0  0  0  0
   -3.2719   -1.2829   -2.4970 C   0  0  0  0  0  0  0  0  0  0  0  0
    1.8778    3.1239   -1.1143 C   0  0  0  0  0  0  0  0  0  0  0  0
    1.0716    2.5198    0.0299 C   0  0  0  0  0  0  0  0  0  0  0  0
    0.5495    1.4207   -1.9166 C   0  0  0  0  0  0  0  0  0  0  0  0
   -0.9033    1.5033   -2.3688 C   0  0  0  0  0  0  0  0  0  0  0  0
    1.1695    2.6553   -2.2698 O   0  0  0  0  0  0  0  0  0  0  0  0
    0.6805    1.2526   -0.5115 O   0  0  0  0  0  0  0  0  0  0  0  0
   -1.4503    0.1900   -2.2745 O   0  0  0  0  0  0  0  0  0  0  0  0
   -5.7467    1.7254   -3.7774 F   0  0  0  0  0  0  0  0  0  0  0  0
   -2.4452   -2.2686   -2.0759 F   0  0  0  0  0  0  0  0  0  0  0  0
   -6.4866   -0.7623   -3.4961 H   0  0  0  0  0  0  0  0  0  0  0  0
   -4.9330   -2.6021   -2.7036 H   0  0  0  0  0  0  0  0  0  0  0  0
   -3.2818    2.0643   -3.1574 H   0  0  0  0  0  0  0  0  0  0  0  0
    1.8785    4.2159   -1.1352 H   0  0  0  0  0  0  0  0  0  0  0  0
    2.9096    2.7500   -1.1213 H   0  0  0  0  0  0  0  0  0  0  0  0
    1.6488    2.3365    0.9384 H   0  0  0  0  0  0  0  0  0  0  0  0
    0.1919    3.1325    0.2701 H   0  0  0  0  0  0  0  0  0  0  0  0
    1.0504    0.5705   -2.3958 H   0  0  0  0  0  0  0  0  0  0  0  0
   -0.9360    1.8627   -3.4046 H   0  0  0  0  0  0  0  0  0  0  0  0
   -1.4493    2.2023   -1.7238 H   0  0  0  0  0  0  0  0  0  0  0  0
  1  2  1  0  0  0  0
  1  5  2  0  0  0  0
  1 16  1  0  0  0  0
  2  6  2  0  0  0  0
  2 17  1  0  0  0  0
  3  4  2  0  0  0  0
  3  5  1  0  0  0  0
  3 18  1  0  0  0  0
  4  6  1  0  0  0  0
  4 13  1  0  0  0  0
  5 14  1  0  0  0  0
  6 15  1  0  0  0  0
  7  8  1  0  0  0  0
  7 11  1  0  0  0  0
  7 19  1  0  0  0  0
  7 20  1  0  0  0  0
  8 12  1  0  0  0  0
  8 21  1  0  0  0  0
  8 22  1  0  0  0  0
  9 10  1  0  0  0  0
  9 11  1  0  0  0  0
  9 12  1  0  0  0  0
  9 23  1  0  0  0  0
 10 13  1  0  0  0  0
 10 24  1  0  0  0  0
 10 25  1  0  0  0  0
M  END
$$$$
