25
0 1 C10F2H10O3
C                    -4.373604353910    -0.993960338853    -5.723975138132
C                    -3.456096485102    -1.939336568738    -5.243667913836
C                    -2.974547800485     0.786606503437    -4.799694922883
C                    -2.060294091059    -0.161354032149    -4.322992654833
C                    -4.105247313613     0.345353472764    -5.486974631040
C                    -2.327388339903    -1.522976076389    -4.559141223659
C                     2.872728861006     1.994116067526    -2.890118904758
C                     2.214618903565     3.263088723243    -2.333202880884
C                     0.684696227971     1.548372925887    -2.627164197562
C                    -0.628776399920     1.496678953578    -3.384163003224
O                     1.772257992776     1.310937366334    -3.495174798623
O                     0.852971855702     2.864463700362    -2.095927360395
O                    -0.921635974937     0.124584222459    -3.640145086280
F                    -4.976654697898     1.285022960357    -5.940227770985
F                    -1.447182775937    -2.441574965728    -4.096065046529
H                    -5.266944085661    -1.288057722867    -6.264023606665
H                    -3.612179203135    -3.002491558731    -5.397724216534
H                    -2.831392812916     1.850073453979    -4.653081545279
H                     3.623201308254     2.181718501141    -3.659680985955
H                     3.311224772576     1.381694201517    -2.089999406154
H                     2.662553960713     3.600808338484    -1.393929651770
H                     2.224383297332     4.083618454569    -3.059042626401
H                     0.686347472540     0.816581820620    -1.803745105749
H                    -0.526388430894     2.060112937824    -4.318537882320
H                    -1.411042020364     1.949363825992    -2.763676857531
