
  -OEChem-05262117483D

 33 34  0     0  0  0  0  0  0999 V2000
    2.8383    4.1447   -0.1120 C   0  0  0  0  0  0  0  0  0  0  0  0
    2.7179    3.6497    1.1604 C   0  0  0  0  0  0  0  0  0  0  0  0
    1.5833    2.3766   -0.5843 C   0  0  0  0  0  0  0  0  0  0  0  0
    0.1781    0.3817   -0.9764 C   0  0  0  0  0  0  0  0  0  0  0  0
   -1.1515   -1.6935   -1.5785 C   0  0  0  0  0  0  0  0  0  0  0  0
   -1.5974    0.4665   -2.8116 C   0  0  0  0  0  0  0  0  0  0  0  0
   -2.4369   -1.4469   -0.7815 C   0  0  0  0  0  0  0  0  0  0  0  0
   -2.8341    0.6528   -1.9297 C   0  0  0  0  0  0  0  0  0  0  0  0
   -0.5225   -0.3888   -2.0978 C   0  0  0  0  0  0  0  0  0  0  0  0
    3.5852    5.3740   -0.5444 C   0  0  0  0  0  0  0  0  0  0  0  0
    3.2728    4.1629    2.4574 C   0  0  0  0  0  0  0  0  0  0  0  0
    2.1874    3.4113   -1.0973 N   0  0  0  0  0  0  0  0  0  0  0  0
   -3.3849   -0.6631   -1.5900 N   0  0  0  0  0  0  0  0  0  0  0  0
    0.8669    1.5020   -1.3953 N   0  0  0  0  0  0  0  0  0  0  0  0
    0.1678    0.0528    0.2071 O   0  0  0  0  0  0  0  0  0  0  0  0
    1.7416    2.1855    1.1452 S   0  0  0  0  0  0  0  0  0  0  0  0
   -0.4330   -2.2336   -0.9563 H   0  0  0  0  0  0  0  0  0  0  0  0
   -1.3905   -2.3204   -2.4449 H   0  0  0  0  0  0  0  0  0  0  0  0
   -1.8990   -0.0576   -3.7249 H   0  0  0  0  0  0  0  0  0  0  0  0
   -1.2033    1.4439   -3.1115 H   0  0  0  0  0  0  0  0  0  0  0  0
   -2.9030   -2.4086   -0.5421 H   0  0  0  0  0  0  0  0  0  0  0  0
   -2.1818   -0.9501    0.1667 H   0  0  0  0  0  0  0  0  0  0  0  0
   -2.5609    1.2443   -1.0356 H   0  0  0  0  0  0  0  0  0  0  0  0
   -3.5929    1.2204   -2.4787 H   0  0  0  0  0  0  0  0  0  0  0  0
    0.2581   -0.6392   -2.8292 H   0  0  0  0  0  0  0  0  0  0  0  0
    4.3563    5.1129   -1.2771 H   0  0  0  0  0  0  0  0  0  0  0  0
    2.9044    6.0831   -1.0276 H   0  0  0  0  0  0  0  0  0  0  0  0
    4.0667    5.8790    0.2951 H   0  0  0  0  0  0  0  0  0  0  0  0
    2.4766    4.4103    3.1688 H   0  0  0  0  0  0  0  0  0  0  0  0
    3.9265    3.4259    2.9376 H   0  0  0  0  0  0  0  0  0  0  0  0
    3.8612    5.0681    2.2919 H   0  0  0  0  0  0  0  0  0  0  0  0
   -4.2484   -0.5403   -1.0659 H   0  0  0  0  0  0  0  0  0  0  0  0
    0.8811    1.7542   -2.3771 H   0  0  0  0  0  0  0  0  0  0  0  0
  1  2  2  0  0  0  0
  1 10  1  0  0  0  0
  1 12  1  0  0  0  0
  2 11  1  0  0  0  0
  2 16  1  0  0  0  0
  3 12  2  0  0  0  0
  3 14  1  0  0  0  0
  3 16  1  0  0  0  0
  4  9  1  0  0  0  0
  4 14  1  0  0  0  0
  4 15  2  0  0  0  0
  5  7  1  0  0  0  0
  5  9  1  0  0  0  0
  5 17  1  0  0  0  0
  5 18  1  0  0  0  0
  6  8  1  0  0  0  0
  6  9  1  0  0  0  0
  6 19  1  0  0  0  0
  6 20  1  0  0  0  0
  7 13  1  0  0  0  0
  7 21  1  0  0  0  0
  7 22  1  0  0  0  0
  8 13  1  0  0  0  0
  8 23  1  0  0  0  0
  8 24  1  0  0  0  0
  9 25  1  0  0  0  0
 10 26  1  0  0  0  0
 10 27  1  0  0  0  0
 10 28  1  0  0  0  0
 11 29  1  0  0  0  0
 11 30  1  0  0  0  0
 11 31  1  0  0  0  0
 13 32  1  0  0  0  0
 14 33  1  0  0  0  0
M  END
$$$$
