31
0 1 BrC14H13N2O
C                     7.041117403601    -5.451517551256    -2.262969618925
C                     5.999759932013    -5.077962415149    -3.118125590063
C                     7.095429236737    -4.935890499868    -0.958468148162
C                     5.016779263558    -4.192458601947    -2.672223573549
C                     6.120686386340    -4.049743223054    -0.508722632899
C                     1.954335519971    -1.059004806591    -0.329601200729
C                     1.171168234478     0.437839403739     1.385137912175
C                     0.991733793989    -0.162229619345     0.121954222305
C                     5.073084295576    -3.669667025596    -1.370093943837
C                     3.078149326316    -1.362143236167     0.458137318597
C                     3.252350151274    -0.759702207986     1.727490119347
C                     2.279439106001     0.147403550307     2.172964528924
C                    -1.453618433377    -0.721914917522    -0.256839704686
C                    -0.251203136584     0.136313562336    -0.688031272090
N                     4.026114238198    -2.779760659089    -1.033732652411
N                     4.114352066819    -2.244487787336     0.108829394498
O                     4.333088292366    -1.043737430217     2.488562245421
Br                    2.497685376952     0.994957049421     3.870850660028
H                     7.806907123341    -6.142402353245    -2.605533936198
H                     5.953256934136    -5.476324955550    -4.128002769772
H                     7.903202823309    -5.231913871966    -0.294133526817
H                     4.196651706913    -3.887679379053    -3.316147575873
H                     6.155619919358    -3.651603937226     0.499390545162
H                     1.861053875809    -1.543054631418    -1.296730910891
H                     0.434237342092     1.145293532668     1.755274722254
H                    -1.233647108221    -1.787655398573    -0.377972030115
H                    -2.339156965896    -0.483916657383    -0.856006808716
H                    -1.699884145498    -0.551715561295     0.796557040579
H                    -0.508349843429     1.197253363607    -0.588827505219
H                    -0.042558918415    -0.036583047177    -1.749222257907
H                     4.858519071263    -1.687688171865     1.968311576948
