18
0 1 C6F2H8N2
C                     1.428833249234     0.723319920059     1.644214205509
C                     0.111851149832     0.503606076658     1.135772052408
C                     1.534633172993     0.027042812877     2.834135035680
C                    -0.550895807586    -0.312866426534     2.035781343219
C                    -1.941137702751    -0.876521945527     2.012193052090
C                    -1.953450232957    -2.364992286338     1.636166372654
N                     0.322714938310    -0.586245644316     3.069754437879
N                    -2.769117212015    -0.153445124187     1.042633466012
F                    -1.245182711029    -2.622640494426     0.503358395265
F                    -1.366744590767    -3.086049576939     2.665962121246
H                     2.208093608797     1.322467936667     1.191153447939
H                    -0.302533823446     0.875544772182     0.208472404912
H                     2.357980651255    -0.075327354627     3.527650398750
H                    -2.348419784335    -0.849352796883     3.039029250129
H                    -2.965779408189    -2.761325744351     1.499813016192
H                     0.137855203720    -1.245033758228     3.813618382534
H                    -2.675054703377     0.846717123950     1.205193228436
H                    -3.751549853968    -0.387941146669     1.172520382795
