14   
torsion grid (-165,)
C       -2.6547816355    1.7230673034    0.0608595452
C       -2.7307649047    1.9366833335    1.5960548348
C       -1.1249498093    0.6728100552    1.0758087828
C        0.8070410451   -0.3724196633   -0.0084602534
C        1.8945051007    0.7450068965   -0.0871534987
N       -1.6574975064    0.9533860197   -0.2077466122
N       -1.7828824219    1.2777697772    2.1682649320
O        0.6241476183   -1.3611844964   -0.5868274554
O       -0.0916448635   -0.0179555456    1.2467549920
F        2.6595126241    0.6636684091    0.9972752117
F        2.6001746515    0.5619957307   -1.1850584442
F        1.2776322065    1.9368571304   -0.1175075703
H       -3.3097585126    2.1460794497   -0.6982248203
H       -3.4446868674    2.5539272843    2.1376137276
14   
torsion grid (-150,)
C       -2.6011212497    2.1630365817    0.6717844843
C       -2.8231210927    1.2365980532    1.8969841917
C       -1.4200774643    0.4114259349    0.5549590679
C        0.6527578594    0.1401384059   -0.7507031676
C        1.7086260835    0.7203457102    0.2466391617
N       -1.7291772622    1.6256358004   -0.1093266398
N       -2.0890155019    0.1843287311    1.7775356879
O        0.6528316942   -0.0405631948   -1.8960121588
O       -0.5379527476   -0.3818511710    0.1420080832
F        1.0959542304    1.6150748835    1.0415848069
F        2.1892892058   -0.2757252911    0.9822408322
F        2.6605221510    1.3029173732   -0.4528587968
H       -3.0728638594    3.1240868811    0.4769022387
H       -3.4648918192    1.4261517959    2.7550565585
14   
torsion grid (-135,)
C       -2.6501354978    2.1654259947    0.6947415880
C       -2.7027452581    1.2555886376    1.9525929412
C       -1.4496270939    0.4390748061    0.4642983630
C        0.6737339047    0.1091838683   -0.8038920725
C        1.6296730313    0.7133690327    0.2806315507
N       -1.8603700613    1.6356186065   -0.1743157354
N       -1.9637652972    0.2171712730    1.7605461849
O        0.8158396687   -0.1228148121   -1.9309916637
O       -0.6110719043   -0.3488827163   -0.0476335253
F        0.9412440643    1.6255371245    0.9938554813
F        2.0384654103   -0.2616221397    1.0816553058
F        2.6417454571    1.2855160393   -0.3368147729
H       -3.1670919447    3.1107246408    0.5421578551
H       -3.2373269107    1.4480717127    2.8806900773
14   
torsion grid (-120,)
C       -2.6991631739    2.2071667210    0.7714147841
C       -2.6679516923    1.2438122549    1.9913752893
C       -1.4758101085    0.5207617902    0.4056409733
C        0.7132918877   -0.0248414087   -0.7848198298
C        1.5732457378    0.6850115338    0.3181257499
N       -1.9453957652    1.7322828914   -0.1590285159
N       -1.9154537752    0.2336827328    1.7165385464
O        0.9980134243   -0.4654156572   -1.8188466030
O       -0.6966516789   -0.2578909195   -0.2086806297
F        0.8440365108    1.6693437019    0.8788205355
F        1.8895151442   -0.2122775360    1.2428383753
F        2.6461354614    1.1838055720   -0.2570959924
H       -3.2450413005    3.1446137237    0.6859348406
H       -3.1648514816    1.3796668669    2.9499624522
14   
torsion grid (-105,)
C       -2.7806101059    2.2381743644    0.8416516472
C       -2.6584812671    1.2324150333    2.0226391799
C       -1.5069070629    0.6201728296    0.3606747995
C        0.6975437937   -0.0870629519   -0.7887975053
C        1.5364921872    0.6618446705    0.3050552513
N       -2.0524356098    1.8276012819   -0.1384323506
N       -1.8738218840    0.2688650158    1.6791328421
O        1.0135036726   -0.6437692843   -1.7550893142
O       -0.7666783122   -0.1228787462   -0.3399968076
F        0.8320471473    1.7133645395    0.7638877921
F        1.7641365060   -0.1855207958    1.3012334680
F        2.6585777783    1.0700439271   -0.2471888882
H       -3.3663217833    3.1548899306    0.8154274680
H       -3.1287446841    1.3059612401    3.0012696379
14   
torsion grid (-90,)
C       -2.5169946425    2.4273089388    0.7252633358
C       -2.7548679119    1.2497931521    1.7149581878
C       -1.3762239524    0.7281620341    0.1995251883
C        0.8397801624   -0.3918664682   -0.5322075955
C        1.6515407755    0.6787096182    0.2773060062
N       -1.6688411576    2.0595023119   -0.1731896736
N       -2.0327367543    0.2450160351    1.3563688815
O        1.1813269814   -1.3154419381   -1.1439599795
O       -0.6409197385   -0.0153578845   -0.5072777543
F        0.9342085134    1.0671247466    1.3484222635
F        2.7856444890    0.1333826761    0.6596766799
F        1.8565797494    1.7233288997   -0.5170659307
H       -2.9681227633    3.4171008606    0.7584964319
H       -3.4106119172    1.2421820629    2.5833429434
14   
torsion grid (-75,)
C       -2.5961963650    2.4171079480    0.7383739372
C       -2.7097779776    1.2206719940    1.7266496625
C       -1.3431154755    0.8168129225    0.1645388682
C        0.8172682572   -0.3863764524   -0.5146391574
C        1.6785925674    0.6584454040    0.2786745488
N       -1.7537173524    2.1197735460   -0.1912527133
N       -1.9177141650    0.2804809861    1.3425638144
O        1.1209795643   -1.3552328101   -1.0756841725
O       -0.6197586648    0.1247313299   -0.6060849040
F        0.9384180736    1.1883205379    1.2723213657
F        2.7250438979    0.0344671172    0.7755921490
F        2.0392235897    1.6191164946   -0.5628070540
H       -3.1226673091    3.3680033273    0.7918209600
H       -3.3470108505    1.1507482596    2.6059511334
14   
torsion grid (-60,)
C       -2.6095186917    2.3910137374    0.7175458371
C       -2.6284486001    1.1529525164    1.6578000884
C       -1.2407003057    0.9172075010    0.0794339868
C        0.8633035600   -0.3511612003   -0.4836780451
C        1.7693445405    0.6788472949    0.2767929775
N       -1.7532072340    2.1945423575   -0.2263475611
N       -1.7650835725    0.2937982244    1.2393571364
O        1.1075069553   -1.3901056776   -0.9408379824
O       -0.4963793413    0.3070941670   -0.7395902268
F        1.0344013544    1.2987029008    1.2227363238
F        2.7644164408    0.0216251712    0.8330781696
F        2.2073932946    1.5756158378   -0.5980867014
H       -3.2079085795    3.2954396695    0.8080414895
H       -3.2639342349    0.9944704062    2.5268375951
14   
torsion grid (-45,)
C       -2.6941868089    2.3823418074    0.7530866729
C       -2.6224313816    1.1232104985    1.6599822961
C       -1.2383734505    1.0202729752    0.0644212261
C        0.7806884118   -0.3518254686   -0.3751021483
C        1.7906665259    0.6309818702    0.3092660805
N       -1.8383780459    2.2671356821   -0.2043946357
N       -1.7088953145    0.3335250770    1.2126770813
O        0.8726249991   -1.4638875527   -0.6946982762
O       -0.4644462192    0.4845757411   -0.7745999526
F        1.1267640501    1.3556485856    1.2321884271
F        2.7368087298   -0.0815729853    0.8833814445
F        2.2874789869    1.4419546223   -0.6162444485
H       -3.3511659647    3.2416304880    0.8720633813
H       -3.2402737422    0.8982790590    2.5270669902
14   
torsion grid (-30,)
C       -2.7942498021    2.3720652765    0.7297661846
C       -2.6013578244    1.1277381717    1.6374496900
C       -1.2298167255    1.1447437533    0.0274246350
C        0.7435910445   -0.2767105346   -0.3284620589
C        1.8495711317    0.6206263577    0.3175079078
N       -1.9410044974    2.3341295141   -0.2354614383
N       -1.6278876320    0.4197160744    1.1798500687
O        0.6854626825   -1.4081145111   -0.5787225946
O       -0.3945545798    0.6985846367   -0.7993478069
F        1.2731636874    1.4008004994    1.2494594925
F        2.7511395975   -0.1648885038    0.8693499070
F        2.3857257304    1.3811831468   -0.6307766101
H       -3.5256442276    3.1680667967    0.8540366597
H       -3.1841567980    0.8533160404    2.5144824833
14   
torsion grid (-15,)
C       -2.8878391460    2.2787693493    0.6790686008
C       -2.5586938679    1.0958541500    1.6282524808
C       -1.2102225709    1.1957748405    0.0015663610
C        0.7531199396   -0.2322990826   -0.3109164722
C        1.9344591151    0.5679608373    0.3219310130
N       -2.0418926951    2.2966708563   -0.2927689821
N       -1.5247092714    0.4723406533    1.1800689947
O        0.5798361738   -1.3535721131   -0.5540568127
O       -0.3043680168    0.8422418907   -0.7917190456
F        1.4389393432    1.3796743008    1.2692087921
F        2.7852036518   -0.2904290654    0.8471322458
F        2.5084557878    1.2931396878   -0.6339649541
H       -3.6979637260    2.9976161168    0.7835988493
H       -3.0951241620    0.8019727126    2.5282565617
14   
torsion grid (0,)
C       -2.9846053657    2.2188167757    0.6280550847
C       -2.5581736644    1.1177556431    1.6346775304
C       -1.2156367297    1.2538723385    0.0061810842
C        0.7450461767   -0.1776339576   -0.2951792247
C        1.9992351456    0.5142765666    0.3201300417
N       -2.1365457575    2.2657524549   -0.3406488377
N       -1.4756858137    0.5600482592    1.2147205906
O        0.4644323778   -1.2733361631   -0.5544546151
O       -0.2398868260    0.9884127786   -0.7348189740
F        1.5935786798    1.3253378666    1.3062600113
F        2.8048045030   -0.4193343722    0.7873892632
F        2.5913180792    1.2268795798   -0.6351039758
H       -3.8546223628    2.8686424488    0.6968699254
H       -3.0625986069    0.8331911311    2.5559376371
14   
torsion grid (15,)
C       -3.0694896359    2.1636892780    0.5787010411
C       -2.5997225337    1.1492676696    1.6549856159
C       -1.2178899118    1.2975608097    0.0599664439
C        0.7486552965   -0.1288755390   -0.2434467495
C        2.0806040103    0.4506464893    0.3176829940
N       -2.1934997690    2.2241749034   -0.3642830497
N       -1.4715450756    0.6441201855    1.2929660286
O        0.3617730969   -1.1913951804   -0.5063348876
O       -0.1680203731    1.1170137082   -0.6023851774
F        1.7879585775    1.2290505588    1.3653031303
F        2.8534515009   -0.5544716012    0.6828868646
F        2.6556349471    1.1756099422   -0.6392529476
H       -3.9846350218    2.7522046450    0.5872317438
H       -3.1042886891    0.8901705274    2.5836306251
14   
torsion grid (30,)
C       -3.1430939641    2.1433469801    0.5158439706
C       -2.7066098370    1.1767446715    1.6502471552
C       -1.2178331486    1.3585070524    0.1599417702
C        0.7700652280   -0.0394913516   -0.1981550136
C        2.1929455337    0.4341854141    0.2190815451
N       -2.1990654760    2.2304102462   -0.3570913062
N       -1.5339917324    0.7153332646    1.3825704468
O        0.2882580723   -1.0677185329   -0.4469092857
O       -0.0908990076    1.2624014508   -0.3888990860
F        2.0745545552    1.1648054238    1.3318840550
F        2.9407004536   -0.6320187271    0.4353214608
F        2.6938167728    1.1790073362   -0.7639078191
H       -4.0838764674    2.6848348953    0.4402250548
H       -3.2606057614    0.9234811591    2.5520174895
14   
torsion grid (45,)
C       -3.1826516933    2.1084246668    0.4461806439
C       -2.8402427573    1.1791640097    1.6450786991
C       -1.2130458150    1.3641215566    0.3090462316
C        0.8065517921   -0.0101581623   -0.1040486697
C        2.2851385304    0.4159393429    0.1403948589
N       -2.1549586082    2.2002090667   -0.3264171903
N       -1.6373281289    0.7389246810    1.5067265034
O        0.2734457530   -1.0183781466   -0.3329146925
O       -0.0218706748    1.3130509525   -0.0994920973
F        2.3369902310    1.0729768079    1.3012747889
F        3.0266196942   -0.6762388526    0.1843842821
F        2.6680293071    1.2128861560   -0.8541883503
H       -4.1238502604    2.6218022884    0.2599110780
H       -3.4746498146    0.9376980813    2.4957173997
14   
torsion grid (60,)
C       -3.1664748023    2.0886245992    0.3935503659
C       -2.9295374775    1.2029058407    1.6519937849
C       -1.1889368336    1.3521748363    0.4622459051
C        0.8648173512   -0.0010113262   -0.0637829880
C        2.3560642590    0.4460250733    0.0473912971
N       -2.0737850991    2.1573308270   -0.2867484336
N       -1.7167181066    0.7676234097    1.6376684738
O        0.3286310185   -1.0003390070   -0.3206711173
O        0.0363027340    1.2925106003    0.1667702966
F        2.5280655109    1.0378217024    1.2288718029
F        3.1105983229   -0.6340680397   -0.0536443987
F        2.6157797788    1.3014997063   -0.9380505174
H       -4.0892031129    2.5875511620    0.1039981298
H       -3.6392717923    0.9820245210    2.4469093254
14   
torsion grid (75,)
C       -3.1548695839    2.0520180653    0.3382340994
C       -2.9917674916    1.2826000067    1.6822729378
C       -1.1876995708    1.3170933820    0.5790339885
C        0.8934034796   -0.0420324324   -0.0717867975
C        2.3725025216    0.4528571065    0.0155109971
N       -2.0291200503    2.0493988304   -0.2891833883
N       -1.7812060403    0.8502300012    1.7750787640
O        0.3742345314   -1.0313815073   -0.3887804864
O        0.0430025148    1.1871189639    0.3420804037
F        2.5940152328    0.8997926539    1.2494751435
F        3.1541175838   -0.5757429016   -0.2624229721
F        2.5426046144    1.4326383325   -0.8677920676
H       -4.0571058869    2.5254860065   -0.0438367551
H       -3.7498706771    1.1218396202    2.4462987068
14   
torsion grid (90,)
C       -3.1535804435    1.9907884071    0.3064580033
C       -3.0160196289    1.3849760607    1.7345065703
C       -1.1848096899    1.3163795699    0.6800290397
C        0.8783185953   -0.0623451327   -0.0789453097
C        2.3591221014    0.4292138926    0.0071600159
N       -2.0133762995    1.9259497281   -0.2907147491
N       -1.8017476841    0.9906516588    1.9103781302
O        0.3493586995   -1.0311248096   -0.4380611074
O        0.0415744773    1.1188109360    0.4772491871
F        2.6478218083    0.6672618272    1.2837516488
F        3.1250702164   -0.5308212119   -0.4802413403
F        2.4778897679    1.5433589343   -0.7089613350
H       -4.0508694353    2.4040346583   -0.1499351954
H       -3.7966007839    1.2873250107    2.4864090078
14   
torsion grid (105,)
C       -3.1255388921    1.9064612777    0.2478185512
C       -3.0405850573    1.4349714950    1.7297924057
C       -1.1560331575    1.3483741789    0.7774654614
C        0.8422782975   -0.0232874588   -0.0745135043
C        2.3398997146    0.4215617074   -0.0384529865
N       -1.9547981392    1.8297769918   -0.2857241857
N       -1.8219923263    1.1165135620    2.0028210779
O        0.2698043297   -0.9562398763   -0.4625464915
O        0.0748126032    1.1170767430    0.6427762058
F        2.7259737355    0.5018353442    1.2316282563
F        3.0409641302   -0.4901219522   -0.6894433539
F        2.4396119220    1.6101246129   -0.6281466471
H       -4.0116676772    2.2420732795   -0.2873814217
H       -3.8588295933    1.3542731454    2.4426691873
14   
torsion grid (120,)
C       -3.0586555921    1.8051811043    0.1962585081
C       -3.0487792291    1.4803255283    1.7190062383
C       -1.1098460348    1.3725188951    0.8904203052
C        0.8039631673    0.0364130760   -0.0470576678
C        2.3169522976    0.4214774333   -0.0645551320
N       -1.8562723261    1.7156605832   -0.2598152853
N       -1.8388965832    1.2425362651    2.0938635840
O        0.1772674095   -0.8416723200   -0.4805143582
O        0.1230514594    1.1112530026    0.8440472891
F        2.7888932611    0.3452566932    1.1766660749
F        2.9399555654   -0.4298984731   -0.8604104639
F        2.4235441282    1.6674473180   -0.5235111569
H       -3.9199238047    2.0584065184   -0.4189428276
H       -3.9073688756    1.4238295073    2.3852753797
14   
torsion grid (135,)
C       -2.9729069891    1.7669128104    0.1584726270
C       -3.0574616803    1.5464108122    1.6953461443
C       -1.0880707723    1.2856363757    0.9846113197
C        0.7845994900    0.0019796624   -0.0230507501
C        2.2710374394    0.4588780653   -0.1321203807
N       -1.7563134136    1.5852253064   -0.2259023120
N       -1.8833461208    1.2757047594    2.1521095232
O        0.1605729476   -0.8700625220   -0.4727597316
O        0.1258810013    0.9531781782    1.0268873071
F        2.8518086873    0.2942628198    1.0538148597
F        2.8601914362   -0.2808009044   -1.0546686779
F        2.2840614385    1.7475152761   -0.4758536646
H       -3.7859634013    2.0247278529   -0.5173782088
H       -3.9507291174    1.5791374111    2.3159657067
14   
torsion grid (150,)
C       -2.8259971633    1.7730595071    0.1081324095
C       -3.0350126219    1.6096781437    1.6382921764
C       -1.0677884628    1.1015413045    1.0706821052
C        0.7989319303   -0.1186486563    0.0265141551
C        2.1927739204    0.5461098792   -0.1684655806
N       -1.6164355284    1.4427918599   -0.1891956707
N       -1.9346421188    1.2145445866    2.1797039072
O        0.2563983094   -1.0384813420   -0.4316419339
O        0.0986276449    0.6542050581    1.2072914391
F        2.8864210587    0.4084153011    0.9585488833
F        2.8009947004   -0.0498182920   -1.1770145365
F        1.9966931683    1.8418177304   -0.4305899205
H       -3.5565003475    2.1058129411   -0.6265842736
H       -3.9541404913    1.7751329519    2.1967467775
14   
torsion grid (165,)
C       -2.7157883622    1.7840329547    0.0890272708
C       -2.9659890071    1.7291467318    1.6195244099
C       -1.0803352493    0.9278540671    1.1207902391
C        0.7837314673   -0.2460392495    0.0490097247
C        2.0531639693    0.6282552089   -0.1754796156
N       -1.5580385161    1.2803974107   -0.1665350410
N       -1.9419971462    1.2087854428    2.2030764167
O        0.3646451186   -1.2223190941   -0.4181907253
O        0.0259247794    0.3669910880    1.3048205583
F        2.8305174480    0.5133171271    0.8991139118
F        2.6712879578    0.1977235705   -1.2589192994
F        1.6659132104    1.8996343183   -0.3235401018
H       -3.3828938211    2.1762963101   -0.6759312342
H       -3.8562034620    2.0598467203    2.1505792914
14   
torsion grid (180,)
C       -2.6809078520    1.7466490603    0.0763729048
C       -2.8650156886    1.8247022201    1.6150791164
C       -1.1032241792    0.7838421967    1.1041330700
C        0.7914920338   -0.3168594674    0.0180665439
C        1.9734542730    0.6872416674   -0.1362890690
N       -1.5945863375    1.1060256073   -0.1858991734
N       -1.8800176020    1.2302644088    2.1949408422
O        0.4837157473   -1.3012957114   -0.5140739691
O       -0.0334721999    0.1564033497    1.2889190306
F        2.7373273161    0.6040017940    0.9498695383
F        2.6516544386    0.3714892160   -1.2220190866
F        1.4645698679    1.9226915713   -0.2389708580
H       -3.3354637469    2.1586723012   -0.6890819308
H       -3.6798599928    2.3032999660    2.1544223135
