22   
torsion grid (-165,)
C        2.5402680590    4.8595820866   -1.8095111450
C        3.7482448661    4.3157611991   -2.2523338086
C        1.5569578835    3.9997327651   -1.3238720065
C        3.9026607333    2.9248929984   -2.1821469119
C        1.8056077855    2.6127687322   -1.2930224983
C        0.7555048690    1.7258591745   -0.7724872382
C        0.4067088998   -1.6847931201    0.0998356354
C       -1.1860609620    0.1858930324    0.4763514824
N        2.9725604278    2.0869790690   -1.7203040676
N        0.9192411649    0.4438385867   -0.7220875434
N       -0.0720699284   -0.3610764345   -0.2882797133
H        2.3671747261    5.9324693280   -1.8420907559
H        4.5476058340    4.9406053601   -2.6402464304
H        0.6045282969    4.3886555935   -0.9716665054
H        4.8314789135    2.4637001730   -2.5183348880
H       -0.1636903557    2.2235885852   -0.4532033917
H        1.1979316307   -1.9739206270   -0.5921026294
H       -0.4121314784   -2.4074247416    0.0351919159
H        0.8121419833   -1.6960975766    1.1236050089
H       -1.8795291159    0.7360806881   -0.1691736637
H       -0.8318905201    0.8664321795    1.2675218989
H       -1.7240412139   -0.6347957315    0.9532002448
22   
torsion grid (-150,)
C        2.5389531986    4.8640163081   -1.8382705163
C        3.7649386676    4.3184347053   -2.2261219391
C        1.5475241963    4.0081126096   -1.3624226978
C        3.9287007997    2.9314633667   -2.1130681787
C        1.8053799457    2.6244425620   -1.2859571107
C        0.7457161092    1.7413948922   -0.7794593530
C        0.3825437584   -1.6885228721    0.0424411329
C       -1.1693261214    0.1913818708    0.5388121352
N        2.9906692607    2.0981227685   -1.6589978120
N        0.9134636583    0.4608154524   -0.7089535978
N       -0.0806299736   -0.3408929274   -0.2773780743
H        2.3585029047    5.9341052416   -1.9054158647
H        4.5719654908    4.9396793754   -2.6037510902
H        0.5807126875    4.3977139668   -1.0528090734
H        4.8721661309    2.4699384554   -2.4052032708
H       -0.1863008804    2.2380139145   -0.4966782625
H        1.1382121259   -1.9709404465   -0.6907266100
H       -0.4556265238   -2.3889012614   -0.0171966770
H        0.8263267191   -1.7478678788    1.0483674535
H       -1.9967345492    0.5683144646   -0.0734020880
H       -0.8077551809    1.0106510003    1.1771043596
H       -1.5364766155   -0.5946259120    1.2013777302
22   
torsion grid (-135,)
C        2.5376148145    4.8522201001   -1.8795978938
C        3.7724910596    4.3038922549   -2.2344003405
C        1.5397481260    4.0015068428   -1.4082159989
C        3.9372543649    2.9196241097   -2.0934701653
C        1.7994642800    2.6198542146   -1.3025852425
C        0.7311637183    1.7436218184   -0.8039594473
C        0.3472213403   -1.7125623239   -0.0518924566
C       -1.1842994814    0.1473569503    0.5514755300
N        2.9936531314    2.0909047219   -1.6425340239
N        0.8969503752    0.4637766199   -0.7192178876
N       -0.0917004961   -0.3417145110   -0.2887031434
H        2.3553956407    5.9204251811   -1.9686996967
H        4.5851418392    4.9209161244   -2.6068647736
H        0.5659494229    4.3934817333   -1.1245304529
H        4.8875921456    2.4560069605   -2.3588377460
H       -0.2054819744    2.2443599747   -0.5434183559
H        1.0949856645   -1.9674964792   -0.8028271676
H       -0.5047545187   -2.3925796160   -0.1482078836
H        0.7898565313   -1.8389330753    0.9485015848
H       -2.1146144308    0.2864204921   -0.0118464096
H       -0.9115149963    1.1029087768    1.0128961943
H       -1.3558081237   -0.5593909925    1.3684644764
22   
torsion grid (-120,)
C        2.5680605647    4.8567632568   -1.8708197739
C        3.7924710987    4.2983666328   -2.2459977099
C        1.5669421605    4.0130316964   -1.3942026431
C        3.9437221348    2.9112593873   -2.1192337396
C        1.8125858591    2.6274377013   -1.3034660441
C        0.7412313344    1.7587071292   -0.7990619164
C        0.3620446556   -1.7205984870   -0.1068062773
C       -1.2055478880    0.0834734471    0.5259133740
N        2.9967406105    2.0889379287   -1.6635955744
N        0.8988722423    0.4780660927   -0.7218096670
N       -0.0738825402   -0.3439357291   -0.2946079445
H        2.3964039879    5.9276371571   -1.9483477554
H        4.6070484206    4.9098178377   -2.6233825577
H        0.6012301597    4.4133442238   -1.0948493779
H        4.8854380143    2.4396180712   -2.4008721230
H       -0.1861247009    2.2699239185   -0.5252842130
H        1.1236588385   -1.9466391308   -0.8529672784
H       -0.4883088726   -2.3969810838   -0.2428136960
H        0.7837911803   -1.8856637188    0.8972785967
H       -2.1611422782   -0.0948993800    0.0186520876
H       -1.1355975657    1.1452637828    0.7646955696
H       -1.2016139052   -0.4651229792    1.4760303757
22   
torsion grid (-105,)
C        2.6195918952    4.8715658715   -1.7799020564
C        3.7805492351    4.2910035514   -2.2970231734
C        1.6313305611    4.0398205650   -1.2581566664
C        3.8831992791    2.8943099466   -2.2607399737
C        1.8252922690    2.6427247441   -1.2647479625
C        0.7712284923    1.7875800009   -0.7055808287
C        0.3817183383   -1.6971695918   -0.0085470306
C       -1.2863415206    0.0789310787    0.4280226611
N        2.9468397934    2.0825724139   -1.7656338009
N        0.9052278116    0.5014915295   -0.6705283482
N       -0.0421750076   -0.3233745585   -0.2121384206
H        2.4868562172    5.9507727963   -1.7831860950
H        4.5819556056    4.8925044275   -2.7162544321
H        0.7154043880    4.4581777400   -0.8475563860
H        4.7738483666    2.4048590505   -2.6555640554
H       -0.1107818540    2.3160914933   -0.3339506183
H        1.2331104433   -1.8923922535   -0.6605217700
H       -0.4356618815   -2.3830380440   -0.2598627922
H        0.6807168262   -1.8826727716    1.0350793710
H       -2.1091358446   -0.5254939879    0.0279536461
H       -1.5164143774    1.1245549996    0.2344242095
H       -1.2510710061   -0.0874065446    1.5151095518
22   
torsion grid (-90,)
C        2.6320556217    4.8659181687   -1.7199292556
C        3.7741651153    4.2951653975   -2.2872166137
C        1.6486906433    4.0235716723   -1.2056536492
C        3.8638942448    2.8971978626   -2.3068649918
C        1.8290591979    2.6264161842   -1.2700343146
C        0.7818140508    1.7593584057   -0.7153546350
C        0.3847230196   -1.7048918813    0.0022828494
C       -1.2870622160    0.0970081220    0.3537528951
N        2.9317388373    2.0755755089   -1.8202492813
N        0.9081712139    0.4716554447   -0.7207459735
N       -0.0533743772   -0.3475075742   -0.2738797305
H        2.5099016374    5.9455846054   -1.6791463209
H        4.5707688824    4.9050817438   -2.7034594090
H        0.7472533243    4.4338666816   -0.7566936370
H        4.7395135375    2.4152984412   -2.7423894240
H       -0.0878298626    2.2785740951   -0.3042447378
H        1.2209905553   -1.9339929499   -0.6587122889
H       -0.4343200694   -2.4073443639   -0.1867461778
H        0.7142036683   -1.8266194931    1.0462140888
H       -2.0611993035   -0.6523332453    0.1584817406
H       -1.6262488541    1.0420216854   -0.0709582181
H       -1.1922779770    0.1926075156    1.4473399054
22   
torsion grid (-75,)
C        2.6263364259    4.8554920420   -1.6878479966
C        3.7718880614    4.2947388979   -2.2577654850
C        1.6412506066    4.0031419313   -1.1932448833
C        3.8635322390    2.8972886914   -2.2998403673
C        1.8234659923    2.6077696204   -1.2796437980
C        0.7740346332    1.7298247116   -0.7448915920
C        0.3663537461   -1.7180649072   -0.0241185280
C       -1.2715109672    0.1193343454    0.3266059876
N        2.9296641904    2.0668439932   -1.8319936796
N        0.8986207625    0.4423628730   -0.7746367898
N       -0.0804187483   -0.3713958226   -0.3458602599
H        2.5027655400    5.9342082468   -1.6301365024
H        4.5702508602    4.9120956692   -2.6594283072
H        0.7366441780    4.4047980765   -0.7429297431
H        4.7422318890    2.4235937516   -2.7380476739
H       -0.0982984340    2.2398639632   -0.3285229000
H        1.1816398015   -1.9758750367   -0.7007565072
H       -0.4580600294   -2.4254458888   -0.1595957543
H        0.7299548398   -1.7964239944    1.0126673493
H       -2.0101903285   -0.6862212992    0.3451884650
H       -1.7069125835    0.9595899810   -0.2195044954
H       -1.0751668060    0.4207623016    1.3690046417
22   
torsion grid (-60,)
C        2.6148360414    4.8432267454   -1.6790592294
C        3.7758178306    4.2883679610   -2.2225531308
C        1.6222454005    3.9859665495   -1.2080705747
C        3.8756011300    2.8913608399   -2.2636047308
C        1.8136901589    2.5920351235   -1.2918740711
C        0.7550893708    1.7085221674   -0.7831702298
C        0.3420375775   -1.7296283522   -0.0674147902
C       -1.2473692698    0.1360241144    0.3432645640
N        2.9350220608    2.0564483519   -1.8177898091
N        0.8801561629    0.4216923040   -0.8198608139
N       -0.1143377882   -0.3866557192   -0.4046282554
H        2.4849989275    5.9212886174   -1.6234679164
H        4.5804341518    4.9099509767   -2.6047629820
H        0.7052837126    4.3827380638   -0.7789360773
H        4.7666807647    2.4222930157   -2.6812234359
H       -0.1284660620    2.2143313796   -0.3859803897
H        1.1332998224   -2.0032746608   -0.7658884749
H       -0.4875089563   -2.4367768581   -0.1624991011
H        0.7411694997   -1.7867862989    0.9574819770
H       -1.9240425529   -0.6893961197    0.5721894190
H       -1.7989288121    0.8697688348   -0.2531716775
H       -0.9372247661    0.6103412090    1.2892505715
22   
torsion grid (-45,)
C        2.5998377429    4.8357831549   -1.7012915142
C        3.7817245411    4.2820201551   -2.1987746964
C        1.6013740758    3.9766805644   -1.2461894101
C        3.8957345630    2.8855001118   -2.2116686282
C        1.8075724893    2.5834264702   -1.2995332239
C        0.7411677520    1.6985562945   -0.8096173116
C        0.3161419204   -1.7486829139   -0.1364520212
C       -1.2186935532    0.1359805430    0.3850466110
N        2.9498213894    2.0493655388   -1.7797840710
N        0.8697872541    0.4118067243   -0.8389918582
N       -0.1345918597   -0.3919557442   -0.4340425762
H        2.4585906587    5.9133618774   -1.6687886104
H        4.5924229259    4.9044106734   -2.5665298987
H        0.6678125238    4.3718422040   -0.8529114951
H        4.8038804809    2.4179320342   -2.5925549728
H       -0.1566285349    2.2024405529   -0.4428265864
H        1.0833012120   -2.0167774690   -0.8631344290
H       -0.5238299935   -2.4440606767   -0.2244694161
H        0.7436588719   -1.8321990257    0.8748369325
H       -1.7819336807   -0.6953947098    0.8106544008
H       -1.9055665293    0.7404382531   -0.2192134890
H       -0.8361257631    0.7733296936    1.1979975553
22   
torsion grid (-30,)
C        2.5970302620    4.8405410266   -1.7295312015
C        3.8002344628    4.2846874146   -2.1704664037
C        1.5896455056    3.9861954222   -1.2854115557
C        3.9260392430    2.8894956032   -2.1400639637
C        1.8090191042    2.5938533567   -1.2931720088
C        0.7329607971    1.7124939766   -0.8191277540
C        0.2881466572   -1.7488193216   -0.1950134346
C       -1.1943610886    0.1389021841    0.4552370074
N        2.9723672235    2.0574501194   -1.7173025119
N        0.8644899942    0.4258210736   -0.8274818710
N       -0.1443024722   -0.3722454476   -0.4234462530
H        2.4461497508    5.9172884067   -1.7318898545
H        4.6183091356    4.9042013588   -2.5265562417
H        0.6396618575    4.3837879690   -0.9363746042
H        4.8509122778    2.4197644128   -2.4753618448
H       -0.1791828550    2.2179621263   -0.4907410659
H        1.0148093362   -2.0088653416   -0.9648573223
H       -0.5715479681   -2.4209873906   -0.2709521767
H        0.7570166945   -1.8790809573    0.7925832802
H       -1.5871933900   -0.6755777624    1.0656624070
H       -2.0230116822    0.5677475042   -0.1225965450
H       -0.8068769086    0.9328431631    1.1088151094
22   
torsion grid (-15,)
C        2.4229514138    4.8041482346   -2.1395523057
C        3.7048194741    4.3098266597   -2.3924026236
C        1.4570624067    3.9327566506   -1.6402468909
C        3.9471745977    2.9557626010   -2.1261586053
C        1.7954289220    2.5844503729   -1.4051410147
C        0.7604917085    1.6840955137   -0.8798187624
C        0.5588276885   -1.7178277853    0.1444848025
C       -1.1129317138    0.0757687616    0.5303889793
N        3.0349306634    2.1081313243   -1.6466295839
N        1.0008436500    0.4294145277   -0.6784440121
N        0.0458841075   -0.4026652060   -0.2234282475
H        2.1803721547    5.8471542322   -2.3279339298
H        4.4952527489    4.9454031847   -2.7811068702
H        0.4485318556    4.2828986616   -1.4336528825
H        4.9358182900    2.5344549011   -2.3095043149
H       -0.2167574369    2.1426174458   -0.7043904083
H        1.3548658480   -1.9821641191   -0.5515289433
H       -0.2434124185   -2.4585207241    0.0702774537
H        0.9616443944   -1.7336756657    1.1692348562
H       -1.2806822595   -0.5713905753    1.3956436814
H       -2.0230224210    0.0781431741   -0.0831368742
H       -0.9501985313    1.0992555071    0.8826815576
22   
torsion grid (0,)
C        2.4459698867    4.8083340456   -2.1298786199
C        3.7149457831    4.2958763913   -2.4107390583
C        1.4757488202    3.9481894943   -1.6199307145
C        3.9398428626    2.9358202598   -2.1604398814
C        1.7963192275    2.5923511232   -1.4020061478
C        0.7563267146    1.7055999860   -0.8645458231
C        0.5557892614   -1.7181660978    0.1214374667
C       -1.1544641658    0.0229949982    0.5119347067
N        3.0232739065    2.0983981539   -1.6713404232
N        0.9856582787    0.4489698764   -0.6667942239
N        0.0470606635   -0.3944068441   -0.2077039387
H        2.2166923358    5.8566859401   -2.3049301690
H        4.5081756573    4.9219880961   -2.8089819875
H        0.4771229046    4.3128871843   -1.3914186507
H        4.9178653656    2.5002035689   -2.3661453776
H       -0.2102314725    2.1804594614   -0.6734241614
H        1.3706448671   -1.9547906450   -0.5625912875
H       -0.2421178996   -2.4587942848    0.0025363885
H        0.9297890388   -1.7697718295    1.1562258411
H       -1.1629047568   -0.4235767523    1.5140994973
H       -2.0628419385   -0.2919518198   -0.0160642331
H       -1.1882330855    1.1063976834    0.6266145049
22   
torsion grid (15,)
C        2.4914381182    4.8347406710   -2.0492636933
C        3.7195452803    4.2950604848   -2.4400705581
C        1.5289434763    3.9839357441   -1.5102763357
C        3.9123704309    2.9184006668   -2.2659676169
C        1.8154893715    2.6096887552   -1.3736243942
C        0.7853803010    1.7350782729   -0.7994720131
C        0.5870080377   -1.6967019880    0.1780496661
C       -1.2023834671   -0.0065796240    0.4166302766
N        3.0020556783    2.0889990042   -1.7520086117
N        0.9981300288    0.4693611281   -0.6422911553
N        0.0802461386   -0.3791831514   -0.1655308061
H        2.2877253246    5.8968345825   -2.1622909068
H        4.5048845278    4.9126519162   -2.8662610278
H        0.5622356042    4.3701360681   -1.1958547969
H        4.8575213516    2.4610644671   -2.5595826545
H       -0.1508158095    2.2318599911   -0.5305123933
H        1.4637042010   -1.8982357633   -0.4374670831
H       -0.1797782275   -2.4543428728   -0.0196345237
H        0.8726843457   -1.7612299362    1.2398439699
H       -1.1815637039   -0.1094587008    1.5122222974
H       -1.9929415022   -0.6550411033    0.0233064406
H       -1.4559101632    1.0270094496    0.1898910484
22   
torsion grid (30,)
C        2.5095954955    4.8463191325   -1.9816168214
C        3.7123349771    4.3015804809   -2.4384782937
C        1.5536289714    3.9924618710   -1.4357088222
C        3.8876987785    2.9166120702   -2.3208766321
C        1.8215717851    2.6100443011   -1.3585385899
C        0.8011129089    1.7314235974   -0.7730446232
C        0.5835395972   -1.6796281928    0.2303653487
C       -1.2144210093    0.0277374869    0.3535492729
N        2.9829326485    2.0841186013   -1.8021054668
N        1.0048562209    0.4593418745   -0.6525105716
N        0.0770643828   -0.3798433607   -0.1752958197
H        2.3201878437    5.9148699687   -2.0494092826
H        4.4911325748    4.9213522662   -2.8734319783
H        0.6067130977    4.3825958754   -1.0701145709
H        4.8125447118    2.4549254571   -2.6674825564
H       -0.1178852841    2.2296459910   -0.4534770867
H        1.4610663494   -1.9081639211   -0.3750197617
H       -0.1823959186   -2.4459125648    0.0682495987
H        0.8717363812   -1.6949478549    1.2932795768
H       -1.1719183475    0.2265460697    1.4371793623
H       -1.9438783267   -0.7672521585    0.1744836709
H       -1.5607168848    0.9407603664   -0.1315759593
22   
torsion grid (45,)
C        2.4958218902    4.8439551103   -1.9426944364
C        3.6978208090    4.3039257120   -2.4065767641
C        1.5395415206    3.9834229902   -1.4074626215
C        3.8720096004    2.9173498448   -2.3064447793
C        1.8062739621    2.6002435820   -1.3478958203
C        0.7854870188    1.7138500499   -0.7732652864
C        0.5523876616   -1.6738807564    0.2576635069
C       -1.2120306624    0.0759331950    0.3629639535
N        2.9669083911    2.0789442980   -1.7979743904
N        0.9863974830    0.4395398069   -0.6710109470
N        0.0426858181   -0.3912519474   -0.2013458899
H        2.3071511178    5.9133867661   -1.9969891159
H        4.4770881672    4.9284372684   -2.8338722783
H        0.5928639231    4.3693808633   -1.0369502202
H        4.7964404029    2.4594162634   -2.6589419000
H       -0.1329177634    2.2069219606   -0.4450614784
H        1.4114868426   -1.9384849003   -0.3595740985
H       -0.2221347243   -2.4405545265    0.1533087779
H        0.8718229383   -1.6384933045    1.3111585237
H       -1.0841024501    0.4941618385    1.3759947243
H       -1.9110167068   -0.7615998952    0.4150455701
H       -1.6448989581    0.8587698017   -0.2649210412
22   
torsion grid (60,)
C        2.4872558942    4.8391547622   -1.9285044249
C        3.7009432838    4.3084539112   -2.3717255320
C        1.5264409884    3.9699415214   -1.4154197104
C        3.8833018631    2.9225846327   -2.2748306422
C        1.8017675825    2.5887979090   -1.3576859215
C        0.7748771789    1.6931071590   -0.8068522412
C        0.5365721148   -1.6786281096    0.2308221594
C       -1.1832463417    0.1081483322    0.3839098892
N        2.9739993421    2.0765857244   -1.7870095273
N        0.9772614791    0.4192199635   -0.7115921933
N        0.0154628875   -0.4080846927   -0.2583591539
H        2.2929552331    5.9076099342   -1.9816193068
H        4.4841113654    4.9400534288   -2.7810880978
H        0.5702131271    4.3476895275   -1.0613872718
H        4.8173734616    2.4724763172   -2.6115338914
H       -0.1536436462    2.1784552512   -0.4961973372
H        1.3761504547   -1.9663656618   -0.4025707392
H       -0.2424980642   -2.4447667262    0.1725195146
H        0.8880931380   -1.6089097344    1.2722556763
H       -0.9500754040    0.6803668182    1.2976147481
H       -1.8289275492   -0.7311037841    0.6484490577
H       -1.7340493085    0.7625898243   -0.2990890565
22   
torsion grid (75,)
C        2.4767225434    4.8335505226   -1.9469891161
C        3.7101769503    4.3104052641   -2.3417533599
C        1.5100204915    3.9616433575   -1.4495487265
C        3.9056885954    2.9287804259   -2.2140322000
C        1.7995966089    2.5853115121   -1.3589373897
C        0.7656208667    1.6860631403   -0.8271868841
C        0.5114103128   -1.6934879466    0.1785900286
C       -1.1536919795    0.1335480085    0.4363612762
N        2.9914122379    2.0803370962   -1.7400343960
N        0.9699738844    0.4133443598   -0.7240139830
N       -0.0050344233   -0.4069656206   -0.2801085712
H        2.2716901260    5.8984384050   -2.0252195090
H        4.4988293720    4.9444887355   -2.7365021567
H        0.5383497430    4.3335428038   -1.1334504272
H        4.8556412567    2.4845610449   -2.5118278679
H       -0.1757950611    2.1653586982   -0.5466213767
H        1.3196634666   -1.9910113666   -0.4898656377
H       -0.2835392858   -2.4439838128    0.1410317188
H        0.9045502502   -1.6413445507    1.2058354799
H       -0.8485490259    0.8447179796    1.2199494479
H       -1.6934243709   -0.6920622115    0.9034260860
H       -1.8460938893    0.6333619187   -0.2505568102
22   
torsion grid (90,)
C        2.4768795070    4.8434246125   -1.9769343774
C        3.7276570137    4.3238223701   -2.3184703926
C        1.5040075026    3.9737707989   -1.4878061013
C        3.9336790316    2.9483699805   -2.1479559199
C        1.8046084905    2.6033947606   -1.3520528768
C        0.7630943912    1.7063335340   -0.8324845932
C        0.4897241489   -1.6943213591    0.1278491443
C       -1.1285405847    0.1544977258    0.5089528620
N        3.0137770595    2.1023879075   -1.6804513751
N        0.9699370301    0.4358687876   -0.7074627571
N       -0.0097825524   -0.3790315655   -0.2648155816
H        2.2634198872    5.9035801962   -2.0895305109
H        4.5220978655    4.9563378076   -2.7039952963
H        0.5187489512    4.3426986446   -1.2130113064
H        4.8975440625    2.5074621171   -2.4029476920
H       -0.1903722759    2.1825605535   -0.5883916873
H        1.2850111849   -1.9744440359   -0.5629562226
H       -0.3182580043   -2.4290867586    0.0633573868
H        0.8933690978   -1.6970046572    1.1522173420
H       -0.8155098815    1.0031325982    1.1322104208
H       -1.5051491628   -0.6327560202    1.1657099779
H       -1.9595599219    0.4604215668   -0.1379893581
22   
torsion grid (105,)
C        2.4895162965    4.8512006499   -1.9981049680
C        3.7485340687    4.3282962809   -2.3028960002
C        1.5088599181    3.9905208738   -1.5090902958
C        3.9542650101    2.9578029421   -2.0966282477
C        1.8099021442    2.6240880743   -1.3361739149
C        0.7601501693    1.7355129831   -0.8203408691
C        0.4705297495   -1.6926397360    0.0835555321
C       -1.1309663822    0.1425799402    0.5687641249
N        3.0274246779    2.1200017112   -1.6279291567
N        0.9647892016    0.4668447309   -0.6746428078
N       -0.0076384759   -0.3500876271   -0.2282176096
H        2.2756588591    5.9079071447   -2.1389172412
H        4.5490434825    4.9544199431   -2.6862849952
H        0.5172631816    4.3628545452   -1.2631068992
H        4.9243092901    2.5140508346   -2.3216396549
H       -0.1977044460    2.2157398089   -0.6014383430
H        1.2427612833   -1.9571006743   -0.6387542888
H       -0.3561110383   -2.4051124862    0.0020420204
H        0.8945049002   -1.7563946407    1.0978420325
H       -0.9091379697    1.1252889250    0.9965090167
H       -1.3080522833   -0.5500042472    1.3973227164
H       -2.0575648469    0.1982799716   -0.0157741984
22   
torsion grid (120,)
C        2.5211204219    4.8672142087   -1.9818953418
C        3.7678532095    4.3268390487   -2.3065940692
C        1.5358645071    4.0196932853   -1.4796680815
C        3.9563811674    2.9531056079   -2.1057891877
C        1.8194135801    2.6484123863   -1.3132916232
C        0.7640463740    1.7755680821   -0.7831313411
C        0.4712785532   -1.6732345016    0.0833510451
C       -1.1617631284    0.1131242455    0.5881578244
N        3.0250347625    2.1274321972   -1.6247226703
N        0.9569897958    0.5058460798   -0.6362725436
N        0.0005503353   -0.3216204194   -0.1842274630
H        2.3203131061    5.9271779145   -2.1175606399
H        4.5714757461    4.9420298559   -2.7010041850
H        0.5536494740    4.4060295633   -1.2180043977
H        4.9163341798    2.4957595124   -2.3464563037
H       -0.1826413881    2.2725074880   -0.5526728224
H        1.2571300860   -1.9131220291   -0.6327190518
H       -0.3554247210   -2.3811591905   -0.0375364372
H        0.8728862301   -1.7748036303    1.1039850961
H       -1.1357640399    1.1876172099    0.7701282175
H       -1.1642431694   -0.3896317451    1.5635652161
H       -2.0987190710   -0.1346474440    0.0747998191
22   
torsion grid (135,)
C        2.5655396606    4.8757995030   -1.8981389823
C        3.7566026634    4.3124670433   -2.3632315907
C        1.5940283550    4.0351337519   -1.3594931516
C        3.9048410800    2.9232136039   -2.2601903858
C        1.8345163215    2.6466732328   -1.2974029620
C        0.7968228109    1.7824570089   -0.7216447351
C        0.5084664722   -1.6804944385    0.1201753735
C       -1.2286717938    0.0544256132    0.4436339185
N        2.9851578365    2.1030926929   -1.7479619550
N        0.9714955588    0.5043689722   -0.6266337059
N        0.0428351623   -0.3317854611   -0.1508200364
H        2.3970049904    5.9485442400   -1.9541260165
H        4.5468320283    4.9214116411   -2.7928105479
H        0.6555700456    4.4400074911   -0.9881304258
H        4.8200632452    2.4471819075   -2.6129777913
H       -0.1094159404    2.2974763452   -0.3917113103
H        1.3779287958   -1.8749207940   -0.5078066694
H       -0.2809487757   -2.4038532794   -0.1146878142
H        0.7939851065   -1.8103431295    1.1758525926
H       -1.4793399708    1.0838839578    0.1924657562
H       -1.2117977973   -0.0393766574    1.5392117916
H       -2.0281392988   -0.5770154568    0.0395232975
22   
torsion grid (150,)
C        2.5773873540    4.8830276723   -1.8286314304
C        3.7458655736    4.3195354172   -2.3474104774
C        1.6092235773    4.0396867504   -1.2877538804
C        3.8750717582    2.9255994334   -2.2932679437
C        1.8308920236    2.6470457938   -1.2773061743
C        0.7994210528    1.7784856903   -0.6959007239
C        0.4904159114   -1.6567229940    0.1908972438
C       -1.2438623926    0.1084952806    0.4123552080
N        2.9586427555    2.1021369957   -1.7805447508
N        0.9633810832    0.4964894209   -0.6319690883
N        0.0190543706   -0.3276993853   -0.1593660071
H        2.4233117745    5.9592297089   -1.8452704390
H        4.5318527569    4.9309188096   -2.7813683062
H        0.6885565721    4.4455752961   -0.8752678596
H        4.7717103492    2.4481320191   -2.6890568831
H       -0.0921485927    2.2919983855   -0.3269372659
H        1.3436550825   -1.8943905491   -0.4450331025
H       -0.3054864625   -2.3907982635    0.0247477896
H        0.8058380680   -1.7174166860    1.2443171910
H       -1.5915815220    1.0145211803   -0.0878285073
H       -1.1786583728    0.3087295972    1.4929917071
H       -2.0002399673   -0.6592342829    0.2232939707
22   
torsion grid (165,)
C        2.5661892967    4.8804591114   -1.7931981944
C        3.7368812489    4.3215650036   -2.3114661827
C        1.5955025107    4.0296850316   -1.2682820558
C        3.8674841948    2.9270823009   -2.2739360435
C        1.8175530987    2.6375055343   -1.2736237129
C        0.7822571141    1.7615864324   -0.7083543853
C        0.4659972970   -1.6474283579    0.2086397371
C       -1.2327094685    0.1549326680    0.4256070512
N        2.9479366438    2.0980604171   -1.7761481700
N        0.9437577565    0.4788799878   -0.6618469964
N       -0.0194560008   -0.3388742838   -0.2037712458
H        2.4123674110    5.9568066023   -1.7980260346
H        4.5253518957    4.9380516494   -2.7334903679
H        0.6721431701    4.4300053589   -0.8564712136
H        4.7666291805    2.4547889658   -2.6701632455
H       -0.1119305091    2.2694606848   -0.3384377304
H        1.3020926784   -1.9181553938   -0.4368463580
H       -0.3319581386   -2.3893802331    0.1032074514
H        0.8119928906   -1.6492126984    1.2543073261
H       -1.6762040679    0.9482819658   -0.1826909779
H       -1.0592555864    0.5469847485    1.4410112427
H       -1.9609561424   -0.6586485461    0.4648602614
22   
torsion grid (180,)
C        2.5541929913    4.8693392310   -1.7877492154
C        3.7405982755    4.3177402362   -2.2769209414
C        1.5770753016    4.0124547649   -1.2847936951
C        3.8803841516    2.9242261098   -2.2338489612
C        1.8091357663    2.6221900663   -1.2829635805
C        0.7661144099    1.7393036485   -0.7418978851
C        0.4339917702   -1.6615249518    0.1660234737
C       -1.2130219400    0.1792802641    0.4389225537
N        2.9550771876    2.0897440352   -1.7563909692
N        0.9275228748    0.4566956433   -0.7011157233
N       -0.0528123939   -0.3542111703   -0.2579912212
H        2.3931209394    5.9445663905   -1.7980613103
H        4.5347361338    4.9391428588   -2.6807257179
H        0.6411814949    4.4067018279   -0.8961136016
H        4.7922291874    2.4577637987   -2.6072191168
H       -0.1387587463    2.2415420890   -0.3908247306
H        1.2448785981   -1.9534751695   -0.5018720338
H       -0.3741364694   -2.3961794285    0.0995233121
H        0.8159473931   -1.6467674172    1.1988989519
H       -1.7734821495    0.8584044884   -0.2118906954
H       -0.9332941547    0.7243207907    1.3557151139
H       -1.8726707983   -0.6487931486    0.7044679896
