28   
torsion grid (-165,)
C        3.4055094189   -1.6760943232   -1.5243687872
C        3.0677068854   -4.2430399765   -0.8844300474
C        2.3646685876   -2.0706711245   -0.6542527806
C        4.2402244001   -2.6650738870   -2.0214412728
C        1.4682834164   -1.1248456367   -0.0479626250
C        6.6118955265   -0.6839955236   -1.8611519923
C        0.0381165818   -2.4691146784    2.0174350344
C       -0.9755719038   -0.1403751249    0.6611076445
C        5.3652768678   -2.3528426119   -2.9904158433
N        2.2130846561   -3.3839042555   -0.3286046220
N        4.0837869870   -3.9707240381   -1.7096409672
O       -0.9071155253   -2.5671983737   -0.4557142197
O        5.7874441169   -0.9977776957   -2.9776956466
S       -0.0636957678   -1.6799908589    0.3918126556
H        3.5492333569   -0.6384334961   -1.8084890501
H        2.9250620404   -5.2926016494   -0.6274752399
H        1.4297700811   -0.1123515489   -0.4391960442
H        6.8879561014    0.3687250020   -1.9566245586
H        7.5248512950   -1.2974614833   -1.8610270198
H        6.0866210131   -0.8338189056   -0.9080348739
H       -0.9612258487   -2.8073224836    2.2984211662
H        0.7100224631   -3.3150228093    1.8638860670
H        0.4590244085   -1.7637374177    2.7348066211
H       -1.9283390633   -0.4102757678    1.1186130957
H       -0.4088420387    0.5456356481    1.2913313743
H       -1.1474315620    0.2796756055   -0.3305772316
H        6.2007907825   -3.0366564156   -2.7858468828
H        5.0166767264   -2.5553266379   -4.0089856788
28   
torsion grid (-150,)
C        3.4385999998   -1.6776241206   -1.4452907675
C        3.0930594082   -4.2792492607   -0.9738713260
C        2.4382035472   -2.1226674750   -0.5529111811
C        4.2330370269   -2.6380807009   -2.0531715277
C        1.5846433131   -1.2124889052    0.1634695013
C        6.6407175775   -0.7078759313   -1.8587328461
C       -0.0678570230   -2.3680275408    2.2013711704
C       -0.9321933015   -0.1852521525    0.5222570941
C        5.3148286829   -2.2684102798   -3.0508805633
N        2.2860779280   -3.4524918160   -0.3093241327
N        4.0705347507   -3.9602518213   -1.8299508943
O       -0.7272203838   -2.7058247876   -0.3339164107
O        5.7612138910   -0.9240882852   -2.9562534863
S        0.0131121608   -1.7297265623    0.5080878474
H        3.5823180005   -0.6240973274   -1.6637660754
H        2.9475447039   -5.3429162075   -0.7858042840
H        1.5879771458   -0.1677951045   -0.1344911173
H        6.9313272392    0.3448969426   -1.8876629485
H        7.5414774891   -1.3329518820   -1.9468993816
H        6.1563601094   -0.9218299724   -0.8962729100
H       -1.0941607581   -2.6737276285    2.4152290662
H        0.6016949997   -3.2303111995    2.1950512476
H        0.2949844048   -1.6061908813    2.8925941533
H       -1.9205027847   -0.4140379746    0.9240953824
H       -0.4307450394    0.5806147870    1.1159496808
H       -1.0107961104    0.1102172378   -0.5242658109
H        6.1471247805   -2.9773212728   -2.9403002831
H        4.9143499769   -2.3869052200   -4.0635745652
28   
torsion grid (-135,)
C        3.4303852639   -1.7299167901   -1.4177160210
C        3.0831609083   -4.3614124876   -1.2032150298
C        2.4447905284   -2.2606442449   -0.5528391106
C        4.2110545523   -2.6244296190   -2.1332724902
C        1.6245239248   -1.3970975079    0.2554911726
C        6.6336984297   -0.7363514446   -1.7824410393
C       -0.1708986288   -2.1338178412    2.3900067276
C       -0.9184307764   -0.2964314640    0.3411698346
C        5.2774817509   -2.1579231450   -3.1068900630
N        2.2941423499   -3.6056579980   -0.4395928521
N        4.0462647639   -3.9617436042   -2.0424266267
O       -0.6497922744   -2.9351263681   -0.0852210520
O        5.7346179258   -0.8325262986   -2.8811063956
S        0.0325237468   -1.8197124061    0.6118408337
H        3.5737807864   -0.6600102240   -1.5333070849
H        2.9363733039   -5.4383311271   -1.1201310458
H        1.7146084339   -0.3247634787    0.1093808007
H        6.9310735880    0.3122396906   -1.7064140689
H        7.5286779574   -1.3532611924   -1.9507982775
H        6.1640539761   -1.0473567619   -0.8393690496
H       -1.2232182895   -2.3385168228    2.6002575854
H        0.4430087786   -3.0143512941    2.5885938475
H        0.2041243400   -1.2768410089    2.9521874368
H       -1.9233565581   -0.4559284851    0.7368737206
H       -0.4368624313    0.5561429720    0.8236975203
H       -0.9472097838   -0.1709394227   -0.7415565434
H        6.1071779006   -2.8780963920   -3.0853526040
H        4.8595512002   -2.1680558941   -4.1193928970
28   
torsion grid (-120,)
C        3.4002458901   -1.5821124105   -1.6568713833
C        2.6117100922   -4.0390253160   -2.3111267973
C        2.1699548562   -2.0964950039   -1.1827545396
C        4.1741237149   -2.3997936604   -2.4655299026
C        1.3022465535   -1.2916555948   -0.3645341713
C        6.7240037979   -1.2648075453   -1.1420296395
C        0.5240619900   -0.9289239899    2.2715937038
C       -1.4439772520   -1.6147759652    0.4496136648
C        5.4923419434   -1.9300778593   -3.0529989756
N        1.7739368205   -3.3446743262   -1.5415638032
N        3.7958411935   -3.6519860521   -2.8010670889
O        0.3990671650   -3.4134591414    1.1694175148
O        6.0939873020   -0.8529005404   -2.3492427245
S        0.3052634907   -1.9845634136    0.8018906352
H        3.7407758091   -0.5841872680   -1.3981648166
H        2.2883787507   -5.0450946150   -2.5785473964
H        1.6562960647   -0.3178977229   -0.0403618326
H        7.1622035909   -0.3710544190   -0.6914714714
H        7.5216914700   -1.9950003707   -1.3428867123
H        6.0088061040   -1.7109262123   -0.4373729179
H       -0.2349526036   -1.2116004605    3.0034494272
H        1.5236765420   -1.1419294171    2.6525632422
H        0.4289459275    0.1223117044    1.9943328216
H       -2.0596507395   -1.9646121933    1.2816632087
H       -1.5450154603   -0.5406787882    0.2869396093
H       -1.6869440585   -2.1578930657   -0.4656818166
H        6.1699269425   -2.7921780056   -3.1225147502
H        5.3148274947   -1.5667862566   -4.0711355344
28   
torsion grid (-105,)
C        3.4096550542   -1.4932525361   -1.6198917348
C        2.4134898184   -3.8533270001   -2.3589321696
C        2.1624370430   -1.9369613284   -1.1270743875
C        4.0925633891   -2.3297165399   -2.4904095914
C        1.3575788886   -1.1360016372   -0.2426484823
C        6.7586066965   -1.4389135743   -1.2039251492
C        0.3297499676   -0.7452829155    2.2614482522
C       -1.3464278560   -1.8911396169    0.3725193947
C        5.4261373491   -1.9361329062   -3.0984343600
N        1.6595500947   -3.1354845025   -1.5270555398
N        3.6075867635   -3.5313797661   -2.8703353267
O        0.6751528634   -3.2993531746    1.4109907354
O        6.1241993560   -0.9344791736   -2.3736157944
S        0.3943598688   -1.9385520024    0.8921186378
H        3.8324518042   -0.5366668914   -1.3290607720
H        2.0058897937   -4.8178935971   -2.6611704587
H        1.8114073566   -0.2543055439    0.2007114156
H        7.2711753833   -0.5969371555   -0.7327646074
H        7.4968773272   -2.2132070130   -1.4591035266
H        6.0347133526   -1.8634341794   -0.4949444074
H       -0.4331822652   -1.0936917143    2.9592719203
H        1.3111522572   -0.7632850503    2.7370944502
H        0.0939143433    0.2502585607    1.8836066443
H       -1.9615129145   -2.3377483257    1.1569346747
H       -1.6159064476   -0.8540479348    0.1714497308
H       -1.4031855930   -2.4817862368   -0.5437728415
H        6.0350644252   -2.8426788669   -3.2193187433
H        5.2488368679   -1.5224739267   -4.0972502751
28   
torsion grid (-90,)
C        3.4600272298   -1.4567628798   -1.5521568721
C        2.3325109944   -3.7469766482   -2.3262640988
C        2.2204579764   -1.8677115317   -1.0144324931
C        4.0666147395   -2.2883762066   -2.4815714514
C        1.4827995115   -1.0772278531   -0.0667105543
C        6.8228915872   -1.5333632817   -1.2953897537
C        0.1375080496   -0.6633872204    2.2623202183
C       -1.1851584802   -2.0453057170    0.2233373679
C        5.3867638956   -1.9289686101   -3.1378869597
N        1.6517788758   -3.0326607343   -1.4303235913
N        3.5136552809   -3.4544011397   -2.8814518443
O        0.7659392232   -3.2144910150    1.6281924834
O        6.1541663129   -0.9743880369   -2.4206424006
S        0.4549205424   -1.9112191320    0.9847864470
H        3.9336446433   -0.5277528125   -1.2508802248
H        1.8710305348   -4.6823186833   -2.6425116447
H        1.9894446314   -0.2617515783    0.4417522031
H        7.3878524199   -0.7235603999   -0.8278849928
H        7.5189947751   -2.3265046258   -1.6051889999
H        6.1173984540   -1.9503495216   -0.5638675186
H       -0.6652143586   -1.0487897085    2.8924161222
H        1.0543817327   -0.5703554406    2.8460347153
H       -0.1363808896    0.2870150862    1.8040153928
H       -1.8587708645   -2.5258403204    0.9360831055
H       -1.5191588946   -1.0469369826   -0.0592162711
H       -1.0457493261   -2.6696764877   -0.6605368673
H        5.9537541506   -2.8544389281   -3.3093251977
H        5.1813523952   -1.4826395719   -4.1170981554
28   
torsion grid (-75,)
C        3.4543417085   -1.4586407402   -1.4593625750
C        2.2385815790   -3.6773760702   -2.3004827277
C        2.2345112832   -1.8751111851   -0.8779903012
C        3.9936750166   -2.2464900332   -2.4635471561
C        1.5820673825   -1.1161527011    0.1501896388
C        6.8221934757   -1.5963753821   -1.3828594356
C       -0.0204032729   -0.5779469918    2.2793117906
C       -1.0777250057   -2.1247492820    0.1725915902
C        5.2871633418   -1.8776566057   -3.1658413021
N        1.6237931743   -3.0070236765   -1.3251112792
N        3.3935422014   -3.3763093227   -2.9013657699
O        0.6947326458   -3.1456808309    1.8867069558
O        6.1062031699   -0.9719135562   -2.4429545025
S        0.4472873670   -1.8918629335    1.1233733005
H        3.9620365748   -0.5563144503   -1.1336108629
H        1.7396092178   -4.5833984033   -2.6443092403
H        2.1242459913   -0.3413398538    0.6828161218
H        7.4226651550   -0.8189455246   -0.9048542846
H        7.4892104630   -2.3816242422   -1.7676167941
H        6.1481928565   -2.0407163303   -0.6379512359
H       -0.8266931295   -0.9750171024    2.8975116777
H        0.8534378268   -0.3759792605    2.9006054056
H       -0.3307373647    0.3144698532    1.7361998699
H       -1.8184229124   -2.5768104763    0.8353066788
H       -1.4017383761   -1.1595182046   -0.2171538355
H       -0.8083769016   -2.8021806500   -0.6379078333
H        5.8273731207   -2.8032790299   -3.4085418326
H        5.0431221006   -1.3820028405   -4.1119120200
28   
torsion grid (-60,)
C        3.4760767663   -1.4931560632   -1.3643056762
C        2.2083340490   -3.6319375840   -2.3205148998
C        2.2702070818   -1.9385490839   -0.7698156293
C        3.9715882231   -2.2088911808   -2.4405875433
C        1.6861298090   -1.2359292546    0.3328062026
C        6.8439931670   -1.6405902688   -1.4179477985
C       -0.1232034923   -0.4926829221    2.2243119257
C       -0.9828074361   -2.2050098874    0.1306887063
C        5.2446157294   -1.8018457433   -3.1587959533
N        1.6369337228   -3.0334433747   -1.2732555114
N        3.3426712812   -3.2978641449   -2.9403978493
O        0.5588097167   -3.0873612539    2.1126460620
O        6.0909325378   -0.9465251176   -2.4068096818
S        0.4276690107   -1.8976411725    1.2245474190
H        4.0039045901   -0.6202617774   -0.9935812001
H        1.6871945316   -4.5062525026   -2.7108278574
H        2.2487578878   -0.4844932297    0.8753717406
H        7.4567911442   -0.8955487918   -0.9052911817
H        7.5010985442   -2.3919816528   -1.8796316805
H        6.1966553998   -2.1410458049   -0.6851280129
H       -0.9393182120   -0.8532179402    2.8521391172
H        0.7201509517   -0.1991182411    2.8513952106
H       -0.4365268277    0.3306876854    1.5827798403
H       -1.8073927268   -2.5467939059    0.7591875116
H       -1.2250842666   -1.2901013276   -0.4110611726
H       -0.6501125414   -2.9841539760   -0.5537274642
H        5.7714249361   -2.7127865140   -3.4754554766
H        4.9742090550   -1.2479414237   -4.0645284001
28   
torsion grid (-45,)
C        3.4522118702   -1.5434442863   -1.2733586110
C        2.0871783070   -3.5605277010   -2.3485397202
C        2.2552868640   -2.0037183255   -0.6677638465
C        3.8852751634   -2.1797522073   -2.4226548994
C        1.7487079843   -1.3689837926    0.5089436829
C        6.8084470112   -1.7548278647   -1.4721627450
C       -0.1884978075   -0.4323798951    2.1940494155
C       -0.9148377013   -2.3579862149    0.2290965987
C        5.1413231921   -1.7486444335   -3.1563522144
N        1.5744273492   -3.0387911006   -1.2313309078
N        3.2048374494   -3.2062006135   -2.9856396047
O        0.4915001569   -3.0078924041    2.3916914485
O        6.0361635428   -0.9717858019   -2.3761511302
S        0.4224439638   -1.9240267754    1.3692826019
H        4.0185522751   -0.7172622362   -0.8554826986
H        1.5256863239   -4.3856056420   -2.7875327031
H        2.3474498250   -0.6527987333    1.0601898826
H        7.4617133476   -1.0646552664   -0.9333604847
H        7.4254744744   -2.4865176964   -2.0138688960
H        6.1772632198   -2.2912523362   -0.7508400996
H       -1.0009535300   -0.7393351814    2.8547133453
H        0.6387340925   -0.0365672554    2.7855118428
H       -0.5155532450    0.2974715368    1.4534101728
H       -1.8201269931   -2.4308890329    0.8357326359
H       -0.9975056252   -1.6020595220   -0.5518502721
H       -0.6407973334   -3.3183464128   -0.2001934638
H        5.6328979342   -2.6448240877   -3.5600205841
H        4.8521288011   -1.1224484666   -4.0075497009
28   
torsion grid (-30,)
C        3.4785883484   -1.5435283850   -1.2379846256
C        2.0397825789   -3.4205968174   -2.4560350331
C        2.2680038893   -2.0078788467   -0.6589139119
C        3.8839479422   -2.1020221595   -2.4356703133
C        1.8102280524   -1.4422931655    0.5712515744
C        6.8246482810   -1.8401241924   -1.4753360085
C       -0.2552160848   -0.3476271884    2.0437170248
C       -0.8162731249   -2.5300145197    0.3070479875
C        5.1506516898   -1.6585828994   -3.1431005596
N        1.5499006994   -2.9715026511   -1.2970697195
N        3.1651763257   -3.0576562424   -3.0726818934
O        0.5190167178   -2.8221369004    2.6040348159
O        6.0726722447   -0.9693897956   -2.3138883661
S        0.4499898705   -1.9021968807    1.4317751353
H        4.0752552712   -0.7718846231   -0.7621447683
H        1.4466923119   -4.1884268182   -2.9537469329
H        2.4433948410   -0.7665693181    1.1362807601
H        7.5018618840   -1.2118110913   -0.8922533732
H        7.4158106305   -2.5486626461   -2.0737172160
H        6.1806992828   -2.4083259611   -0.7905842372
H       -1.0919347753   -0.5959149196    2.6993798751
H        0.5318844937    0.1456714731    2.6167647805
H       -0.5606123284    0.2745941489    1.2021200465
H       -1.7401179289   -2.5423443406    0.8899792174
H       -0.8870356197   -1.8985448061   -0.5777262817
H       -0.5079126417   -3.5329514627    0.0243452849
H        5.6118812599   -2.5381910800   -3.6136299263
H        4.8787261587   -0.9635474333   -3.9451396085
28   
torsion grid (-15,)
C        3.3968766494   -1.4931406701   -1.2079817511
C        1.8192099179   -3.1501469581   -2.5632203709
C        2.1454147617   -1.8942011842   -0.6670423095
C        3.7660402235   -1.9961878739   -2.4407208695
C        1.7409865488   -1.3765488834    0.6028224189
C        6.7091597848   -2.0459815607   -1.4529082156
C       -0.4955313374   -0.2435795976    1.8814126780
C       -0.7941022057   -2.6966965518    0.5145103121
C        5.0716506601   -1.6099669425   -3.1098317812
N        1.3539692398   -2.7415329830   -1.3790603774
N        2.9771042539   -2.8418942677   -3.1474600492
O        0.5735463512   -2.4576623720    2.8311021808
O        6.0390618646   -1.0594439238   -2.2303825233
S        0.3978323581   -1.7843235462    1.5131686054
H        4.0515941772   -0.8110939558   -0.6751651173
H        1.1676764045   -3.8262568718   -3.1179239835
H        2.4270742901   -0.7666688881    1.1822894762
H        7.4301086896   -1.5182171904   -0.8243953260
H        7.2457528147   -2.7570692617   -2.0979150353
H        6.0144063654   -2.6057064040   -0.8122546684
H       -1.3407109379   -0.4795341749    2.5317221323
H        0.2132180194    0.3989562328    2.4071372590
H       -0.8106767769    0.2239965824    0.9477756421
H       -1.6853272868   -2.7661321758    1.1426743467
H       -0.9755358276   -2.1859545898   -0.4291488827
H       -0.3661475148   -3.6778181553    0.3224390651
H        5.4637052598   -2.4891632421   -3.6401444143
H        4.8651765779   -0.8400014735   -3.8613791120
28   
torsion grid (0,)
C        3.4703392539   -1.4323296145   -1.1870131009
C        1.7429004647   -2.8141747591   -2.6640349572
C        2.1768207502   -1.7336465194   -0.6824847401
C        3.7986734548   -1.8832182050   -2.4512199486
C        1.8071379320   -1.2632971928    0.6155349058
C        6.7147640415   -2.2908513091   -1.4566255795
C       -0.7004768195   -0.3548486019    1.6635129919
C       -0.5010337760   -2.9746817937    0.7159447271
C        5.1442321625   -1.5885573371   -3.0868830429
N        1.3055492089   -2.4335216124   -1.4599907417
N        2.9346267079   -2.5918120889   -3.2184756401
O        0.7860217964   -2.1031042510    2.9604523304
O        6.1511615806   -1.1947613104   -2.1688488220
S        0.4980103265   -1.7238992434    1.5507799429
H        4.1877025005   -0.8661535367   -0.6019154823
H        1.0313147075   -3.3783714050   -3.2679613249
H        2.5245505502   -0.7276613510    1.2288280713
H        7.4762442087   -1.8782527167   -0.7909078750
H        7.1873423470   -3.0061583010   -2.1455799903
H        5.9625700755   -2.8220085296   -0.8577487504
H       -1.5478073553   -0.6683134782    2.2782669593
H       -0.1681494922    0.4683450745    2.1434542863
H       -1.0082938031   -0.0711445851    0.6556667021
H       -1.3167861950   -3.1818936604    1.4126108205
H       -0.8374481370   -2.6058673270   -0.2499651744
H        0.1261057987   -3.8538111872    0.5743075516
H        5.4530740120   -2.4667351583   -3.6711356073
H        5.0234066221   -0.7554716161   -3.7881013129
28   
torsion grid (15,)
C        3.4653692462   -1.3103888083   -1.1068943659
C        1.5750743448   -2.4203313186   -2.6188116208
C        2.1532621302   -1.4924241044   -0.5950760457
C        3.7249115082   -1.7324034414   -2.3969770127
C        1.8265148833   -1.0490239872    0.7207528466
C        6.5946230840   -2.5004625641   -1.4786884575
C       -0.8753022257   -0.3662867589    1.4137733159
C       -0.2843211157   -3.0342997014    0.9471980467
C        5.0857425383   -1.5568587259   -3.0441286574
N        1.1968439781   -2.0492266796   -1.3918139185
N        2.7780860128   -2.3043218587   -3.1810795838
O        0.7480642379   -1.6617416579    3.0793668773
O        6.1427807336   -1.3179481860   -2.1292217168
S        0.4977911974   -1.5435652671    1.6201862322
H        4.2476061673   -0.8557759643   -0.5077815003
H        0.7979361973   -2.8708433093   -3.2372285985
H        2.5788476302   -0.6325306333    1.3812658334
H        7.4064442370   -2.2041488002   -0.8105693240
H        6.9760411540   -3.2296633447   -2.2084086984
H        5.7983148222   -2.9748612714   -0.8891052284
H       -1.7527022070   -0.7278981385    1.9557791987
H       -0.5222007783    0.5761882828    1.8354155128
H       -1.0730458695   -0.2563051817    0.3456056985
H       -1.1051080975   -3.2601298685    1.6314415027
H       -0.6050909330   -2.8423036081   -0.0739800280
H        0.4655410894   -3.8261314682    0.9644472667
H        5.2882680314   -2.4351253011   -3.6731157008
H        5.0466034436   -0.6838233519   -3.7048696421
28   
torsion grid (30,)
C        3.5039896129   -1.2724883155   -1.0397966930
C        1.5117629854   -2.1725361532   -2.5663180971
C        2.1932873895   -1.3948873867   -0.5087163204
C        3.7080393126   -1.6407219810   -2.3559792132
C        1.8955663890   -1.0009969913    0.8271669958
C        6.5388511348   -2.6459065353   -1.5505393320
C       -0.8940315829   -0.5019548763    1.0762963264
C       -0.0897394194   -3.1501430519    1.1046849406
C        5.0638002690   -1.5216612041   -3.0260054373
N        1.1843886050   -1.8484279096   -1.3113653432
N        2.7088379343   -2.1040707641   -3.1478301225
O        0.6111083025   -1.4410482663    3.1087181370
O        6.1534198895   -1.4027939560   -2.1261116124
S        0.5054622633   -1.5123114572    1.6308700688
H        4.3255463311   -0.9004019279   -0.4363776747
H        0.6945648793   -2.5368521464   -3.1898922008
H        2.6669930728   -0.7462927609    1.5449665506
H        7.3822289518   -2.4403126660   -0.8874616035
H        6.8556123858   -3.3577169281   -2.3268774937
H        5.7249639188   -3.0986915312   -0.9678521035
H       -1.8171084182   -0.8885468247    1.5147826285
H       -0.6872131321    0.5095185704    1.4287990848
H       -0.9116557375   -0.5381855516   -0.0148226647
H       -0.9966914151   -3.3470326612    1.6801311915
H       -0.2588216570   -3.1258736802    0.0298695142
H        0.6933134284   -3.8653007610    1.3624826763
H        5.1931744289   -2.3764924317   -3.7046338136
H        5.0696455153   -0.6139077432   -3.6393700926
28   
torsion grid (45,)
C        3.5295708015   -1.3115980014   -0.9742846810
C        1.4937523020   -2.1089395422   -2.5010448703
C        2.2308839282   -1.4573058366   -0.4178316735
C        3.6981795396   -1.6038458513   -2.3136218932
C        1.9706846622   -1.1624424948    0.9474350579
C        6.5438643041   -2.6621113374   -1.6355115723
C       -0.8137303024   -0.5166742328    0.9403165865
C       -0.0966060803   -3.1909527407    1.2742083479
C        5.0375454599   -1.4539306749   -3.0097076252
N        1.1999480856   -1.8632172509   -1.2198789061
N        2.6758318452   -2.0128241914   -3.1072927474
O        0.5138586157   -1.3336239274    3.1515695133
O        6.1496334584   -1.3880933837   -2.1321725508
S        0.5000846336   -1.5221824110    1.6805720645
H        4.3677191386   -0.9771884028   -0.3716309706
H        0.6585898576   -2.4309737178   -3.1241052597
H        2.7306275481   -0.9207810579    1.6798275849
H        7.4037526320   -2.4955883038   -0.9827297282
H        6.8391704051   -3.3307467699   -2.4573600823
H        5.7424448572   -3.1442706524   -1.0592147855
H       -1.7726596171   -0.8273685794    1.3611823504
H       -0.5832989545    0.5142858280    1.2124589838
H       -0.7692738933   -0.6605177753   -0.1404986550
H       -1.0911185041   -3.3015965350    1.7116581043
H       -0.1003392620   -3.2927167101    0.1891834034
H        0.6090617598   -3.8819535524    1.7382011951
H        5.1455474427   -2.2715517971   -3.7362892923
H        5.0330810183   -0.5146901769   -3.5736831295
28   
torsion grid (60,)
C        3.5336695408   -1.3673149895   -0.9360499116
C        1.4974130768   -2.1286091243   -2.4812157837
C        2.2448348672   -1.5708452650   -0.3743091685
C        3.6926019799   -1.5854171415   -2.2905114034
C        1.9987650554   -1.3875742895    1.0117915481
C        6.5657157940   -2.6203830983   -1.7046377464
C       -0.7512248467   -0.4975036469    0.8001069641
C       -0.2098091029   -3.1886452695    1.3906908589
C        5.0196331572   -1.3683434376   -2.9925561779
N        1.2141512873   -1.9608219806   -1.1851628192
N        2.6698291164   -1.9744402593   -3.0939750001
O        0.4196921832   -1.2173462026    3.1253565629
O        6.1413224052   -1.3288204489   -2.1258291104
S        0.4608273531   -1.5284346019    1.6753664158
H        4.3713234260   -1.0457344421   -0.3257452987
H        0.6619366285   -2.4351095108   -3.1116707762
H        2.7238703424   -1.0366228739    1.7344507678
H        7.4302585638   -2.4730916553   -1.0533904626
H        6.8635690986   -3.2367299671   -2.5655160118
H        5.7807331296   -3.1490399381   -1.1469538336
H       -1.7387077704   -0.7090758865    1.2159764511
H       -0.4569155426    0.5333125045    1.0029841169
H       -0.6875424981   -0.7299003445   -0.2632540813
H       -1.2400553332   -3.2102809895    1.7528834936
H       -0.1394427978   -3.4000063716    0.3229570046
H        0.4224647602   -3.8601700430    1.9732675434
H        5.1345715949   -2.1414078194   -3.7653714495
H        4.9892797860   -0.3991629398   -3.5025354159
28   
torsion grid (75,)
C        3.5650555334   -1.4124314135   -0.9273178804
C        1.4989608690   -2.0980091165   -2.4682081963
C        2.2909549927   -1.6557384673   -0.3509102064
C        3.6957355160   -1.5544283324   -2.2955975159
C        2.0779813135   -1.5830529050    1.0539685016
C        6.5826837740   -2.6040399757   -1.8246853401
C       -0.6251320907   -0.4765749083    0.7462875050
C       -0.2497480211   -3.1357133408    1.6112911764
C        5.0066251024   -1.2911388269   -3.0119712859
N        1.2454243353   -2.0097442191   -1.1585894979
N        2.6576653961   -1.9030901252   -3.0965607578
O        0.5187937438   -1.0534242186    3.1220523284
O        6.1458784802   -1.2934326940   -2.1677028825
S        0.5271036354   -1.5039347766    1.7074291887
H        4.4138868625   -1.1188038537   -0.3183666340
H        0.6513594376   -2.3727720974   -3.0970697509
H        2.8070089563   -1.1819206575    1.7480010030
H        7.4603194954   -2.4880129562   -1.1847530472
H        6.8640149908   -3.1725472552   -2.7231833181
H        5.8111936097   -3.1645852960   -1.2795580574
H       -1.5976237741   -0.5402806895    1.2390439347
H       -0.2284178265    0.5383076170    0.8017676433
H       -0.6457152514   -0.8408993104   -0.2798759365
H       -1.2827268465   -3.0589621363    1.9585925979
H       -0.1875873588   -3.4781263203    0.5766270729
H        0.3411064431   -3.7696832424    2.2734293599
H        5.1084869125   -2.0197685472   -3.8285656197
H        4.9615485171   -0.2954632773   -3.4668030346
28   
torsion grid (90,)
C        3.5584923601   -1.4257766925   -0.9321430180
C        1.5054683207   -1.9404561013   -2.5523239270
C        2.2677110890   -1.6743881594   -0.3971974254
C        3.7122279676   -1.4730680246   -2.3050543443
C        2.0411516538   -1.6977766779    1.0091014895
C        6.5526713380   -2.6494707345   -1.8692684008
C       -0.6599666729   -0.6056650255    0.6377850988
C       -0.2974194960   -3.1101169788    1.8792297658
C        5.0437585171   -1.1958866414   -2.9769966527
N        1.2312219180   -1.9462374674   -1.2443881209
N        2.6807002614   -1.7320152617   -3.1462106181
O        0.5577337837   -0.8778642280    3.0436865213
O        6.1666563251   -1.3021280418   -2.1173884847
S        0.5152258603   -1.4995448438    1.6944201389
H        4.4025193251   -1.1974994817   -0.2894322970
H        0.6630660094   -2.1453063373   -3.2139901758
H        2.7976294355   -1.3948258081    1.7244028560
H        7.4225626376   -2.6133983670   -1.2095384459
H        6.8299894447   -3.1577703866   -2.8043814784
H        5.7531891468   -3.2222654833   -1.3800373354
H       -1.5684446341   -0.5006697045    1.2347581663
H       -0.2103254681    0.3683400540    0.4399050386
H       -0.8102944508   -1.1569552356   -0.2877412621
H       -1.3057760660   -2.9647343811    2.2746103442
H       -0.3078705610   -3.6065504070    0.9065609496
H        0.3241435448   -3.6597090959    2.5872999450
H        5.1381088301   -1.8602966233   -3.8474649639
H        5.0385142774   -0.1661984114   -3.3510864682
28   
torsion grid (105,)
C        3.5260269127   -1.4011852016   -0.9868316608
C        1.5220739888   -1.6248579750   -2.7243533061
C        2.1945917372   -1.5807334525   -0.5261447501
C        3.7431445834   -1.3602221525   -2.3511113149
C        1.9328718112   -1.6713418590    0.8744853051
C        6.4522065161   -2.8054378250   -1.8946670049
C       -0.8269999922   -0.8916962833    0.4967326794
C       -0.2261974095   -3.0805680280    2.1577609515
C        5.1240109713   -1.1450883785   -2.9413031948
N        1.1855868527   -1.7041784964   -1.4335883740
N        2.7365208099   -1.4705580548   -3.2522933924
O        0.4842947037   -0.6481813078    2.8714385872
O        6.1914512783   -1.4147911392   -2.0470106688
S        0.4515663721   -1.4735324095    1.6339295954
H        4.3538980943   -1.2893513578   -0.2941959636
H        0.6983271015   -1.7113828538   -3.4338424792
H        2.7294397813   -1.5519058359    1.6010179836
H        7.2899888524   -2.8964936664   -1.1995542020
H        6.7302585597   -3.2614324964   -2.8562018432
H        5.5856184924   -3.3434888523   -1.4868250970
H       -1.7096041219   -0.7490933985    1.1244372011
H       -0.4803470488    0.0571041139    0.0876014523
H       -0.9737476116   -1.6106535478   -0.3056508787
H       -1.1998070519   -2.9258827192    2.6293912674
H       -0.2928377229   -3.7392558168    1.2896748331
H        0.4906561620   -3.4731108214    2.8808699579
H        5.2064287295   -1.7439920417   -3.8592092010
H        5.2213402686   -0.0922418029   -3.2279697272
28   
torsion grid (120,)
C        3.5531523719   -1.3471260711   -0.9832916180
C        1.6121782898   -1.2292911264   -2.7971666262
C        2.1918390305   -1.4108080017   -0.5808981316
C        3.8302650080   -1.2335117785   -2.3322609967
C        1.8844210329   -1.5625825606    0.8076551699
C        6.3378455046   -3.0080157988   -1.9085383500
C       -0.9300459011   -1.2502911401    0.3692903616
C       -0.0065033525   -2.9871284011    2.3781070851
C        5.2503919787   -1.1275142921   -2.8551142334
N        1.2156912556   -1.3540182243   -1.5272910596
N        2.8563003596   -1.1721830333   -3.2727369966
O        0.2696495389   -0.3842121276    2.6465892685
O        6.2421444366   -1.5890592994   -1.9515558702
S        0.4042424780   -1.4066773113    1.5720708869
H        4.3599275969   -1.3781930011   -0.2580928793
H        0.8133576787   -1.1764229163   -3.5377364215
H        2.6848211606   -1.5512283737    1.5410446666
H        7.1314436048   -3.2509536786   -1.1981646320
H        6.6008354294   -3.4151503780   -2.8959201632
H        5.4001822024   -3.4727698408   -1.5741751271
H       -1.8414522756   -1.2435978010    0.9718074599
H       -0.7914671127   -0.3026005062   -0.1473784709
H       -0.8947424843   -2.0660079360   -0.3493560903
H       -0.9555572544   -2.8770874628    2.9079091870
H       -0.0449367315   -3.7754121035    1.6247910276
H        0.8005891042   -3.1795540071    3.0873900298
H        5.3065161108   -1.6543774727   -3.8179867104
H        5.4752346064   -0.0723540226   -3.0453027885
28   
torsion grid (135,)
C        3.5132456590   -1.3643035244   -0.9358449848
C        1.6109080417   -0.8957280179   -2.7350238706
C        2.1478860002   -1.3367983214   -0.5450414511
C        3.8144886757   -1.1506133313   -2.2676001366
C        1.8044295053   -1.5885622796    0.8199122614
C        6.1488214403   -3.1770403673   -2.0063734431
C       -0.9846020402   -1.8000306025    0.2570328717
C        0.1389735511   -2.9979002227    2.5387526981
C        5.2437618239   -1.1266390845   -2.7756045480
N        1.1918562315   -1.0914378922   -1.4814918649
N        2.8604441016   -0.9138366551   -3.2002833985
O       -0.1347132328   -0.3629652317    2.3707103626
O        6.1805036433   -1.7575992981   -1.9164077505
S        0.2815708867   -1.5071374675    1.5111649917
H        4.3054251435   -1.5418101362   -0.2155532571
H        0.8289245012   -0.6977688368   -3.4688283686
H        2.5823213679   -1.6592422184    1.5733997272
H        6.9091593622   -3.5555330573   -1.3192216719
H        6.3861504851   -3.5126124505   -3.0266342758
H        5.1695235801   -3.5848708345   -1.7203883120
H       -1.9013849975   -1.9935771405    0.8188762052
H       -1.0635940413   -0.8925042215   -0.3357746472
H       -0.6982720133   -2.6340844831   -0.3815995303
H       -0.8081936814   -2.9477776636    3.0798554786
H        0.2051360461   -3.8813828522    1.9034507176
H        0.9721476580   -2.9738056137    3.2435651811
H        5.2627851061   -1.5656434942   -3.7829311575
H        5.5647673676   -0.0832309218   -2.8665884490
28   
torsion grid (150,)
C        3.3011264523   -1.8056014209   -1.6724737874
C        3.0946280804   -4.2402444231   -0.6162167876
C        2.1862429040   -2.1448276945   -0.8635363208
C        4.2689959028   -2.7707639358   -1.8832365173
C        1.1783884357   -1.1707341559   -0.5818310344
C        6.4222425782   -0.5386902336   -1.8617667269
C        0.1076975342   -2.5757611412    1.6582898861
C       -0.6148246016    0.0817422764    1.0651245374
C        5.4792032207   -2.5172653927   -2.7622774725
N        2.0974959291   -3.3967983803   -0.3371957302
N        4.1845683408   -4.0134585453   -1.3517171198
O       -1.4922620435   -1.9785726348   -0.3987297660
O        5.7719455734   -1.1446339594   -2.9725642874
S       -0.2408886126   -1.4930562197    0.2498994564
H        3.3980634171   -0.8223935969   -2.1217881808
H        3.0042294920   -5.2388506084   -0.1879231259
H        1.1485342433   -0.2278748638   -1.1167672779
H        6.6095311133    0.5028391749   -2.1332469171
H        7.3811889099   -1.0334745908   -1.6485563821
H        5.8013128353   -0.5689005110   -0.9558576598
H       -0.7516504405   -2.4837749792    2.3263289341
H        0.1980954538   -3.5823527047    1.2585930472
H        1.0395497321   -2.2742474520    2.1357578463
H       -1.5867888811   -0.0247615342    1.5502333179
H        0.1748040198    0.3234488091    1.7763501657
H       -0.6727755330    0.8420461475    0.2842663264
H        6.3390406123   -3.0508555818   -2.3337239082
H        5.2876126120   -2.9454372478   -3.7522137376
28   
torsion grid (165,)
C        3.3480342195   -1.7891655223   -1.6149476325
C        3.0682667738   -4.2789228960   -0.7121292786
C        2.2529385174   -2.1326077392   -0.7842423903
C        4.2604771443   -2.7810994497   -1.9296587849
C        1.2937599004   -1.1457363489   -0.3892812036
C        6.5227919660   -0.6670920229   -1.8343443344
C        0.2299984252   -2.4953706973    1.8802795756
C       -0.7064386842    0.0354856857    1.0305382822
C        5.4462273454   -2.5227958413   -2.8401875792
N        2.1272032608   -3.4110876230   -0.3338644276
N        4.1370095760   -4.0512371351   -1.4789691183
O       -1.2917734584   -2.2294754193   -0.2895591802
O        5.8031839781   -1.1545134894   -2.9608105530
S       -0.1417830615   -1.5560797481    0.3770567659
H        3.4731114723   -0.7832087477   -2.0028618896
H        2.9478461289   -5.2989534376   -0.3467884605
H        1.2554604775   -0.1802570457   -0.8813080584
H        6.7564843947    0.3808090990   -2.0363934226
H        7.4603753894   -1.2248974526   -1.6942976964
H        5.9323893587   -0.7329384780   -0.9101574641
H       -0.7152780504   -2.6301689688    2.4096877694
H        0.6385881238   -3.4443115247    1.5372789347
H        0.9643139407   -1.9505562156    2.4743958788
H       -1.6696625026   -0.1427327936    1.5110823885
H        0.0281436051    0.4386193911    1.7272608787
H       -0.8392177463    0.7027428283    0.1773721418
H        6.2926458962   -3.1300842787   -2.4903500111
H        5.1925945349   -2.8636828525   -3.8498824582
28   
torsion grid (180,)
C        3.3832463278   -1.7262651955   -1.6188791977
C        3.0565630053   -4.2565869959   -0.8480162622
C        2.3042929368   -2.0881132826   -0.7784510098
C        4.2573393270   -2.7247911843   -2.0159799066
C        1.3727533014   -1.1149330949   -0.2865044893
C        6.5819143268   -0.6833705657   -1.8710548522
C        0.1418587063   -2.4857448280    1.8815881568
C       -0.8949980782   -0.0635557713    0.7897288859
C        5.4232853722   -2.4482826763   -2.9465827822
N        2.1562414850   -3.3849356005   -0.3907528391
N        4.1085255143   -4.0138609788   -1.6348570298
O       -1.1044980877   -2.4254984405   -0.4650982109
O        5.8168873216   -1.0858475919   -3.0012826855
S       -0.1155133749   -1.6247470563    0.3092948944
H        3.5250944941   -0.7039174122   -1.9546634063
H        2.9179571831   -5.2919967056   -0.5367631645
H        1.3293140598   -0.1260632878   -0.7309494307
H        6.8397796382    0.3676727942   -2.0205285614
H        7.5066778122   -1.2734797984   -1.7910018429
H        6.0163711632   -0.7860360754   -0.9348256065
H       -0.8393305291   -2.7678077600    2.2683147199
H        0.7349025465   -3.3633965533    1.6243410725
H        0.6863280231   -1.8323815786    2.5641631444
H       -1.8511662685   -0.3180949655    1.2488734072
H       -0.2537389014    0.4930235115    1.4731124547
H       -1.0669426663    0.4949649640   -0.1315380847
H        6.2611167423   -3.0979519937   -2.6575372820
H        5.1303112937   -2.7239293183   -3.9655027572
