
  -OEChem-05262117493D

 42 42  0     1  0  0  0  0  0999 V2000
    1.0610   -1.4391    0.4487 C   0  0  0  0  0  0  0  0  0  0  0  0
    3.2838    3.3261    0.8307 C   0  0  0  0  0  0  0  0  0  0  0  0
    1.9495    3.6426    0.5800 C   0  0  0  0  0  0  0  0  0  0  0  0
    3.5995    2.2472    1.6607 C   0  0  0  0  0  0  0  0  0  0  0  0
    0.9065    2.9066    1.1646 C   0  0  0  0  0  0  0  0  0  0  0  0
    2.5891    1.4836    2.2544 C   0  0  0  0  0  0  0  0  0  0  0  0
    1.2434    1.8412    2.0196 C   0  0  0  0  0  0  0  0  0  0  0  0
    1.8060   -2.5042    0.2689 C   0  0  0  0  0  0  0  0  0  0  0  0
    0.3186   -0.3758    0.6475 C   0  0  0  0  0  0  0  0  0  0  0  0
   -0.0546    1.1608    3.9980 C   0  0  0  0  0  0  0  0  0  0  0  0
   -0.5260    3.2560    0.8422 C   0  0  0  0  0  0  0  0  0  0  0  0
    2.9364    0.2961    3.1199 C   0  0  0  0  0  0  0  0  0  0  0  0
   -1.9077    0.1104    1.7136 C   0  0  0  0  0  0  0  0  0  0  0  0
    0.6515    5.0605    4.0357 C   0  0  0  0  0  0  0  0  0  0  0  0
    0.5948    2.2968    4.7839 C   0  0  0  0  0  0  0  0  0  0  0  0
   -0.4055   -0.0980    1.9471 C   0  0  2  0  0  0  0  0  0  0  0  0
    0.2096    1.0690    2.6549 N   0  0  0  0  0  0  0  0  0  0  0  0
   -0.7897    0.3716    4.5867 O   0  0  0  0  0  0  0  0  0  0  0  0
   -1.5882    3.6342    3.8973 O   0  0  0  0  0  0  0  0  0  0  0  0
   -0.6339    4.2193    6.1953 O   0  0  0  0  0  0  0  0  0  0  0  0
   -0.4361    3.8282    4.7922 S   0  0  0  0  0  0  0  0  0  0  0  0
    4.0774    3.9113    0.3734 H   0  0  0  0  0  0  0  0  0  0  0  0
    1.7041    4.4738   -0.0767 H   0  0  0  0  0  0  0  0  0  0  0  0
    4.6398    1.9872    1.8403 H   0  0  0  0  0  0  0  0  0  0  0  0
    1.3809   -3.4412   -0.0866 H   0  0  0  0  0  0  0  0  0  0  0  0
    2.8768   -2.4813    0.4650 H   0  0  0  0  0  0  0  0  0  0  0  0
    0.1726    0.3279   -0.1723 H   0  0  0  0  0  0  0  0  0  0  0  0
   -0.8890    2.6465    0.0060 H   0  0  0  0  0  0  0  0  0  0  0  0
   -1.1892    3.0962    1.6921 H   0  0  0  0  0  0  0  0  0  0  0  0
   -0.6062    4.3023    0.5341 H   0  0  0  0  0  0  0  0  0  0  0  0
    2.6704    0.4541    4.1711 H   0  0  0  0  0  0  0  0  0  0  0  0
    2.4041   -0.6006    2.7908 H   0  0  0  0  0  0  0  0  0  0  0  0
    4.0091    0.0914    3.0802 H   0  0  0  0  0  0  0  0  0  0  0  0
   -2.0920    0.9041    0.9865 H   0  0  0  0  0  0  0  0  0  0  0  0
   -2.3428   -0.8168    1.3276 H   0  0  0  0  0  0  0  0  0  0  0  0
   -2.4043    0.3671    2.6505 H   0  0  0  0  0  0  0  0  0  0  0  0
    0.0590    5.9751    3.9698 H   0  0  0  0  0  0  0  0  0  0  0  0
    1.5135    5.2135    4.6871 H   0  0  0  0  0  0  0  0  0  0  0  0
    0.9536    4.7227    3.0444 H   0  0  0  0  0  0  0  0  0  0  0  0
    1.5825    2.5870    4.4271 H   0  0  0  0  0  0  0  0  0  0  0  0
    0.6414    1.9943    5.8298 H   0  0  0  0  0  0  0  0  0  0  0  0
   -0.2786   -0.9549    2.6127 H   0  0  0  0  0  0  0  0  0  0  0  0
  1  8  2  0  0  0  0
  1  9  2  0  0  0  0
  2  3  1  0  0  0  0
  2  4  2  0  0  0  0
  2 22  1  0  0  0  0
  3  5  2  0  0  0  0
  3 23  1  0  0  0  0
  4  6  1  0  0  0  0
  4 24  1  0  0  0  0
  5  7  1  0  0  0  0
  5 11  1  0  0  0  0
  6  7  2  0  0  0  0
  6 12  1  0  0  0  0
  7 17  1  0  0  0  0
  8 25  1  0  0  0  0
  8 26  1  0  0  0  0
  9 16  1  0  0  0  0
  9 27  1  0  0  0  0
 10 15  1  0  0  0  0
 10 17  1  0  0  0  0
 10 18  2  0  0  0  0
 11 28  1  0  0  0  0
 11 29  1  0  0  0  0
 11 30  1  0  0  0  0
 12 31  1  0  0  0  0
 12 32  1  0  0  0  0
 12 33  1  0  0  0  0
 13 16  1  0  0  0  0
 13 34  1  0  0  0  0
 13 35  1  0  0  0  0
 13 36  1  0  0  0  0
 14 21  1  0  0  0  0
 14 37  1  0  0  0  0
 14 38  1  0  0  0  0
 14 39  1  0  0  0  0
 15 21  1  0  0  0  0
 15 40  1  0  0  0  0
 15 41  1  0  0  0  0
 16 17  1  0  0  0  0
 16 42  1  0  0  0  0
 19 21  2  0  0  0  0
 20 21  2  0  0  0  0
M  END
$$$$
