28   
torsion grid (-165,)
C       -2.3927834506    4.4410333054    0.4120685109
C       -2.7825653449    3.0972655881    0.3726741224
C       -1.2827519496    4.8146894481    1.1752329025
C       -2.0694316227    2.1364691424    1.0938040615
C       -0.5678842499    3.8491015502    1.8918754807
C       -0.9541217917    2.5034955615    1.8621598675
C        0.4404705934   -0.9318048769    2.2832049475
C        0.9537746306   -2.7809622797    3.3674908992
C        1.1230219676   -3.0311005803    1.8486143412
C       -1.0298703021    1.1245708332    3.9461564178
C       -0.2068124910    1.4734478493    2.6944856829
N        0.6673947904   -1.3445121110    3.4778692107
N        0.0573243169    0.3008064185    1.8526606634
O        0.5854173627   -1.8276555339    1.2414529931
H       -2.9475244506    5.1882940568   -0.1494872053
H       -3.6440635266    2.7985866417   -0.2194442661
H       -0.9691757925    5.8550446162    1.2080755569
H       -2.3773286559    1.0945379618    1.0625216564
H        0.2990831874    4.1445912916    2.4792801364
H        0.1261987426   -3.3666243374    3.7889882930
H        1.8582052472   -3.0381328619    3.9281677583
H        2.1716148068   -3.1232510788    1.5465696363
H        0.5576134192   -3.8828059944    1.4647775923
H       -1.9804756189    0.6643706761    3.6585615927
H       -0.4877708376    0.4342437003    4.5919758557
H       -1.2475504229    2.0483064401    4.4905799428
H        0.7458374918    1.9112892974    3.0233698897
H        0.1892220430    0.4641973143    0.8635487734
28   
torsion grid (-150,)
C       -1.0260999440    5.3073704825    1.1276041632
C       -2.0013612262    4.4340291754    0.6322417821
C       -0.0138801453    4.8124762119    1.9550929553
C       -1.9651031087    3.0776753076    0.9649153571
C        0.0216218662    3.4528945520    2.2825341671
C       -0.9529443870    2.5733770298    1.7954978119
C       -1.7150128110   -0.9410633370    0.9131578454
C       -2.7201515365   -2.8876907612    1.1554578589
C       -2.3756140799   -2.6889909127   -0.3405581391
C       -2.0066993988    0.8669891034    3.2884755479
C       -0.9391959193    1.1089176692    2.2092413815
N       -2.0796374845   -1.7553534705    1.8371042457
N       -1.1280276995    0.2809651952    1.0118764418
O       -1.9119429755   -1.3156686311   -0.4037693179
H       -1.0535865053    6.3623991701    0.8675653769
H       -2.7909848573    4.8109490278   -0.0130534134
H        0.7512132099    5.4818988700    2.3401303828
H       -2.7262267009    2.4041313597    0.5791532207
H        0.8154003899    3.0718821526    2.9219435554
H       -3.8041394191   -2.8740687054    1.3309502206
H       -2.3361924766   -3.8377448292    1.5408256643
H       -1.5606904453   -3.3378251502   -0.6788464109
H       -3.2257833345   -2.7883633158   -1.0185743130
H       -3.0058808834    1.0738296844    2.8930677449
H       -1.9842072688   -0.1621362449    3.6455514659
H       -1.8179922230    1.5536005100    4.1191015443
H        0.0422235587    0.8836719270    2.6483279688
H       -0.8074193023    0.6668913129    0.1345367235
28   
torsion grid (-135,)
C       -1.1523590488    5.2372570719    1.0671183574
C       -2.0579112116    4.2870627968    0.5805353355
C       -0.1239434121    4.8344282015    1.9240397231
C       -1.9362251639    2.9456954579    0.9511224230
C       -0.0038692279    3.4896561304    2.2906719900
C       -0.9086920563    2.5340525302    1.8128846604
C       -1.6541249942   -0.9329759650    0.9394643226
C       -2.9152800545   -2.7367223163    1.0641128764
C       -2.3897451216   -2.5982577329   -0.3851137748
C       -1.8459971369    0.8047467600    3.3614854426
C       -0.8055388533    1.0841334458    2.2674588854
N       -2.2168346551   -1.6854030465    1.8146823374
N       -0.9223874445    0.2031185390    1.0969463246
O       -1.7552182741   -1.2938847307   -0.3932115219
H       -1.2456080882    6.2805843820    0.7768699652
H       -2.8587843342    4.5924367239   -0.0883089289
H        0.5879098919    5.5640884018    2.3017247505
H       -2.6408279900    2.2110091869    0.5694050252
H        0.8017028495    3.1803492393    2.9538505634
H       -4.0018211772   -2.5873091597    1.1214314248
H       -2.6963400724   -3.7231100372    1.4857106436
H       -1.6300467930   -3.3464971698   -0.6351406699
H       -3.1676254368   -2.5986786916   -1.1514903486
H       -2.8610078035    0.9371445978    2.9776178940
H       -1.7601603916   -0.2107861559    3.7468249329
H       -1.6868923252    1.5238793810    4.1705448162
H        0.1895113276    0.9376379001    2.7086238484
H       -0.5348715444    0.5630779049    0.2351331000
28   
torsion grid (-120,)
C       -1.2915606731    5.1443043643    0.9530450433
C       -2.1858890150    4.1546738625    0.5256167067
C       -0.2105789901    4.7934627147    1.7665556635
C       -1.9993442680    2.8252965899    0.9101618726
C       -0.0269512722    3.4597703939    2.1497282961
C       -0.9177946168    2.4666932295    1.7277960557
C       -1.7732080144   -0.9032682133    0.8516665488
C       -3.3885176133   -2.4031975806    0.8526820519
C       -2.5052411176   -2.6263116961   -0.3978878013
C       -1.6678425307    0.7060575533    3.3709104188
C       -0.7454697297    1.0249681592    2.1883659812
N       -2.8847821797   -1.1565507887    1.4437309669
N       -0.8825542125    0.1046071670    1.0511886740
O       -1.3798351673   -1.7369072119   -0.1804172787
H       -1.4351322605    6.1785162547    0.6506311695
H       -3.0280025840    4.4215264448   -0.1082594036
H        0.4916848456    5.5542518780    2.0981733793
H       -2.6904102331    2.0554726841    0.5758899437
H        0.8182659218    3.1910525607    2.7812604398
H       -4.4479591809   -2.3084486432    0.5936468439
H       -3.2968519016   -3.2294469153    1.5704375992
H       -2.1162200941   -3.6409738911   -0.5041899606
H       -3.0007828014   -2.3251977447   -1.3271631696
H       -2.7182868363    0.8118954201    3.1011897962
H       -1.5128477190   -0.3146266834    3.7280777140
H       -1.4326481760    1.4071306540    4.1774102202
H        0.2863571944    0.9172559484    2.5480481252
H       -0.1413237348    0.1398948131    0.3645780125
28   
torsion grid (-105,)
C       -1.4104378841    5.0242460874    0.8809467960
C       -2.3048183267    3.9909193308    0.5713524985
C       -0.2692156632    4.7426664855    1.6361298489
C       -2.0596973023    2.6899132577    1.0138489849
C       -0.0239210027    3.4365827864    2.0779827793
C       -0.9137930244    2.4019147733    1.7718702671
C       -1.7001011860   -0.8698641776    0.8688219689
C       -3.5014949733   -2.1272331567    0.6909024851
C       -2.4904232668   -2.5488055846   -0.4017164049
C       -1.5772407639    0.6305754509    3.4584440597
C       -0.6677191137    0.9865634558    2.2768114854
N       -2.9134487383   -0.9220261290    1.2908260598
N       -0.7163564648    0.0147670135    1.1751217130
O       -1.2881664813   -1.8146424346   -0.0519288980
H       -1.6017995157    6.0366573044    0.5342002871
H       -3.1950901942    4.2031978337   -0.0156713614
H        0.4328663910    5.5366228571    1.8783249392
H       -2.7537148302    1.8876737512    0.7747083565
H        0.8687671187    3.2236562118    2.6639208682
H       -4.4889619304   -1.9082676959    0.2723266225
H       -3.6306716573   -2.9088191783    1.4515927240
H       -2.2443251869   -3.6124835112   -0.4071996774
H       -2.7970205988   -2.2385083097   -1.4064294477
H       -2.6304593285    0.6820678730    3.1857961740
H       -1.3668886909   -0.3810868912    3.8177337697
H       -1.3790647082    1.3417169734    4.2660205198
H        0.3640884977    0.9487056704    2.6467865734
H        0.0924226806   -0.0294310581    0.5711178137
28   
torsion grid (-90,)
C       -1.5023700698    4.9120669555    0.7664500892
C       -2.4183768373    3.8623308463    0.6173082514
C       -0.3020593032    4.6887830599    1.4453826023
C       -2.1385245678    2.6002718863    1.1442924397
C       -0.0208576894    3.4210745385    1.9696585572
C       -0.9314061408    2.3682980749    1.8250220072
C       -1.6159759759   -0.8130217902    0.9355687298
C       -3.4987748345   -1.9029307468    0.5748935291
C       -2.4507998816   -2.3606449869   -0.4667061707
C       -1.5301346849    0.6369698960    3.5920892827
C       -0.6231242894    0.9960391137    2.4095637186
N       -2.8553966726   -0.7832534825    1.2764001577
N       -0.5796735680   -0.0499856538    1.3751135543
O       -1.2209302153   -1.7420185316   -0.0062151705
H       -1.7241028849    5.8940713485    0.3561282369
H       -3.3546779123    4.0314574618    0.0908444103
H        0.4157067592    5.4965028684    1.5655119567
H       -2.8493024383    1.7859734698    1.0305463202
H        0.9171819015    3.2525142894    2.4961195651
H       -4.4315009850   -1.5782388952    0.1028685332
H       -3.7473405796   -2.7036849025    1.2839816588
H       -2.2899099309   -3.4398854885   -0.5042024552
H       -2.6614278104   -1.9861183765   -1.4741217046
H       -2.5801694201    0.6179078766    3.3035751237
H       -1.2648320551   -0.3475951172    3.9896051385
H       -1.3867911718    1.3854029646    4.3772102708
H        0.4017761497    1.0356345365    2.7959513896
H        0.2214358884   -0.0394557300    0.7581635725
28   
torsion grid (-75,)
C       -1.5700546118    4.7404588317    0.6281686509
C       -2.5424222542    3.7381541456    0.7336340335
C       -0.2963692959    4.5197917249    1.1584118620
C       -2.2486986825    2.5270246543    1.3642160762
C       -0.0017278294    3.3039208490    1.7861041894
C       -0.9685184541    2.2958410164    1.8962230501
C       -1.5395151199   -0.7789306264    1.0292583614
C       -3.4518330146   -1.7048462289    0.4333617064
C       -2.3523497906   -2.1460534848   -0.5627834504
C       -1.5246578949    0.6383883578    3.7611933986
C       -0.6122201818    0.9802612214    2.5777010021
N       -2.7948009184   -0.7109039373    1.2929216724
N       -0.4881128036   -0.1435924668    1.6268712488
O       -1.1293161951   -1.6367291597    0.0301273966
H       -1.8046084759    5.6829937909    0.1397110153
H       -3.5362169725    3.9034747144    0.3243314968
H        0.4665648905    5.2909463629    1.0858580981
H       -3.0025678471    1.7495610712    1.4348206820
H        0.9926136344    3.1409064395    2.1987885622
H       -4.3152657564   -1.2658653578   -0.0768425226
H       -3.8171602244   -2.5442741755    1.0392182875
H       -2.2488159453   -3.2274570443   -0.6722698902
H       -2.4643794902   -1.6873691240   -1.5507018200
H       -2.5589397902    0.5045669528    3.4462523583
H       -1.1880720926   -0.2876155370    4.2377277289
H       -1.4755966411    1.4504774785    4.4928248417
H        0.4008800203    1.0933170113    2.9776145543
H        0.3291162242   -0.1046634334    1.0294201222
28   
torsion grid (-60,)
C       -1.7353684262    4.5794247667    0.4519788962
C       -2.7262192078    3.6938263036    0.8899319126
C       -0.3964268136    4.3211308289    0.7602825537
C       -2.3869572104    2.5569816087    1.6285912340
C       -0.0599424621    3.1822105581    1.4985567910
C       -1.0447821426    2.2860100061    1.9394580136
C       -1.4744481183   -0.6490547882    1.0777905120
C       -3.3869944742   -1.2895004624    0.1836530165
C       -2.2229070558   -1.9356169708   -0.6123272075
C       -1.5139661100    0.7092144962    3.9094823068
C       -0.6201881086    1.0408037058    2.7100830961
N       -2.7370419077   -0.5756737633    1.2897917451
N       -0.4476720266   -0.1429764231    1.8323624184
O       -1.0323050535   -1.3515531481   -0.0212298332
H       -2.0047269581    5.4640183645   -0.1197689066
H       -3.7698511260    3.8894386159    0.6553970367
H        0.3822990321    5.0053317785    0.4324681410
H       -3.1604840719    1.8680110643    1.9470240912
H        0.9846627009    2.9913765867    1.7404638773
H       -3.9626867596   -0.5853987941   -0.4300479661
H       -4.0859315412   -2.0403253570    0.5672729035
H       -2.1643200395   -3.0207911967   -0.4844969979
H       -2.2209989809   -1.6943138709   -1.6775063912
H       -2.5226984838    0.4427787234    3.5930629882
H       -1.0943430460   -0.1396635045    4.4575717338
H       -1.5660573421    1.5727828490    4.5794448395
H        0.3874294818    1.2269652777    3.0946980408
H        0.4208437836   -0.1387131602    1.3096827118
28   
torsion grid (-45,)
C       -1.8368572107    4.3131624412    0.3772225978
C       -2.7984741887    3.5716127423    1.0712109072
C       -0.4861766272    3.9704587773    0.4960236702
C       -2.4191413974    2.4935166679    1.8760589170
C       -0.1119345486    2.8932980163    1.3041050481
C       -1.0683212499    2.1405282200    2.0021136564
C       -1.4116590415   -0.6657191303    1.1331933394
C       -3.2544515599   -1.0476581413   -0.0106749782
C       -2.0773551759   -1.7819491179   -0.7003682191
C       -1.4635216694    0.6722728259    4.0677392951
C       -0.5965645381    0.9542893756    2.8360868100
N       -2.6799443780   -0.5113713622    1.2300848594
N       -0.4437814175   -0.2909905835    2.0332101028
O       -0.9092439434   -1.3135748882    0.0263497921
H       -2.1363043317    5.1515830489   -0.2467968407
H       -3.8508276548    3.8305533358    0.9829755862
H        0.2722876794    4.5429587898   -0.0321457877
H       -3.1781495671    1.9156281131    2.3892117712
H        0.9424352409    2.6362244901    1.3966465147
H       -3.6439313185   -0.2267901215   -0.6264625894
H       -4.0873037845   -1.7236750293    0.2076324714
H       -2.1290822739   -2.8698006409   -0.5889877184
H       -1.9405603601   -1.5280236454   -1.7532961777
H       -2.4568775949    0.3283101402    3.7735096084
H       -0.9995260044   -0.1134320345    4.6707394111
H       -1.5657519426    1.5745819824    4.6786412498
H        0.4175930832    1.1760218078    3.1815158021
H        0.4766955814   -0.3860433818    1.6188320033
28   
torsion grid (-30,)
C       -1.9741470469    4.1824969366    0.3392327702
C       -2.8731250213    3.5886564684    1.2308330400
C       -0.6512731996    3.7307768662    0.2920833934
C       -2.4579816478    2.5498144714    2.0682935023
C       -0.2414080867    2.6955921676    1.1364122750
C       -1.1353161998    2.0922329594    2.0333687918
C       -1.4247129030   -0.6374837956    1.1543904945
C       -3.1270717925   -0.8273321769   -0.2267697274
C       -1.9496666126   -1.6769733891   -0.7668007903
C       -1.4173274766    0.7585197934    4.2026626329
C       -0.6249133144    0.9499221004    2.9047240612
N       -2.6754569073   -0.3711389023    1.0941474079
N       -0.5541812183   -0.3526387323    2.1787103785
O       -0.8438098324   -1.3212305383    0.1072063883
H       -2.3005101218    4.9901732280   -0.3112750169
H       -3.9051284246    3.9286707899    1.2687786089
H        0.0589646577    4.1867101357   -0.3932894365
H       -3.1766507046    2.0824198630    2.7312076053
H        0.7906694319    2.3502491466    1.0968513473
H       -3.3385539309    0.0379164619   -0.8681402194
H       -4.0485383003   -1.4118509582   -0.1413224702
H       -2.1225234717   -2.7538918854   -0.6705720864
H       -1.6546120808   -1.4434116834   -1.7915632636
H       -2.4300252245    0.4098124999    3.9864136742
H       -0.9298401987    0.0011840905    4.8229853542
H       -1.4770191993    1.6941439293    4.7677636335
H        0.4124938251    1.1764709222    3.1688452118
H        0.3907494681   -0.6067864559    1.9153039308
28   
torsion grid (-15,)
C       -2.1024311778    4.1592324561    0.3958521373
C       -2.9023326494    3.7090685455    1.4500482135
C       -0.8492331782    3.5739058709    0.1847665809
C       -2.4584257368    2.6801394964    2.2851429408
C       -0.4092782386    2.5510918105    1.0273745979
C       -1.2072745885    2.0887399823    2.0841644646
C       -1.4550002888   -0.6081636111    1.1467047963
C       -2.9312439491   -0.6758690847   -0.4817968016
C       -1.8112487065   -1.7013413952   -0.7841445904
C       -1.3453216213    0.8493947589    4.3244813711
C       -0.6700274357    0.9594242294    2.9531708405
N       -2.6395017555   -0.2054513009    0.8784050308
N       -0.7160988253   -0.3720374147    2.2793482346
O       -0.8095277410   -1.4163550065    0.2295577770
H       -2.4501152931    4.9587845823   -0.2535893137
H       -3.8802314769    4.1533726305    1.6180487752
H       -0.2151171311    3.9178430298   -0.6287382157
H       -3.1069622002    2.3271151438    3.0794235236
H        0.5664681066    2.0986198541    0.8577335089
H       -2.9148630555    0.1698357444   -1.1814067052
H       -3.9263389531   -1.1290198679   -0.5301762775
H       -2.1385815137   -2.7384077880   -0.6543548324
H       -1.3403892798   -1.5854031674   -1.7622461040
H       -2.3904451896    0.5480683259    4.2162853340
H       -0.8420558399    0.0850327978    4.9237233959
H       -1.3025027123    1.8010983362    4.8640988206
H        0.3941336717    1.1618576226    3.1159732111
H        0.1930229225   -0.8128719655    2.2112707266
28   
torsion grid (0,)
C       -1.0085931658    4.1359191451    0.4424709634
C       -0.5730256288    4.3392144239    1.7540196713
C       -1.4561144242    2.8678455438    0.0517959483
C       -0.5820734174    3.2797071849    2.6671891014
C       -1.4664175283    1.8171434129    0.9684785408
C       -1.0248012449    2.0110586814    2.2853034508
C        0.7609747360   -0.2708607514    1.9529781899
C        2.1576823588    0.0799605332    0.2913171761
C        1.9952883928   -1.4467586411    0.4868683127
C       -2.4654387124    0.2874092672    3.4586945420
C       -1.0592634481    0.8801545799    3.2964457988
N        1.4511215937    0.6728888894    1.4331114712
N       -0.1031846643   -0.2225018084    3.0167198238
O        0.9015441367   -1.5492750446    1.4370494205
H       -0.9993814814    4.9562229309   -0.2708806045
H       -0.2204145925    5.3191386147    2.0657859794
H       -1.7939540217    2.7006198922   -0.9680992846
H       -0.2242701380    3.4388173070    3.6820186718
H       -1.8018890686    0.8329802815    0.6495184095
H        3.2089853817    0.3842019077    0.2859616622
H        1.7071396111    0.4248676191   -0.6490555430
H        1.7103688553   -1.9945822956   -0.4135804854
H        2.8792491246   -1.9125332961    0.9357605212
H       -2.8205523751   -0.1561427324    2.5235113295
H       -2.4719837541   -0.4881054871    4.2339245814
H       -3.1697341059    1.0688533516    3.7566433129
H       -0.7710059298    1.3118378174    4.2622956894
H       -0.4894058004   -1.1399877062    3.2064747875
28   
torsion grid (15,)
C       -1.0417442782    4.0383371952    0.3616699336
C       -0.6085943334    4.2811791078    1.6676565139
C       -1.4639272408    2.7524527612    0.0018826394
C       -0.5945618690    3.2440664646    2.6061863525
C       -1.4541320540    1.7243234646    0.9447169101
C       -1.0148391488    1.9590296033    2.2558447442
C        0.7273250564   -0.3125854613    1.9412637889
C        2.2862815597    0.1705122406    0.4688153385
C        1.9307176080   -1.3309880759    0.3405394179
C       -2.4629034052    0.3766332357    3.6013937505
C       -1.0378493922    0.8490821221    3.2924756202
N        1.5576577394    0.6190896641    1.6619445301
N       -0.2166861937   -0.3364073837    2.9384554044
O        0.7624014244   -1.4751013546    1.1933142826
H       -1.0480061841    4.8410883336   -0.3713660764
H       -0.2723306895    5.2744792938    1.9542353909
H       -1.7993955563    2.5541858059   -1.0132773749
H       -0.2332586030    3.4328790940    3.6146323806
H       -1.7723800738    0.7255475509    0.6526771560
H        3.3625491176    0.3289951654    0.5884866274
H        1.9590950985    0.7473738224   -0.4061807978
H        1.6522029680   -1.6489824313   -0.6660623953
H        2.7161004816   -1.9878659884    0.7292893539
H       -2.9466101483   -0.0293323736    2.7065682252
H       -2.4551015385   -0.3964467610    4.3784028423
H       -3.0653102923    1.2152279581    3.9596070478
H       -0.6186403387    1.2672897594    4.2149273796
H       -0.7547296181   -1.1946195041    2.8992457583
28   
torsion grid (30,)
C       -1.1240182100    3.9943128122    0.3414043712
C       -0.6298492393    4.2344587029    1.6266705332
C       -1.5715331780    2.7114960353    0.0034538493
C       -0.5819924730    3.1991895801    2.5656852548
C       -1.5283460666    1.6837381015    0.9471299809
C       -1.0308703199    1.9175420586    2.2369806647
C        0.6820560436   -0.3820803048    1.9297171924
C        2.4115792486    0.1323887868    0.6742257539
C        1.9583018768   -1.3087804831    0.3319990942
C       -2.4342162045    0.4476318390    3.7499017403
C       -1.0225292093    0.8089738203    3.2780675469
N        1.5922640262    0.5110700413    1.8330045697
N       -0.3510602293   -0.4324353352    2.8341196584
O        0.7092825654   -1.4546998072    1.0623507684
H       -1.1559544670    4.7960135304   -0.3921043452
H       -0.2707251899    5.2248029438    1.8952829389
H       -1.9531568574    2.5143642526   -0.9954814138
H       -0.1715000381    3.3851630181    3.5557240078
H       -1.8683663667    0.6873487813    0.6713591227
H        3.4773839344    0.1796568815    0.9186944357
H        2.2277288493    0.8291557906   -0.1536588356
H        1.7501374581   -1.4812040190   -0.7257364744
H        2.6532959948   -2.0714013001    0.6986628505
H       -3.0452837005    0.0834486030    2.9160870509
H       -2.3969209421   -0.3258235425    4.5246960740
H       -2.9277672005    1.3304320897    4.1633739102
H       -0.4622501511    1.1842227252    4.1414553753
H       -0.9932664832   -1.1845679375    2.6100961374
28   
torsion grid (45,)
C       -1.2397954188    3.9745151338    0.2981603287
C       -0.6107240331    4.1743691547    1.5307069772
C       -1.7616362006    2.7137673944   -0.0136014950
C       -0.5051628218    3.1203086934    2.4433266152
C       -1.6585666111    1.6670386917    0.9053817358
C       -1.0301879484    1.8598450059    2.1434489030
C        0.7319689177   -0.4644884208    1.8258077786
C        2.6260325015    0.0355999034    0.8244514882
C        2.1297344454   -1.3373773834    0.2988230219
C       -2.3101819476    0.4161998462    3.7861096244
C       -0.9480565245    0.7288796862    3.1597894643
N        1.6741808601    0.3990072894    1.8821430936
N       -0.3915416731   -0.5216141044    2.6131838104
O        0.8184080823   -1.4878608512    0.9089688157
H       -1.3176220242    4.7905247921   -0.4158596567
H       -0.1913718957    5.1468598235    1.7764800390
H       -2.2472281983    2.5478083062   -0.9722405110
H        0.0101901006    3.2726055201    3.3889286735
H       -2.0602717325    0.6888345503    0.6480154583
H        3.6439269131   -0.0240542604    1.2234391683
H        2.6216919329    0.8025048530    0.0400275576
H        2.0019823997   -1.3852214057   -0.7846355165
H        2.7520884942   -2.1743333211    0.6305965481
H       -3.0272881597    0.0898656893    3.0236988353
H       -2.2159642803   -0.3717833997    4.5402755086
H       -2.7191012350    1.3114331808    4.2609365255
H       -0.2677553958    1.0522335920    3.9536828266
H       -1.0817816253   -1.1656396213    2.2428780024
28   
torsion grid (60,)
C       -1.3817125860    4.0142202381    0.2749342699
C       -0.3969320098    4.0320872484    1.2670205255
C       -2.2547896465    2.9236313775    0.1885665759
C       -0.2864480502    2.9673670406    2.1672309749
C       -2.1433887373    1.8655532589    1.0938804617
C       -1.1615648904    1.8771931159    2.0961530225
C        0.7227870155   -0.4608723601    1.8176847548
C        2.7898976900   -0.0288677623    1.1909154713
C        2.2862139127   -1.2830242267    0.4261868906
C       -2.3187838689    0.3732507348    3.8025204027
C       -1.0195057710    0.7138284987    3.0699235184
N        1.6922820413    0.3276065572    2.0989467777
N       -0.5090708877   -0.5091427382    2.4210088338
O        0.8970679359   -1.4071408105    0.8359351406
H       -1.4673574462    4.8396756980   -0.4273290172
H        0.2920660618    4.8704109217    1.3348831760
H       -3.0219576051    2.9000274859   -0.5815430673
H        0.4995489437    2.9675184284    2.9170224870
H       -2.8304849223    1.0255305967    1.0133256858
H        3.7056740854   -0.2359251872    1.7550110496
H        3.0011173436    0.8075105372    0.5135925112
H        2.3064268564   -1.1813307083   -0.6611852749
H        2.8041433367   -2.2022731923    0.7154661092
H       -3.0978112376    0.0363489242    3.1092449452
H       -2.1442829193   -0.4229684608    4.5321311864
H       -2.7001140453    1.2556536519    4.3230253208
H       -0.2652940772    0.9916353100    3.8100962346
H       -1.1920405010   -1.0090023469    1.8610154430
28   
torsion grid (75,)
C       -0.9391493356    4.1517962251    0.5095129729
C       -2.1384780423    3.4312715028    0.5168884049
C        0.0599851395    3.8361929540    1.4354693720
C       -2.3343201839    2.4055812463    1.4458988711
C       -0.1380334870    2.8073216534    2.3616511557
C       -1.3380657393    2.0818045797    2.3797214677
C        0.1070551039   -0.7024638384    2.5076825932
C        2.2920932127   -0.9798654093    2.5645258818
C        1.6975375231   -1.9055024924    1.4714394525
C       -2.8975346427    0.8560438002    4.0030182750
C       -1.5087706441    0.9309826765    3.3645528159
N        1.1515963945   -0.1905422760    3.0489151559
N       -1.2010486660   -0.3690769420    2.7384213160
O        0.2613981688   -1.7447724700    1.6247475576
H       -0.7867641345    4.9520184321   -0.2104186667
H       -2.9221105153    3.6714405047   -0.1975415883
H        0.9959525706    4.3895501291    1.4354770680
H       -3.2760432742    1.8617114068    1.4405710486
H        0.6472679133    2.5445361164    3.0642592463
H        2.7324786853   -1.5521070501    3.3908528378
H        3.0726549684   -0.3244169311    2.1645401129
H        1.9623414893   -1.5949252489    0.4559643763
H        1.9331021581   -2.9639118081    1.6014718244
H       -3.6744620667    0.6247907241    3.2662240514
H       -2.9151567717    0.0707029898    4.7636455621
H       -3.1540472358    1.8111334488    4.4699201261
H       -0.7665720295    1.0516634819    4.1555539641
H       -1.8183623757   -0.6406411065    1.9801287756
28   
torsion grid (90,)
C       -1.1306455589    4.3343295292    0.5202594586
C       -2.3775035026    3.7419324671    0.7389092906
C       -0.0070894545    3.8455427591    1.1970761393
C       -2.5001469703    2.6673541210    1.6270523466
C       -0.1315981355    2.7724587158    2.0824195501
C       -1.3802477889    2.1687505555    2.3071275323
C        0.2077517552   -0.6891718943    2.4692289560
C        2.3345181116   -1.1276672857    2.8463330833
C        1.8572552685   -1.9657996934    1.6327107814
C       -2.8105259390    0.7596309206    3.9152024191
C       -1.4549317696    0.9594566459    3.2334226782
N        1.1926096564   -0.2642562900    3.1762217985
N       -1.0916972432   -0.2723432687    2.5095093223
O        0.4268502932   -1.7150067987    1.5807360516
H       -1.0355555982    5.1714561210   -0.1667469676
H       -3.2569585491    4.1183979705    0.2221757647
H        0.9659175533    4.3036231641    1.0367688669
H       -3.4801030674    2.2273015834    1.7898775999
H        0.7408238137    2.3836614420    2.6011066923
H        2.5914209864   -1.7608886654    3.7052242951
H        3.2170755223   -0.5260243768    2.6054916623
H        2.2910017117   -1.6328624080    0.6844596819
H        2.0052071256   -3.0421628779    1.7425070149
H       -3.5961855061    0.5049225333    3.1959528250
H       -2.7417380201   -0.0617797347    4.6332410989
H       -3.1157167480    1.6678415142    4.4435827919
H       -0.6898784491    1.0730301813    4.0029265286
H       -1.6178411886   -0.4690459744    1.6654593985
28   
torsion grid (105,)
C       -1.2807261861    4.4396342003    0.4721425521
C       -2.5139578866    3.9333815702    0.8879365796
C       -0.0998733342    3.8298944807    0.9155772414
C       -2.5701037081    2.8233748885    1.7407778266
C       -0.1590486880    2.7238304097    1.7638423123
C       -1.3954731923    2.2048567512    2.1861648893
C        0.2509578787   -0.7590905269    2.4227441005
C        2.2448494923   -1.4251268079    3.0829083642
C        1.8925017705   -2.1385081832    1.7531527692
C       -2.7134938240    0.6817046770    3.7937652736
C       -1.3919301025    0.9657369942    3.0755141106
N        1.1513843540   -0.4664439329    3.2917985868
N       -0.9898372456   -0.2130289244    2.2905202733
O        0.5098064781   -1.7593240963    1.5149709006
H       -1.2373090306    5.3030031160   -0.1869351312
H       -3.4356717466    4.4025474830    0.5526491966
H        0.8649933486    4.2213568290    0.6026581647
H       -3.5393593747    2.4507049507    2.0582679068
H        0.7565829693    2.2489127769    2.1091946346
H        2.2971014876   -2.1298153918    3.9230217303
H        3.2084765090   -0.9084293183    3.0265689364
H        2.4886865446   -1.7832964869    0.9063465263
H        1.9383403778   -3.2285292500    1.7986812212
H       -3.5151158696    0.4385089628    3.0884350318
H       -2.5860533233   -0.1758178327    4.4595079984
H       -3.0287726830    1.5441265780    4.3895597925
H       -0.6085560636    1.0880381794    3.8258204188
H       -1.4221283246   -0.3379495561    1.3832606617
28   
torsion grid (120,)
C       -1.4687586875    4.5730475155    0.4578607952
C       -2.6484216833    4.0556839139    0.9961439593
C       -0.2479843509    3.9471389187    0.7432573123
C       -2.6128081540    2.9186263131    1.8142595725
C       -0.2170327927    2.8145879987    1.5567390950
C       -1.3988401305    2.2845263606    2.1031350781
C        0.2976449059   -0.7707172960    2.3976844205
C        2.0998227748   -1.6691118718    3.2923016634
C        1.9237082727   -2.2231513919    1.8547928548
C       -2.5707650756    0.6551406687    3.7251964626
C       -1.2976178403    1.0291181411    2.9618929811
N        1.0489574767   -0.6527956372    3.4332446547
N       -0.8544269211   -0.0986551953    2.1262449419
O        0.6378928790   -1.6921127384    1.4343858212
H       -1.4964525307    5.4563207341   -0.1750979951
H       -3.6002423674    4.5356821027    0.7825710153
H        0.6768504347    4.3458688865    0.3337932975
H       -3.5410756249    2.5358726926    2.2268767683
H        0.7312344775    2.3295889203    1.7787165121
H        1.9725227832   -2.4530240891    4.0500314901
H        3.0905513421   -1.2269124402    3.4406452790
H        2.6830705499   -1.8543756294    1.1577493594
H        1.8731685940   -3.3123396300    1.7938242124
H       -3.3921260475    0.4081903309    3.0447528243
H       -2.3711289245   -0.2246853448    4.3422404486
H       -2.8923849754    1.4719250568    4.3796148192
H       -0.4972013425    1.1809671981    3.6904102613
H       -1.1592331718   -0.1217228415    1.1616342266
28   
torsion grid (135,)
C       -1.6764971259    4.4743724473    0.2358308586
C       -2.6431236560    3.4841408433    0.4446404361
C       -0.4483415533    4.3899545582    0.8983757658
C       -2.3821593805    2.4208810242    1.3128247750
C       -0.1883008759    3.3194877258    1.7605200374
C       -1.1498688755    2.3247377258    1.9797104618
C        0.2576681235   -0.9603438273    2.3398662421
C        1.8932761153   -2.1706620737    3.1855318898
C        1.5586145467   -2.7012380769    1.7660128265
C       -1.8650973051    0.9968536148    4.0399115421
C       -0.8508091032    1.1569054407    2.9012351536
N        1.0400956897   -0.9877176145    3.3570523742
N       -0.7662311245   -0.0869878033    2.1051465462
O        0.3975876520   -1.9235019007    1.3679834866
H       -1.8802084640    5.3042216172   -0.4359651917
H       -3.6015988370    3.5436841294   -0.0649198575
H        0.3080889873    5.1550541157    0.7429160379
H       -3.1461822599    1.6640315967    1.4749937914
H        0.7713821361    3.2546224688    2.2682813239
H        1.6698266008   -2.9128631946    3.9622454432
H        2.9506383101   -1.9024711144    3.2825118292
H        2.3539590105   -2.5128534186    1.0381885747
H        1.2817645345   -3.7573942540    1.7353262960
H       -2.8695668259    0.7999158505    3.6536184670
H       -1.5684707978    0.1574727395    4.6747475310
H       -1.8997781949    1.9053686320    4.6500383878
H        0.1345711188    1.3123382961    3.3486269430
H       -1.0254084353   -0.0141032701    1.1288415020
28   
torsion grid (150,)
C       -1.8974558227    4.5459410796    0.3081154194
C       -2.7250062252    3.4243978565    0.4363948701
C       -0.6740099920    4.5804682595    0.9833440573
C       -2.3308972998    2.3504587535    1.2383602953
C       -0.2802412241    3.4984233016    1.7782022510
C       -1.1020406587    2.3731724088    1.9179873108
C        0.2868348913   -0.9914201779    2.2988699709
C        1.6736391406   -2.3735585823    3.3098343907
C        1.4872316672   -2.8358444547    1.8403518360
C       -1.6020723323    0.9912898594    3.9920385829
C       -0.6745180119    1.2083626032    2.7890733290
N        0.9217954226   -1.1153307236    3.4070735767
N       -0.6106954499   -0.0160719379    1.9611305310
O        0.4659463025   -1.9420968584    1.3211773515
H       -2.2043657534    5.3840286387   -0.3122963634
H       -3.6785926018    3.3895677393   -0.0845398388
H       -0.0240997634    5.4467262457    0.8887916026
H       -2.9845776312    1.4872761350    1.3384496926
H        0.6760080308    3.5281088985    2.2957219599
H        1.2755235482   -3.1065954706    4.0226590484
H        2.7280696047   -2.2132694330    3.5578485975
H        2.3874851311   -2.7063697475    1.2315663854
H        1.1222466504   -3.8598443675    1.7348811144
H       -2.6223332412    0.7732823121    3.6627401130
H       -1.2356987923    0.1531060005    4.5895876804
H       -1.6227624192    1.8894645113    4.6176278584
H        0.3317678833    1.4088243907    3.1728817773
H       -0.6917353166    0.1256167408    0.9610817112
28   
torsion grid (165,)
C       -2.1011136846    4.5437600063    0.3889214934
C       -2.7592613096    3.3087351454    0.4170601281
C       -0.9133765257    4.7087892792    1.1072529245
C       -2.2346242372    2.2497552002    1.1619409467
C       -0.3864810106    3.6435566664    1.8455065579
C       -1.0401655321    2.4058255501    1.8833585204
C        0.3428572363   -1.0125349707    2.2858743164
C        1.4567040725   -2.5606496853    3.3886946755
C        1.3869842463   -2.9635740871    1.8935072405
C       -1.3533052458    1.0098761464    3.9587874048
C       -0.4840761895    1.2679203712    2.7181327564
N        0.8594813177   -1.2193390562    3.4423257902
N       -0.3997298662    0.0596257420    1.8771411829
O        0.5032597227   -1.9697414433    1.3090382865
H       -2.5104212171    5.3685545609   -0.1887183158
H       -3.6836951394    3.1727581522   -0.1386948221
H       -0.3938199374    5.6634917034    1.0891765481
H       -2.7548791077    1.2954021869    1.1858968837
H        0.5419490061    3.7752934464    2.3970098398
H        0.8895636835   -3.2515651254    4.0255885882
H        2.4862521884   -2.5402729504    3.7602979532
H        2.3546591159   -2.8929043558    1.3863646818
H        0.9521857140   -3.9485564768    1.7112865793
H       -2.3714462766    0.7407238687    3.6614149643
H       -0.9260942526    0.2006803118    4.5536661023
H       -1.4001271651    1.9170864713    4.5693564562
H        0.5242202222    1.5361948477    3.0580196616
H       -0.3686270050    0.2174168643    0.8769437199
28   
torsion grid (180,)
C       -2.2473292836    4.5014908221    0.4170826731
C       -2.7595149596    3.1990528910    0.3955161001
C       -1.0948033910    4.7775258087    1.1584455222
C       -2.1254657909    2.1820280353    1.1133949719
C       -0.4590678516    3.7548525412    1.8705497857
C       -0.9668788370    2.4499477298    1.8590478315
C        0.4309271205   -0.9883488892    2.2716151173
C        1.2504047328   -2.6974459152    3.3964734175
C        1.2945439641   -3.0286071309    1.8832235434
C       -1.1408757418    1.0527452861    3.9316444222
C       -0.3004483140    1.3601294022    2.6805877506
N        0.8039074533   -1.2994446109    3.4598290748
N       -0.1375831164    0.1707726536    1.8316974493
O        0.5873483909   -1.9203897812    1.2671332407
H       -2.7413799617    5.2926868578   -0.1409540715
H       -3.6552509342    2.9768726291   -0.1791868855
H       -0.6872199499    5.7851250378    1.1780631169
H       -2.5300030170    1.1732776219    1.0976686662
H        0.4413723494    3.9734980414    2.4407696665
H        0.5470583213   -3.3441974955    3.9367606413
H        2.2312205535   -2.8103385444    3.8695446290
H        2.3120155626   -3.0459637439    1.4792472904
H        0.7786053874   -3.9509599203    1.6082660498
H       -2.1277738910    0.6790471255    3.6409837766
H       -0.6456018375    0.3065326591    4.5534963579
H       -1.2782799605    1.9741260558    4.5057881846
H        0.6862028367    1.7142866036    3.0086904193
H       -0.0325684776    0.3366859146    0.8387637861
