64
-1 1 C27H31N2O4
C                     3.337414922214     4.396973385753     3.947655286923
C                     1.962426777109     4.293001324747     3.729806750855
C                     1.961848566338    -0.440733129939    -1.333621166607
C                     4.265344010126     3.867263584679     3.052265930124
C                     0.838254331493     0.388134767318    -1.337500988080
C                     2.448521506723     3.101969095432     1.652251767035
C                    -0.473772668927    -1.340233341689    -0.238683459959
C                     1.530894414289     3.627911731569     2.568029014693
C                     1.888557602036    -1.703669323628    -0.735792621623
C                     0.665969456127    -2.152572028931    -0.224673588559
C                     3.847136678728     3.206203802962     1.862907800540
C                    -0.368917305322    -0.049942538619    -0.775197315772
C                    -1.816124153530     2.877217003434     1.508431397332
C                    -2.042769466959     3.508465698115     2.698579789579
C                     0.108546062436     3.437087884059     2.291808411629
C                     5.188621826152    -1.288360539234    -0.843032590034
C                     0.784130467393    -3.587275642050     0.245957159473
C                     2.313943994895    -3.786305800406     0.375910599123
C                     2.990058434331    -2.736292048006    -0.556816496224
C                    -3.246127291866     3.853840629015     3.503434540492
C                     6.641518530607     1.537478759943     2.108771078685
C                     3.910505813751     2.774291332153    -1.401447529524
C                    -2.796743596229     2.228811240560     0.576723941802
C                     4.299745069160    -2.205914028410     0.046253691909
C                     6.180285096694     2.694548977972     1.211769858685
C                     4.291910298925     1.906073949804    -0.198219294825
C                    -2.403012621154     0.791106462392     0.208120951868
N                    -0.444048525707     2.848465609637     1.267463177724
N                     4.741779038393     2.692645019535     0.956522051343
O                     4.873718268444    -1.163462160141    -2.059213913369
O                     6.153010340153    -0.739578625268    -0.229357071462
O                    -0.812418423663     3.879812535387     3.212331262304
O                    -1.424842522801     0.841648908047    -0.823961180948
H                     3.702910763487     4.892707305806     4.844983845361
H                     1.245344364083     4.696919633182     4.436366623216
H                     2.899840144123    -0.132730857991    -1.783055880218
H                     5.319593429214     3.951872278948     3.287134990789
H                     0.878836767734     1.392515965435    -1.749844443305
H                     2.051559952404     2.595497270173     0.782798253182
H                    -1.419556407599    -1.707878753710     0.152532653339
H                     0.246349687253    -3.782562961746     1.181996443775
H                     0.360185600882    -4.261694767039    -0.512211011405
H                     2.613024847081    -3.576145320192     1.409781954173
H                     2.630158478015    -4.810380593007     0.149422652413
H                     3.225231089253    -3.176837521123    -1.533823791158
H                    -3.198461464111     3.411501832541     4.505705178806
H                    -3.352485915632     4.938758275218     3.624281856367
H                    -4.145190593744     3.479513137602     3.007438153835
H                     6.124930757993     1.562771229235     3.074947936486
H                     6.440716628740     0.583019097401     1.610491313530
H                     7.721316826514     1.611356904569     2.293618525780
H                     3.079960096646     3.451288756682    -1.173824889288
H                     4.765625229327     3.381734667214    -1.719900807961
H                     3.621953730645     2.134735174401    -2.241533507388
H                    -3.788092694260     2.220194251156     1.044551680483
H                    -2.883121022990     2.800191704350    -0.355092667112
H                     4.923481548283    -3.061091023758     0.342792434985
H                     4.081411563346    -1.662038603207     0.974343903699
H                     6.678245455776     2.611259612450     0.241694483580
H                     6.476391877704     3.665071984080     1.626940511951
H                     5.095176041802     1.219110070483    -0.469069961016
H                     3.455943833352     1.267450339884     0.095468278482
H                    -2.008634483518     0.274452405041     1.089472877717
H                    -3.284978059186     0.239320975620    -0.149670831233
