65
0 1 C27H32N2O4
C                     2.940919430139     6.263107320450     2.596799734041
C                     1.600090092032     5.875825650296     2.599848260451
C                     1.426664310600    -2.025871732642     4.098554216751
C                     3.969055520245     5.341378697167     2.398784648702
C                     0.258964097182    -1.385409845760     3.655980026379
C                     2.326271225644     3.584106579655     2.193092408560
C                     0.566596770598     0.339390629870     5.346717539586
C                     1.303755717196     4.519875417360     2.392332745521
C                     2.158153578478    -1.489540411216     5.153712270153
C                     1.723575520347    -0.303426148517     5.768571425851
C                     3.683342912092     3.966933297376     2.196568774745
C                    -0.172648150229    -0.207686412710     4.284236557315
C                    -1.842163434745     2.805345874506     2.419269939919
C                    -2.213453549512     4.048969259049     2.840510149956
C                    -0.066457016341     4.016278029792     2.421705880206
C                     5.655263810998    -3.206489320526     5.568981212794
C                     2.670666178559     0.088560092251     6.882960337360
C                     3.934490448027    -0.750742883261     6.582206205667
C                     3.420285406931    -2.003338991296     5.826768816742
C                    -3.487022680815     4.676759505486     3.282046147559
C                     6.735403457957     3.905651840534     0.872660200748
C                     4.069185241399     0.757166374918     2.892238677536
C                    -2.650493096605     1.547158342478     2.282969390051
C                     4.438689033824    -2.617982110398     4.867252051020
C                     6.095146579618     3.373453747672     2.162656760122
C                     4.374486365318     1.644169320698     1.677033998370
C                    -1.807756025584     0.315558171084     2.604600541683
N                    -0.476459592673     2.808137739385     2.149154793008
N                     4.687458452665     3.027366597164     2.018159329345
O                     5.765334686983    -3.369269088375     6.761042644158
O                    -1.076782128684     4.840302743756     2.839453938702
O                     6.674343080770    -3.586764261069     4.735823281181
O                    -1.315817311568     0.463101805182     3.939724026515
H                     3.198532971827     7.308711132230     2.746947771991
H                     0.806001525555     6.597215195392     2.759389024553
H                     1.740995700741    -2.944121952408     3.606203570027
H                     4.991662809189     5.699915561780     2.392758902513
H                    -0.311125121296    -1.813184304244     2.838168069831
H                     2.030010083641     2.551119643770     2.072029516474
H                     0.221741936228     1.265299086353     5.799272223823
H                     2.871184922993     1.164052346192     6.914723934842
H                     2.241148261087    -0.188388700989     7.854838418135
H                     4.593437426229    -0.179913552244     5.916549154598
H                     4.507189875430    -1.013161946701     7.473226516662
H                     3.151356527157    -2.772786738465     6.562425312819
H                    -3.400070451184     5.081655987411     4.296541716082
H                    -3.782762948397     5.497528959379     2.618590611272
H                    -4.286692018949     3.932290705988     3.277523153520
H                     6.672787490275     3.158947187944     0.073985557016
H                     6.226408155917     4.808919672314     0.524443111967
H                     7.792784124436     4.144482427634     1.034547505939
H                     4.933840933030     0.713679967605     3.563842484513
H                     3.218751129096     1.132675942384     3.466241658914
H                     3.825305388234    -0.262065393143     2.573084297505
H                    -3.519563602577     1.586841092792     2.947187121441
H                    -3.031510679153     1.432770629312     1.259575002924
H                     3.977715288335    -3.430252549654     4.288960723362
H                     4.765132771723    -1.866721675949     4.137432178489
H                     6.212611490015     4.098182305716     2.974458845796
H                     6.627944944649     2.474246800640     2.490668566515
H                     3.537245270597     1.621643405738     0.972340772161
H                     5.232356364658     1.235686726527     1.131943312411
H                    -2.413417155301    -0.596496145560     2.520699124507
H                    -0.966252286721     0.253110741052     1.908204179125
H                     6.434376688873    -3.391271535947     3.814075014840
