38
-1 1 C14H18NO4S
C                    -2.620763275313     1.381403016465     3.101826259919
C                    -2.949424482688     2.042164728534     4.282269076446
C                    -0.799486613243     1.477192150965     5.180470586778
C                    -1.391895198233     0.718613375613     2.924431316025
C                    -2.036358093461     2.102547880602     5.345808741228
C                    -0.489470186996     0.783717349328     4.003710531423
C                    -1.237835614636    -0.032820030990     1.574094314476
C                    -3.465176763862     2.328342107740     7.525339099895
C                    -2.012863212694     2.277561738719     7.958911483195
C                    -2.374277684769     2.842853981658     6.604889534972
C                     0.196865109175    -3.810848785432     3.783539812293
C                     1.636261455215    -2.893320622678     5.631291077918
C                    -0.756057171858    -2.123136313749     5.374813409821
C                     0.517977264966    -2.566119325267     4.629971249342
N                     1.014438353883    -1.574882952565     3.633402627768
O                    -1.737000619180     0.551204942329     0.591404286020
O                    -0.702035677090    -1.186721890431     1.613725030796
O                     1.905677738951     0.646464698531     2.860764995081
O                     1.714032195652     0.176909624890     5.349870779582
S                     1.177186101219     0.042948419301     3.980142200859
H                    -3.310788238420     1.360688607391     2.263998413507
H                    -3.923040455507     2.519136130822     4.386194236475
H                    -0.060564527557     1.510171527797     5.974414116366
H                    -3.938872564508     1.389936856254     7.251235676641
H                    -4.123594993487     3.050109903414     8.002270676306
H                    -1.680877089653     2.964363541644     8.732861390696
H                    -1.530431659402     1.304944339171     7.980687850387
H                    -2.317142135578     3.928029416539     6.525292323517
H                    -0.589657043414    -3.590266318807     3.055311276178
H                     1.087172957141    -4.137608738465     3.236725506199
H                    -0.137683168209    -4.629721472407     4.430400663467
H                     1.898823200706    -2.012490830690     6.219769569600
H                     2.531112226033    -3.225605847262     5.095302245275
H                     1.313084825664    -3.694239919718     6.308122748270
H                    -0.558052114427    -1.272211400167     6.031179215051
H                    -1.540586406030    -1.839000431429     4.667811240564
H                    -1.127449417827    -2.947997302334     5.994683773161
H                     0.432171090296    -1.584412158812     2.756659057533
