42
0 1 C18H18N2O4
C                     6.828191750206     1.439602455272    -1.627154193709
C                     5.877614840780     2.349667023270    -2.085051456356
C                     6.481771985362     0.425064658407    -0.731117229839
C                     2.042142968768     2.049835596712     0.290375410811
C                     4.162736591311     1.210713615681    -0.769677907505
C                     0.150780156003     0.597181879849     0.440325779905
C                     0.718525997872     1.845872744737     0.706019809975
C                     4.549715958400     2.229604678286    -1.650868868230
C                     5.152488018676     0.320951746303    -0.297738652401
C                     2.742527925175     1.029711170199    -0.361926286982
C                     0.927450664088    -0.341900935430    -0.247749059344
C                    -1.043996949305    -1.739545136046    -0.670561571293
C                    -1.212788847614     0.130568846287     0.857837878284
C                     4.880917682061    -4.214162323692     1.420748749690
C                     3.627525776170    -3.517660903582     0.935891807905
C                     4.697857700332    -2.727371422010     1.649278209161
C                    -0.047326678081     2.924533574229     1.432314097549
C                     5.528908575294    -1.758425872000     0.855306178089
N                     2.179546583239    -0.160623047917    -0.649065371683
N                     0.328673732999    -1.578934116327    -0.533470335420
O                    -1.548788991469    -2.678998295996    -1.248751550931
O                    -1.806671577434    -0.753380170185    -0.124795882759
O                     3.572951619306     3.092273955087    -2.091486023692
O                     4.726953022272    -0.594107328504     0.614604907216
H                     7.857761085037     1.526674834588    -1.963824402915
H                     6.157098107103     3.140280604716    -2.778702479296
H                     7.240632632247    -0.256893871265    -0.366476861737
H                     2.535745161929     2.997479366820     0.478050331119
H                    -1.168920231478    -0.409961639183     1.813687128430
H                    -1.924011644343     0.950536305659     0.960959906060
H                     4.806156515299    -4.872642779265     2.280873260910
H                     5.608541855467    -4.530560711768     0.678022012152
H                     3.517302190226    -3.344076580657    -0.130619197499
H                     2.695918097002    -3.705011374759     1.460856402846
H                     4.476256239486    -2.410212436946     2.665190385078
H                    -0.955958350611     3.200602859070     0.885350547606
H                    -0.355790270845     2.594270716775     2.430410448439
H                     0.560034110627     3.824785868507     1.549567395270
H                     5.825399232036    -2.200937825841    -0.104499153258
H                     6.438991135317    -1.479743827600     1.403547749205
H                     0.886748908969    -2.233482668806    -1.071136792116
H                     3.963340480455     3.691331238970    -2.747169481367
