40
0 1 C17H20N2O
C                     2.546729653131    -3.640988959886     0.556709321963
C                     2.301273746187    -2.957002575517    -0.634634582146
C                     2.653879370369    -2.917275083269     1.748736579063
C                     2.173549290908    -1.563081697505    -0.645886249630
C                     0.299688416417     1.730379162329     4.102785993987
C                     1.597135568663     1.280180205697     4.052951471020
C                     0.231606217485    -0.126059314517     3.023058417323
C                     2.525727974917    -1.524683149153     1.766387702975
C                     2.292192017481    -0.840608254604     0.548658975516
C                     3.690288765157    -0.897362536907     3.868440146706
C                     2.639142383022    -0.776313916729     3.043600124122
C                     2.643286496761     3.619870127129    -0.218620240486
C                     1.654288316114     2.708748554111    -0.111405402700
C                     4.046009983668     3.293795670255    -0.684841349530
C                     2.476473985809     5.077960129103     0.147434829972
C                     0.279321311638     2.975160677655     0.458493730032
C                     1.850326829319     1.274290114085    -0.533162084403
N                    -0.546664861158     0.843165254761     3.459545233527
N                     1.551037730026     0.079899826735     3.359002886443
O                     2.227897436185     0.514988038155     0.635864130687
H                     2.640334296480    -4.722927428353     0.563245115607
H                     2.207014918095    -3.504889941867    -1.568713746433
H                     2.816811250207    -3.433551080545     2.690810150475
H                     1.997329390303    -1.051201691737    -1.584687521465
H                    -0.072165287955     2.643841757117     4.548946846950
H                     2.530876027785     1.705272222566     4.388809631338
H                    -0.086565940850    -1.000845357706     2.471981795176
H                     3.723225977148    -0.400868670753     4.833248927956
H                     4.544014867720    -1.497676558456     3.574850931567
H                     4.247703115210     3.741289213688    -1.667039190262
H                     4.257597421981     2.225817372865    -0.741401079831
H                     4.773417411380     3.730680411846     0.010411095944
H                     2.981211961937     5.297604951921     1.097647866565
H                     1.435604304482     5.389522329609     0.237776894729
H                     2.950410006450     5.712323444428    -0.611545104040
H                    -0.487437326283     2.942436036149    -0.327471087828
H                     0.020807840602     2.201570621241     1.188676226538
H                     0.199015611275     3.935937340231     0.967283171553
H                     0.908343974757     0.869437204612    -0.924868395719
H                     2.615969665341     1.157147747783    -1.304985207527
