33
1 1 C13H17N2S
C                     0.095890635981     0.522468704168    -2.135031143215
C                    -0.206072655055    -0.097538562608    -0.915861286291
C                    -0.179776040254    -0.129327036711    -3.336020799560
C                    -0.785852695792    -1.363870343580    -0.922014124972
C                    -0.764067025665    -1.405624928510    -3.358791638901
C                    -1.067744797946    -2.020126582668    -2.131367183710
C                    -3.964416445894    -4.045229785955    -1.125797903379
C                    -1.005005225051    -2.099421760938    -4.685050807484
C                    -1.998558526085    -3.259186824497    -4.587158130070
C                    -1.647635653683    -4.157227634294    -3.398383137897
C                    -4.575272370702    -6.079623271979    -0.049036952367
C                    -5.939760089458    -5.422820630962    -0.271338964463
C                    -1.737562922884    -3.379747712623    -2.078006821781
N                    -3.641386244969    -5.325487124523    -0.902745099948
N                    -3.168957326316    -3.157166744760    -1.692039225645
S                    -5.571803383651    -3.635983382690    -0.562910633276
H                     0.548166417369     1.510152720839    -2.146258309795
H                     0.013899432117     0.399867546847     0.024112599909
H                     0.061928021433     0.356570579685    -4.278478087951
H                    -1.016817502872    -1.855049508378     0.021841212567
H                    -1.344141410642    -1.369353275662    -5.426248048254
H                    -0.043668904657    -2.481606184528    -5.053126583455
H                    -3.020440662330    -2.875687099200    -4.472752625967
H                    -1.986313254303    -3.843059844580    -5.511651688404
H                    -2.300346696507    -5.037029076207    -3.371190615495
H                    -0.619515941611    -4.523669273995    -3.499385720985
H                    -4.260738014642    -6.008956857306     0.997423099891
H                    -4.585925041334    -7.128220501654    -0.352059227545
H                    -6.450154001574    -5.817311769099    -1.151219671831
H                    -6.585411484950    -5.507716800750     0.602311586143
H                    -1.291166792441    -3.959673372345    -1.261197973554
H                    -2.709765791463    -5.675850905327    -1.097029655288
H                    -3.535739597388    -2.223037118134    -1.848027993556
