
  -OEChem-05262117483D

 42 45  0     0  0  0  0  0  0999 V2000
    6.3502    1.4802   -1.4517 C   0  0  0  0  0  0  0  0  0  0  0  0
    5.3574    2.3818   -1.8267 C   0  0  0  0  0  0  0  0  0  0  0  0
    6.0538    0.3709   -0.6554 C   0  0  0  0  0  0  0  0  0  0  0  0
    1.6098   -0.2922   -0.4138 C   0  0  0  0  0  0  0  0  0  0  0  0
    3.7095    1.0766   -0.5814 C   0  0  0  0  0  0  0  0  0  0  0  0
   -0.2788    0.5840    0.7579 C   0  0  0  0  0  0  0  0  0  0  0  0
    0.2874   -0.4581    0.0183 C   0  0  0  0  0  0  0  0  0  0  0  0
    4.0406    2.1742   -1.3903 C   0  0  0  0  0  0  0  0  0  0  0  0
    4.7336    0.1724   -0.2264 C   0  0  0  0  0  0  0  0  0  0  0  0
    2.3135    0.8773   -0.1033 C   0  0  0  0  0  0  0  0  0  0  0  0
    0.5204    1.6979    1.0369 C   0  0  0  0  0  0  0  0  0  0  0  0
   -1.0871    2.4986    2.7085 C   0  0  0  0  0  0  0  0  0  0  0  0
   -1.6917    0.6580    1.2573 C   0  0  0  0  0  0  0  0  0  0  0  0
    5.2095   -4.2365    1.9303 C   0  0  0  0  0  0  0  0  0  0  0  0
    3.9120   -3.9841    1.1919 C   0  0  0  0  0  0  0  0  0  0  0  0
    4.6373   -2.8370    1.8560 C   0  0  0  0  0  0  0  0  0  0  0  0
   -0.4947   -1.7034   -0.3210 C   0  0  0  0  0  0  0  0  0  0  0  0
    5.3313   -1.8109    1.0058 C   0  0  0  0  0  0  0  0  0  0  0  0
    1.7754    1.8666    0.6344 N   0  0  0  0  0  0  0  0  0  0  0  0
   -0.0543    2.7196    1.8079 N   0  0  0  0  0  0  0  0  0  0  0  0
   -1.3600    3.2634    3.6099 O   0  0  0  0  0  0  0  0  0  0  0  0
   -1.7788    1.3388    2.5332 O   0  0  0  0  0  0  0  0  0  0  0  0
    3.0243    3.0141   -1.7647 O   0  0  0  0  0  0  0  0  0  0  0  0
    4.3426   -0.8764    0.5558 O   0  0  0  0  0  0  0  0  0  0  0  0
    7.3719    1.6387   -1.7863 H   0  0  0  0  0  0  0  0  0  0  0  0
    5.5956    3.2368   -2.4566 H   0  0  0  0  0  0  0  0  0  0  0  0
    6.8431   -0.3154   -0.3755 H   0  0  0  0  0  0  0  0  0  0  0  0
    2.0990   -1.0691   -0.9914 H   0  0  0  0  0  0  0  0  0  0  0  0
   -2.3338    1.1943    0.5447 H   0  0  0  0  0  0  0  0  0  0  0  0
   -2.1264   -0.3259    1.4360 H   0  0  0  0  0  0  0  0  0  0  0  0
    5.1693   -4.7512    2.8854 H   0  0  0  0  0  0  0  0  0  0  0  0
    6.0948   -4.4581    1.3401 H   0  0  0  0  0  0  0  0  0  0  0  0
    3.9290   -4.0266    0.1062 H   0  0  0  0  0  0  0  0  0  0  0  0
    2.9868   -4.3307    1.6421 H   0  0  0  0  0  0  0  0  0  0  0  0
    4.1920   -2.4401    2.7646 H   0  0  0  0  0  0  0  0  0  0  0  0
   -0.8329   -2.2174    0.5859 H   0  0  0  0  0  0  0  0  0  0  0  0
   -1.3860   -1.4684   -0.9132 H   0  0  0  0  0  0  0  0  0  0  0  0
    0.1152   -2.4040   -0.8959 H   0  0  0  0  0  0  0  0  0  0  0  0
    5.8119   -2.2906    0.1421 H   0  0  0  0  0  0  0  0  0  0  0  0
    6.1029   -1.2815    1.5804 H   0  0  0  0  0  0  0  0  0  0  0  0
    0.5462    3.5057    2.0330 H   0  0  0  0  0  0  0  0  0  0  0  0
    3.3945    3.7213   -2.3159 H   0  0  0  0  0  0  0  0  0  0  0  0
  1  2  1  0  0  0  0
  1  3  2  0  0  0  0
  1 25  1  0  0  0  0
  2  8  2  0  0  0  0
  2 26  1  0  0  0  0
  3  9  1  0  0  0  0
  3 27  1  0  0  0  0
  4  7  2  0  0  0  0
  4 10  1  0  0  0  0
  4 28  1  0  0  0  0
  5  8  1  0  0  0  0
  5  9  2  0  0  0  0
  5 10  1  0  0  0  0
  6  7  1  0  0  0  0
  6 11  2  0  0  0  0
  6 13  1  0  0  0  0
  7 17  1  0  0  0  0
  8 23  1  0  0  0  0
  9 24  1  0  0  0  0
 10 19  2  0  0  0  0
 11 19  1  0  0  0  0
 11 20  1  0  0  0  0
 12 20  1  0  0  0  0
 12 21  2  0  0  0  0
 12 22  1  0  0  0  0
 13 22  1  0  0  0  0
 13 29  1  0  0  0  0
 13 30  1  0  0  0  0
 14 15  1  0  0  0  0
 14 16  1  0  0  0  0
 14 31  1  0  0  0  0
 14 32  1  0  0  0  0
 15 16  1  0  0  0  0
 15 33  1  0  0  0  0
 15 34  1  0  0  0  0
 16 18  1  0  0  0  0
 16 35  1  0  0  0  0
 17 36  1  0  0  0  0
 17 37  1  0  0  0  0
 17 38  1  0  0  0  0
 18 24  1  0  0  0  0
 18 39  1  0  0  0  0
 18 40  1  0  0  0  0
 20 41  1  0  0  0  0
 23 42  1  0  0  0  0
M  END
$$$$
