31
0 1 C13H16O2
C                     1.736389895761    -0.808646522591    -0.179229908206
C                     0.663221015530    -0.179285101389     1.873793626652
C                     0.679443022300    -0.168651417635     0.475612231790
C                     2.758767071994    -1.452924115834     0.527125812879
C                     1.666027869111    -0.812581108613     2.618002568389
C                     2.721346951138    -1.455716583975     1.937925803461
C                     3.522926105701    -3.647959049267     2.849199636638
C                    -0.794093614828     1.929694335531    -0.058439378338
C                    -0.121474840670     1.524407532495    -1.355005884453
C                    -0.425617616841     0.481808203704    -0.301016947555
C                     3.885063328011    -2.112776611496    -0.239185114663
C                     1.595249221243    -0.775330425008     4.129506548527
C                     3.821301083114    -2.166254281428     2.718530458352
O                     3.944537110209    -4.526056350059     2.121781667716
O                     2.683763568528    -3.915681309749     3.888517447585
H                     1.764577207817    -0.800815874646    -1.266658939491
H                    -0.149111268667     0.322960291324     2.394654965626
H                    -0.197497354231     2.482480030731     0.661561764511
H                    -1.844102588758     2.206463134434    -0.085754812730
H                    -0.713079023382     1.524919823661    -2.265955363750
H                     0.917805314027     1.810585409127    -1.488647763346
H                    -1.261369802686    -0.178647067134    -0.528196915179
H                     4.845347898115    -1.621466819303    -0.037659435958
H                     4.001902735068    -3.166373216410     0.027485686577
H                     3.705794424736    -2.048933973997    -1.315399901876
H                     1.586943049366    -1.780057572726     4.560775291135
H                     2.452053759313    -0.242250082609     4.559820740115
H                     0.691334692578    -0.256583979799     4.458672331663
H                     3.924715417798    -1.740111408580     3.717524140329
H                     4.780119133830    -2.080576807947     2.206344000769
H                     2.516238155330    -4.877801415677     3.860966370580
