
  -OEChem-05262117483D

 42 45  0     0  0  0  0  0  0999 V2000
    6.8282    1.4396   -1.6272 C   0  0  0  0  0  0  0  0  0  0  0  0
    5.8776    2.3497   -2.0851 C   0  0  0  0  0  0  0  0  0  0  0  0
    6.4818    0.4251   -0.7311 C   0  0  0  0  0  0  0  0  0  0  0  0
    2.0421    2.0498    0.2904 C   0  0  0  0  0  0  0  0  0  0  0  0
    4.1627    1.2107   -0.7697 C   0  0  0  0  0  0  0  0  0  0  0  0
    0.1508    0.5972    0.4403 C   0  0  0  0  0  0  0  0  0  0  0  0
    0.7185    1.8459    0.7060 C   0  0  0  0  0  0  0  0  0  0  0  0
    4.5497    2.2296   -1.6509 C   0  0  0  0  0  0  0  0  0  0  0  0
    5.1525    0.3210   -0.2977 C   0  0  0  0  0  0  0  0  0  0  0  0
    2.7425    1.0297   -0.3619 C   0  0  0  0  0  0  0  0  0  0  0  0
    0.9275   -0.3419   -0.2477 C   0  0  0  0  0  0  0  0  0  0  0  0
   -1.0440   -1.7395   -0.6706 C   0  0  0  0  0  0  0  0  0  0  0  0
   -1.2128    0.1306    0.8578 C   0  0  0  0  0  0  0  0  0  0  0  0
    4.8809   -4.2142    1.4207 C   0  0  0  0  0  0  0  0  0  0  0  0
    3.6275   -3.5177    0.9359 C   0  0  0  0  0  0  0  0  0  0  0  0
    4.6979   -2.7274    1.6493 C   0  0  0  0  0  0  0  0  0  0  0  0
   -0.0473    2.9245    1.4323 C   0  0  0  0  0  0  0  0  0  0  0  0
    5.5289   -1.7584    0.8553 C   0  0  0  0  0  0  0  0  0  0  0  0
    2.1795   -0.1606   -0.6491 N   0  0  0  0  0  0  0  0  0  0  0  0
    0.3287   -1.5789   -0.5335 N   0  0  0  0  0  0  0  0  0  0  0  0
   -1.5488   -2.6790   -1.2488 O   0  0  0  0  0  0  0  0  0  0  0  0
   -1.8067   -0.7534   -0.1248 O   0  0  0  0  0  0  0  0  0  0  0  0
    3.5730    3.0923   -2.0915 O   0  0  0  0  0  0  0  0  0  0  0  0
    4.7270   -0.5941    0.6146 O   0  0  0  0  0  0  0  0  0  0  0  0
    7.8578    1.5267   -1.9638 H   0  0  0  0  0  0  0  0  0  0  0  0
    6.1571    3.1403   -2.7787 H   0  0  0  0  0  0  0  0  0  0  0  0
    7.2406   -0.2569   -0.3665 H   0  0  0  0  0  0  0  0  0  0  0  0
    2.5357    2.9975    0.4781 H   0  0  0  0  0  0  0  0  0  0  0  0
   -1.1689   -0.4100    1.8137 H   0  0  0  0  0  0  0  0  0  0  0  0
   -1.9240    0.9505    0.9610 H   0  0  0  0  0  0  0  0  0  0  0  0
    4.8062   -4.8726    2.2809 H   0  0  0  0  0  0  0  0  0  0  0  0
    5.6085   -4.5306    0.6780 H   0  0  0  0  0  0  0  0  0  0  0  0
    3.5173   -3.3441   -0.1306 H   0  0  0  0  0  0  0  0  0  0  0  0
    2.6959   -3.7050    1.4609 H   0  0  0  0  0  0  0  0  0  0  0  0
    4.4763   -2.4102    2.6652 H   0  0  0  0  0  0  0  0  0  0  0  0
   -0.9560    3.2006    0.8854 H   0  0  0  0  0  0  0  0  0  0  0  0
   -0.3558    2.5943    2.4304 H   0  0  0  0  0  0  0  0  0  0  0  0
    0.5600    3.8248    1.5496 H   0  0  0  0  0  0  0  0  0  0  0  0
    5.8254   -2.2009   -0.1045 H   0  0  0  0  0  0  0  0  0  0  0  0
    6.4390   -1.4797    1.4035 H   0  0  0  0  0  0  0  0  0  0  0  0
    0.8867   -2.2335   -1.0711 H   0  0  0  0  0  0  0  0  0  0  0  0
    3.9633    3.6913   -2.7472 H   0  0  0  0  0  0  0  0  0  0  0  0
  1  2  1  0  0  0  0
  1  3  2  0  0  0  0
  1 25  1  0  0  0  0
  2  8  2  0  0  0  0
  2 26  1  0  0  0  0
  3  9  1  0  0  0  0
  3 27  1  0  0  0  0
  4  7  2  0  0  0  0
  4 10  1  0  0  0  0
  4 28  1  0  0  0  0
  5  8  1  0  0  0  0
  5  9  2  0  0  0  0
  5 10  1  0  0  0  0
  6  7  1  0  0  0  0
  6 11  2  0  0  0  0
  6 13  1  0  0  0  0
  7 17  1  0  0  0  0
  8 23  1  0  0  0  0
  9 24  1  0  0  0  0
 10 19  2  0  0  0  0
 11 19  1  0  0  0  0
 11 20  1  0  0  0  0
 12 20  1  0  0  0  0
 12 21  2  0  0  0  0
 12 22  1  0  0  0  0
 13 22  1  0  0  0  0
 13 29  1  0  0  0  0
 13 30  1  0  0  0  0
 14 15  1  0  0  0  0
 14 16  1  0  0  0  0
 14 31  1  0  0  0  0
 14 32  1  0  0  0  0
 15 16  1  0  0  0  0
 15 33  1  0  0  0  0
 15 34  1  0  0  0  0
 16 18  1  0  0  0  0
 16 35  1  0  0  0  0
 17 36  1  0  0  0  0
 17 37  1  0  0  0  0
 17 38  1  0  0  0  0
 18 24  1  0  0  0  0
 18 39  1  0  0  0  0
 18 40  1  0  0  0  0
 20 41  1  0  0  0  0
 23 42  1  0  0  0  0
M  END
$$$$
