42
0 1 C18H18N2O4
C                     7.000243115544     1.823987123618    -1.173029715861
C                     5.872796714027     2.061055688192    -1.962493834445
C                     6.868539676275     1.287784122374     0.107173207414
C                     2.589739160649     1.627546927868     1.474466761328
C                     4.442713579972     1.230636185144    -0.165319855503
C                     0.599697450722     0.308896671394     1.349454778471
C                     1.324789839265     1.315160269268     1.993819468992
C                     4.601780735763     1.765608992251    -1.456336033526
C                     5.595190158806     0.989726788874     0.603087603355
C                     3.082146641005     0.939353843970     0.361607177249
C                     1.173644609196    -0.299488244553     0.226964306744
C                    -0.962484031679    -1.348582990767    -0.365130444409
C                    -0.733700212598    -0.234815206300     1.773139041081
C                     5.304729566339    -2.187213800094    -0.188281510853
C                     5.079118476851    -3.192670651435     0.917421200165
C                     5.759642422980    -1.872298076602     1.221472079421
C                     0.782386585062     2.024844186918     3.209783427496
C                     5.019115416898    -0.857133654544     2.050139561394
N                     2.376406755192    -0.021608072964    -0.266415240398
N                     0.425647658231    -1.295719944289    -0.414824968253
O                    -1.631090023298    -1.966221554512    -1.165711713631
O                    -1.540579717230    -0.636026498130     0.639610610086
O                     3.460963349076     2.018309610381    -2.174987404063
O                     5.515709244627     0.494290710922     1.888073092674
H                     7.987125418157     2.054907093513    -1.565064471596
H                     5.976836647302     2.480827018711    -2.961449833713
H                     7.731807272580     1.082734350992     0.731860316354
H                     3.205979341865     2.388266288538     1.941844657046
H                    -0.612851441486    -1.109233100904     2.427648487364
H                    -1.339003094635     0.504165395803     2.298756518989
H                     6.072961698204    -2.396859644888    -0.926517994546
H                     4.439601901555    -1.654460833176    -0.570559688769
H                     4.061001574046    -3.330510858273     1.273034371273
H                     5.686088865071    -4.092766118755     0.938795419135
H                     6.830816426837    -1.912340487500     1.406260443881
H                    -0.155398650653     2.542947221432     2.979427370004
H                     0.574115489744     1.321251162464     4.023259353605
H                     1.493587405062     2.765918240525     3.580840979462
H                     5.150454671119    -1.050659565560     3.118242924526
H                     3.947621223786    -0.896530633289     1.827266016743
H                     0.833506273095    -1.695389896366    -1.253610244408
H                     3.709765545154     2.400458145172    -3.031231945641
