
  -OEChem-05262117483D

 42 45  0     0  0  0  0  0  0999 V2000
    5.4804    2.3674   -2.2316 C   0  0  0  0  0  0  0  0  0  0  0  0
    4.2310    2.5300   -2.8282 C   0  0  0  0  0  0  0  0  0  0  0  0
    5.6016    1.8130   -0.9553 C   0  0  0  0  0  0  0  0  0  0  0  0
    0.9975    0.3648   -0.5201 C   0  0  0  0  0  0  0  0  0  0  0  0
    3.1633    1.6113   -0.8321 C   0  0  0  0  0  0  0  0  0  0  0  0
   -0.2153    0.6241    1.5227 C   0  0  0  0  0  0  0  0  0  0  0  0
   -0.1154    0.0263    0.2635 C   0  0  0  0  0  0  0  0  0  0  0  0
    3.0801    2.1482   -2.1246 C   0  0  0  0  0  0  0  0  0  0  0  0
    4.4443    1.4266   -0.2651 C   0  0  0  0  0  0  0  0  0  0  0  0
    1.9504    1.2702   -0.0406 C   0  0  0  0  0  0  0  0  0  0  0  0
    0.7971    1.5095    1.9083 C   0  0  0  0  0  0  0  0  0  0  0  0
    0.0737    1.4078    4.2413 C   0  0  0  0  0  0  0  0  0  0  0  0
   -1.3251    0.4477    2.5164 C   0  0  0  0  0  0  0  0  0  0  0  0
    4.3213    1.6255    4.0076 C   0  0  0  0  0  0  0  0  0  0  0  0
    5.7686    1.4005    4.3902 C   0  0  0  0  0  0  0  0  0  0  0  0
    5.1671    0.6591    3.2135 C   0  0  0  0  0  0  0  0  0  0  0  0
   -1.1603   -0.9394   -0.2394 C   0  0  0  0  0  0  0  0  0  0  0  0
    5.5874    1.0394    1.8205 C   0  0  0  0  0  0  0  0  0  0  0  0
    1.8444    1.8523    1.1705 N   0  0  0  0  0  0  0  0  0  0  0  0
    0.6961    2.0728    3.1917 N   0  0  0  0  0  0  0  0  0  0  0  0
    0.3172    1.6341    5.4087 O   0  0  0  0  0  0  0  0  0  0  0  0
   -0.8281    0.4567    3.8793 O   0  0  0  0  0  0  0  0  0  0  0  0
    1.8253    2.3102   -2.6658 O   0  0  0  0  0  0  0  0  0  0  0  0
    4.4662    0.8193    0.9515 O   0  0  0  0  0  0  0  0  0  0  0  0
    6.3744    2.6644   -2.7734 H   0  0  0  0  0  0  0  0  0  0  0  0
    4.1459    2.9560   -3.8260 H   0  0  0  0  0  0  0  0  0  0  0  0
    6.5820    1.6636   -0.5178 H   0  0  0  0  0  0  0  0  0  0  0  0
    1.1274   -0.0718   -1.5046 H   0  0  0  0  0  0  0  0  0  0  0  0
   -2.0701    1.2501    2.4251 H   0  0  0  0  0  0  0  0  0  0  0  0
   -1.8362   -0.5097    2.4127 H   0  0  0  0  0  0  0  0  0  0  0  0
    3.5477    1.2220    4.6542 H   0  0  0  0  0  0  0  0  0  0  0  0
    4.0652    2.5627    3.5213 H   0  0  0  0  0  0  0  0  0  0  0  0
    6.4804    2.1952    4.1826 H   0  0  0  0  0  0  0  0  0  0  0  0
    5.9814    0.8346    5.2920 H   0  0  0  0  0  0  0  0  0  0  0  0
    4.9615   -0.3991    3.3533 H   0  0  0  0  0  0  0  0  0  0  0  0
   -1.2504   -1.8075    0.4234 H   0  0  0  0  0  0  0  0  0  0  0  0
   -2.1473   -0.4670   -0.2933 H   0  0  0  0  0  0  0  0  0  0  0  0
   -0.9084   -1.3041   -1.2378 H   0  0  0  0  0  0  0  0  0  0  0  0
    6.4416    0.4348    1.4869 H   0  0  0  0  0  0  0  0  0  0  0  0
    5.8763    2.0973    1.7816 H   0  0  0  0  0  0  0  0  0  0  0  0
    1.4743    2.6581    3.4768 H   0  0  0  0  0  0  0  0  0  0  0  0
    1.9150    2.7571   -3.5222 H   0  0  0  0  0  0  0  0  0  0  0  0
  1  2  1  0  0  0  0
  1  3  2  0  0  0  0
  1 25  1  0  0  0  0
  2  8  2  0  0  0  0
  2 26  1  0  0  0  0
  3  9  1  0  0  0  0
  3 27  1  0  0  0  0
  4  7  2  0  0  0  0
  4 10  1  0  0  0  0
  4 28  1  0  0  0  0
  5  8  1  0  0  0  0
  5  9  2  0  0  0  0
  5 10  1  0  0  0  0
  6  7  1  0  0  0  0
  6 11  2  0  0  0  0
  6 13  1  0  0  0  0
  7 17  1  0  0  0  0
  8 23  1  0  0  0  0
  9 24  1  0  0  0  0
 10 19  2  0  0  0  0
 11 19  1  0  0  0  0
 11 20  1  0  0  0  0
 12 20  1  0  0  0  0
 12 21  2  0  0  0  0
 12 22  1  0  0  0  0
 13 22  1  0  0  0  0
 13 29  1  0  0  0  0
 13 30  1  0  0  0  0
 14 15  1  0  0  0  0
 14 16  1  0  0  0  0
 14 31  1  0  0  0  0
 14 32  1  0  0  0  0
 15 16  1  0  0  0  0
 15 33  1  0  0  0  0
 15 34  1  0  0  0  0
 16 18  1  0  0  0  0
 16 35  1  0  0  0  0
 17 36  1  0  0  0  0
 17 37  1  0  0  0  0
 17 38  1  0  0  0  0
 18 24  1  0  0  0  0
 18 39  1  0  0  0  0
 18 40  1  0  0  0  0
 20 41  1  0  0  0  0
 23 42  1  0  0  0  0
M  END
$$$$
