29
0 1 C11H14N2OS
C                     1.237973475883     2.282981465875    -0.241135942326
C                     1.761164829741     1.826598983577     0.974914028642
C                     0.396259965882     1.460567535590    -0.995368765167
C                     1.456461893034     0.538549320079     1.431579329700
C                     0.077161133582     0.170236906643    -0.552504395179
C                     0.631085215965    -0.277575005676     0.663182761310
C                    -0.855322910672    -1.881192809957    -0.960969219579
C                     0.083245454397    -2.488444297112     0.068526205070
C                     4.661715097930    -2.115333585194    -0.390726809591
C                     1.405287070028    -2.917800185815    -0.590665014873
C                     2.385630530936    -3.512874299916     0.422118633623
N                    -0.823877084105    -0.631481003477    -1.275027130937
N                    -1.668675152192    -2.761386091720    -1.643363135093
O                     0.305992139395    -1.538947052074     1.123607940535
S                     4.051818724867    -3.832931879610    -0.263900182826
H                     1.478367887475     3.281179492874    -0.596666715251
H                     2.408205638210     2.467604938716     1.567523907351
H                    -0.036844518929     1.803027615536    -1.931142926394
H                     1.850185803593     0.159876140743     2.370929120173
H                    -0.385104021263    -3.344730744233     0.564951214685
H                     5.707059094284    -2.172193618271    -0.703456475566
H                     4.608774331196    -1.613545433342     0.579577487576
H                     4.106080688343    -1.535471495531    -1.131588335046
H                     1.844232173673    -2.040851855750    -1.075507436035
H                     1.189634180167    -3.642713135657    -1.381869009917
H                     2.484508060057    -2.859107485055     1.292913108987
H                     2.027328335248    -4.483349574239     0.781686155523
H                    -2.366604773968    -2.314302771752    -2.229515861183
H                    -2.003691243398    -3.569931345668    -1.134221478512
