40
0 1 C17H20N2O
C                     2.302595419188    -3.194963952005     0.746894293827
C                     1.379684296511    -2.926929778600    -0.264892368929
C                     2.643865035622    -2.178205695814     1.645086850480
C                     0.807331263217    -1.655709950690    -0.393440456786
C                    -0.537407980087     1.130719367857     4.249544561943
C                     0.217333371470     0.143697769926     3.660084494161
C                     1.226593096626     2.109366159625     3.509566169750
C                     2.082136531317    -0.901720761037     1.543111676722
C                     1.159764153374    -0.637295819630     0.501843651958
C                     3.711014038238     0.528581822807     2.762831279975
C                     2.445614365881     0.160404476562     2.513426425138
C                    -0.321481611444     3.423770816754    -1.005522310562
C                    -0.766650786314     2.381701083224    -0.273709461404
C                     0.724079167646     3.315881875995    -2.094639745239
C                    -0.803805720595     4.842684580964    -0.799660246870
C                    -1.727279009390     2.487216870572     0.890376106534
C                    -0.317451048551     0.968005572531    -0.537201389304
N                     0.097850676619     2.355708824696     4.142207695892
N                     1.361978566802     0.775973227149     3.197091879405
O                     0.699907601521     0.640020611297     0.433540135241
H                     2.742920765169    -4.182826565985     0.845378797741
H                     1.097682395378    -3.707781273491    -0.966592854590
H                     3.340432317128    -2.373407082422     2.455967416377
H                     0.105179272976    -1.465765283490    -1.196783189655
H                    -1.497342494175     1.032299571732     4.740065017533
H                     0.069642636691    -0.919238071908     3.538157392188
H                     1.964430204986     2.840529623677     3.207823206938
H                     3.953714392444     1.249077831015     3.538007264614
H                     4.523806399686     0.115914701633     2.175333052034
H                     0.278829721885     3.480954288234    -3.084618919891
H                     1.253400822527     2.362749352856    -2.110160639830
H                     1.476681685461     4.102122982568    -1.958079649824
H                    -0.037404234956     5.441169739614    -0.289563806431
H                    -1.725145393336     4.909592059406    -0.220638945709
H                    -0.981943216534     5.323376866350    -1.769314576836
H                    -2.734236289795     2.152880613329     0.604607252135
H                    -1.391075963118     1.840588047730     1.706232419906
H                    -1.805405722045     3.494744752179     1.298625465849
H                    -1.162870243680     0.279684612960    -0.404900202041
H                     0.082035326660     0.823988645245    -1.544303590179
