44
0 1 C19H20O4S
C                     1.332847139101     0.017115305527     0.920781554829
C                     1.232684349662    -1.722268516138    -2.384981685591
C                     1.476720003182     0.024619033083    -4.038324123900
C                     1.527990538470    -0.755729283075     2.060777192810
C                     2.329994680543    -2.393929251999    -2.921930630907
C                     2.575520613507    -0.637185327428    -4.589173744899
C                    -0.787751817549    -1.452206043527     1.904410296031
C                     0.105447004894     0.046122180789     0.236471197588
C                     0.785770292317    -0.511496664505    -2.942162266319
C                    -0.986793448468    -0.690760492970     0.749356650640
C                     0.450232649344    -1.505924171584     2.556743982586
C                     2.984174766930    -1.848473825356    -4.029090897050
C                     0.105818725426     0.862092960484    -1.015629986877
C                    -2.409364086501    -0.646427941882     0.210287980172
C                    -2.634368934702    -0.032433467038    -1.175462486376
C                    -1.667380520146    -0.603147257502    -2.221480374032
C                    -0.386558358991     0.242946712656    -2.338058700929
C                     1.738833572618    -2.372112376292     4.377611379001
C                     3.618471226005    -3.775420212424    -5.993927182044
O                     0.628184113035     1.969140062081    -1.043352453797
O                     5.224682967014    -1.737710113525    -5.447904831980
O                     4.950412530140    -3.603309171772    -3.707780813107
O                     0.505958676826    -2.303806324816     3.662048461294
S                     4.386393683366    -2.719002182793    -4.740735368639
H                     2.155491404350     0.602817241426     0.522369806239
H                     0.736668224695    -2.134374577175    -1.511420195510
H                     1.160398658017     0.976638230872    -4.455778997054
H                     2.500111030034    -0.768903366697     2.539736142367
H                     2.695363196488    -3.315466350174    -2.478580719661
H                     3.125833140804    -0.213043384740    -5.423726841643
H                    -1.611847425384    -2.016249856882     2.334450077485
H                    -2.788492294736    -1.675542083768     0.194832745888
H                    -3.028342156519    -0.114200733690     0.943628018884
H                    -3.671669379244    -0.232920656634    -1.463593677803
H                    -2.539048196118     1.059761635837    -1.134052559855
H                    -1.427921476900    -1.639647818940    -1.963886824659
H                    -2.132729000094    -0.636328060347    -3.211958875009
H                    -0.597395577482     1.106927655717    -2.973994429292
H                     1.559189239280    -3.048927684483     5.213551692636
H                     2.030585140516    -1.387634189248     4.761954972613
H                     2.542201499615    -2.774740555979     3.749414856760
H                     4.432653598399    -4.332849490566    -6.462144770868
H                     2.919381282652    -4.454525339200    -5.504096450738
H                     3.113268865124    -3.144843011873    -6.726726322271
