69
-1 1 C29H32N3O5
C                     2.687875338957    -7.063605265428    -4.408546576019
C                     4.476380601422    -6.548870184563    -5.928035946101
C                    -3.144613475966   -16.866553666489    -5.749200465421
C                    -1.929852427222   -16.693330655180    -6.389403584646
C                     3.290865039236    -6.279746816288    -3.424266968015
C                     5.102155449994    -5.773435040676    -4.951490215405
C                    -2.692080281616   -15.003306282349    -4.282388988002
C                    -1.454883971260   -14.815363518995    -4.924157344623
C                     3.270669266163    -7.211807016055    -5.674775029848
C                    -3.547274967359   -16.023554774459    -4.682008102024
C                    -1.064313888084   -15.655634253790    -5.978912948173
C                     4.505999845844    -5.638706940890    -3.688472327339
C                    -0.543355270463   -13.744688460455    -4.525680602488
C                     2.638746838932    -7.998338222867    -6.792162460521
C                     3.663472429542   -10.439380820446    -5.597978351195
C                     8.681501858385    -3.292849538444     0.717194979601
C                     8.548378329736    -2.256397084507    -0.408045065162
C                     7.373570784827    -4.073577412248     0.910525640102
C                     1.172989921734    -9.910200852763    -7.672751699132
C                     8.074756100598    -2.903723013657    -1.717604956757
C                     6.905260224859    -4.718690073589    -0.400809540492
C                     1.221095104160   -11.396712285375    -7.251017793216
C                     1.639769392112    -9.097543193374    -6.433752053385
C                     2.140908047731   -10.141125802215    -5.409972885633
C                     6.762980850944    -3.682609096762    -1.527065049863
C                     1.235895624523   -11.356252882835    -5.714015853691
C                    -4.878276119386   -16.248907551384    -4.003942739674
C                     1.646397670057   -12.664051635632    -5.035949062563
C                     6.329903777513    -4.328189423755    -2.838627718448
N                     0.150693323315   -15.509962996833    -6.639259986396
N                     0.949549877004   -14.575943380857    -6.290944200774
N                     0.634491561421   -13.720294846280    -5.284306807994
O                     4.249267892221    -9.717823505007    -6.459747100677
O                    -0.755821460453   -12.935680340493    -3.622466640949
O                     2.765136709286    -7.591009965280    -7.948388365727
O                     4.147760828623   -11.346817647877    -4.874889506948
O                     5.038210337328    -4.897638337808    -2.653642971034
H                     1.750105846263    -7.559146062258    -4.177062661970
H                     4.929345091074    -6.673101567533    -6.906109400820
H                    -3.809819599258   -17.666575674775    -6.069339480197
H                    -1.616570263196   -17.335670348561    -7.207393503490
H                     2.840328726841    -6.163354130048    -2.442110387230
H                     6.047988730235    -5.293458192296    -5.178713400932
H                    -2.954601111125   -14.328605111198    -3.472418458738
H                     8.976680166228    -2.801073493503     1.652640204275
H                     9.486530354052    -3.997066992007     0.463889559545
H                     7.823779732324    -1.487429332819    -0.105187290011
H                     9.504045802218    -1.741578795818    -0.566915748038
H                     7.500520006076    -4.841592877795     1.683070756737
H                     6.595085267703    -3.388446322320     1.275130288743
H                     1.829038162428    -9.700952208383    -8.518705098655
H                     0.160214660697    -9.614453573582    -7.968240073070
H                     7.948223056058    -2.136724870130    -2.492286801009
H                     8.851931205612    -3.591540863286    -2.081299552890
H                     7.635642771518    -5.479668905721    -0.712162853585
H                     5.953420852069    -5.238699712426    -0.259247746750
H                     0.385999531982   -11.980036575149    -7.655371873792
H                     2.146975905843   -11.862291084413    -7.604747336876
H                     0.769334000528    -8.577170830018    -6.003974050605
H                     2.000486826674    -9.820026473680    -4.372725792738
H                     5.977958873412    -2.968318844955    -1.239288782883
H                     0.225694979952   -11.108475004501    -5.359695018000
H                    -4.907326164924   -17.226062015793    -3.507136156248
H                    -5.074984110555   -15.482896323356    -3.249380414060
H                    -5.700328399381   -16.229163134721    -4.728685691338
H                     1.725522257470   -12.535105341924    -3.956949104563
H                     2.597100592453   -13.031150174756    -5.412460103192
H                     7.047498979130    -5.108172485926    -3.131970426967
H                     6.299338337779    -3.576998115726    -3.641845237406
