
  -OEChem-05262117483D

 44 46  0     1  0  0  0  0  0999 V2000
    0.1230   -0.7961    1.9318 C   0  0  0  0  0  0  0  0  0  0  0  0
    2.6047   -2.4883   -2.0751 C   0  0  0  0  0  0  0  0  0  0  0  0
    3.6010   -0.4475   -2.8936 C   0  0  0  0  0  0  0  0  0  0  0  0
   -1.0022   -0.7490    2.7510 C   0  0  0  0  0  0  0  0  0  0  0  0
    3.6634   -3.2270   -2.5975 C   0  0  0  0  0  0  0  0  0  0  0  0
    4.6720   -1.1710   -3.4240 C   0  0  0  0  0  0  0  0  0  0  0  0
   -2.1064    0.5941    1.0570 C   0  0  0  0  0  0  0  0  0  0  0  0
    0.1534   -0.1835    0.6694 C   0  0  0  0  0  0  0  0  0  0  0  0
    2.5616   -1.0915   -2.2132 C   0  0  0  0  0  0  0  0  0  0  0  0
   -0.9868    0.5369    0.2310 C   0  0  0  0  0  0  0  0  0  0  0  0
   -2.1328   -0.0476    2.3060 C   0  0  0  0  0  0  0  0  0  0  0  0
    4.6941   -2.5558   -3.2620 C   0  0  0  0  0  0  0  0  0  0  0  0
    1.4178   -0.3463   -0.1108 C   0  0  0  0  0  0  0  0  0  0  0  0
   -1.0027    1.2811   -1.0836 C   0  0  0  0  0  0  0  0  0  0  0  0
   -1.0069    0.3571   -2.3161 C   0  0  0  0  0  0  0  0  0  0  0  0
    0.0412   -0.7632   -2.2515 C   0  0  0  0  0  0  0  0  0  0  0  0
    1.3940   -0.3020   -1.6575 C   0  0  2  0  0  0  0  0  0  0  0  0
   -3.3671   -0.5330    4.2977 C   0  0  0  0  0  0  0  0  0  0  0  0
    7.2353   -3.5153   -2.5063 C   0  0  0  0  0  0  0  0  0  0  0  0
    2.4750   -0.5770    0.4667 O   0  0  0  0  0  0  0  0  0  0  0  0
    5.6419   -4.8797   -4.1297 O   0  0  0  0  0  0  0  0  0  0  0  0
    6.7137   -2.7093   -4.9792 O   0  0  0  0  0  0  0  0  0  0  0  0
   -3.2928    0.0774    3.0096 O   0  0  0  0  0  0  0  0  0  0  0  0
    6.0851   -3.4940   -3.9035 S   0  0  0  0  0  0  0  0  0  0  0  0
    1.0113   -1.3252    2.2623 H   0  0  0  0  0  0  0  0  0  0  0  0
    1.8043   -3.0045   -1.5515 H   0  0  0  0  0  0  0  0  0  0  0  0
    3.5772    0.6330   -3.0122 H   0  0  0  0  0  0  0  0  0  0  0  0
   -0.9872   -1.2492    3.7125 H   0  0  0  0  0  0  0  0  0  0  0  0
    3.6914   -4.3091   -2.5107 H   0  0  0  0  0  0  0  0  0  0  0  0
    5.4699   -0.6769   -3.9702 H   0  0  0  0  0  0  0  0  0  0  0  0
   -2.9872    1.1533    0.7535 H   0  0  0  0  0  0  0  0  0  0  0  0
   -1.8791    1.9343   -1.1224 H   0  0  0  0  0  0  0  0  0  0  0  0
   -0.1319    1.9445   -1.1301 H   0  0  0  0  0  0  0  0  0  0  0  0
   -2.0002   -0.0891   -2.4363 H   0  0  0  0  0  0  0  0  0  0  0  0
   -0.8282    0.9750   -3.2043 H   0  0  0  0  0  0  0  0  0  0  0  0
   -0.3428   -1.6004   -1.6595 H   0  0  0  0  0  0  0  0  0  0  0  0
    0.2101   -1.1520   -3.2598 H   0  0  0  0  0  0  0  0  0  0  0  0
    1.5515    0.7491   -1.9318 H   0  0  0  0  0  0  0  0  0  0  0  0
   -4.3640   -0.3055    4.6764 H   0  0  0  0  0  0  0  0  0  0  0  0
   -2.6146   -0.1173    4.9780 H   0  0  0  0  0  0  0  0  0  0  0  0
   -3.2422   -1.6201    4.2301 H   0  0  0  0  0  0  0  0  0  0  0  0
    8.1090   -4.0801   -2.8387 H   0  0  0  0  0  0  0  0  0  0  0  0
    7.5103   -2.4890   -2.2598 H   0  0  0  0  0  0  0  0  0  0  0  0
    6.7550   -4.0100   -1.6610 H   0  0  0  0  0  0  0  0  0  0  0  0
  1  4  1  0  0  0  0
  1  8  2  0  0  0  0
  1 25  1  0  0  0  0
  2  5  2  0  0  0  0
  2  9  1  0  0  0  0
  2 26  1  0  0  0  0
  3  6  1  0  0  0  0
  3  9  2  0  0  0  0
  3 27  1  0  0  0  0
  4 11  2  0  0  0  0
  4 28  1  0  0  0  0
  5 12  1  0  0  0  0
  5 29  1  0  0  0  0
  6 12  2  0  0  0  0
  6 30  1  0  0  0  0
  7 10  2  0  0  0  0
  7 11  1  0  0  0  0
  7 31  1  0  0  0  0
  8 10  1  0  0  0  0
  8 13  1  0  0  0  0
  9 17  1  0  0  0  0
 10 14  1  0  0  0  0
 11 23  1  0  0  0  0
 12 24  1  0  0  0  0
 13 17  1  0  0  0  0
 13 20  2  0  0  0  0
 14 15  1  0  0  0  0
 14 32  1  0  0  0  0
 14 33  1  0  0  0  0
 15 16  1  0  0  0  0
 15 34  1  0  0  0  0
 15 35  1  0  0  0  0
 16 17  1  0  0  0  0
 16 36  1  0  0  0  0
 16 37  1  0  0  0  0
 17 38  1  0  0  0  0
 18 23  1  0  0  0  0
 18 39  1  0  0  0  0
 18 40  1  0  0  0  0
 18 41  1  0  0  0  0
 19 24  1  0  0  0  0
 19 42  1  0  0  0  0
 19 43  1  0  0  0  0
 19 44  1  0  0  0  0
 21 24  2  0  0  0  0
 22 24  2  0  0  0  0
M  END
$$$$
