
  -OEChem-05262117483D

 73 76  0     1  0  0  0  0  0999 V2000
   -7.4256    2.9803   -3.8060 C   0  0  0  0  0  0  0  0  0  0  0  0
   -6.0733    3.2611   -3.5803 C   0  0  0  0  0  0  0  0  0  0  0  0
   -8.4004    3.6754   -3.0829 C   0  0  0  0  0  0  0  0  0  0  0  0
    3.5781   -9.0456    4.3212 C   0  0  0  0  0  0  0  0  0  0  0  0
    4.2831   -9.5725    3.2359 C   0  0  0  0  0  0  0  0  0  0  0  0
   -5.7020    4.2184   -2.6355 C   0  0  0  0  0  0  0  0  0  0  0  0
   -8.0249    4.6398   -2.1438 C   0  0  0  0  0  0  0  0  0  0  0  0
   -4.8417    6.6078    2.3641 C   0  0  0  0  0  0  0  0  0  0  0  0
   -4.1655    7.8862    0.4436 C   0  0  0  0  0  0  0  0  0  0  0  0
   -3.5157    4.0693    0.6245 C   0  0  0  0  0  0  0  0  0  0  0  0
   -5.7550    3.2115    0.4750 C   0  0  0  0  0  0  0  0  0  0  0  0
   -4.3121    7.5769    3.2117 C   0  0  0  0  0  0  0  0  0  0  0  0
   -3.6198    8.8640    1.2800 C   0  0  0  0  0  0  0  0  0  0  0  0
   -3.0294    2.7888    0.9085 C   0  0  0  0  0  0  0  0  0  0  0  0
   -5.2919    1.9352    0.7673 C   0  0  0  0  0  0  0  0  0  0  0  0
    3.1358   -7.7254    4.2530 C   0  0  0  0  0  0  0  0  0  0  0  0
    4.5119   -8.7457    2.1329 C   0  0  0  0  0  0  0  0  0  0  0  0
   -4.7977    6.7478    0.9643 C   0  0  0  0  0  0  0  0  0  0  0  0
   -4.8753    4.3079    0.3831 C   0  0  0  0  0  0  0  0  0  0  0  0
   -6.6702    4.9166   -1.8926 C   0  0  0  0  0  0  0  0  0  0  0  0
   -3.6985    8.7137    2.6689 C   0  0  0  0  0  0  0  0  0  0  0  0
   -3.9219    1.7107    0.9791 C   0  0  0  0  0  0  0  0  0  0  0  0
    3.4116   -6.9751    3.0990 C   0  0  0  0  0  0  0  0  0  0  0  0
   -5.3596    5.6853    0.0826 C   0  0  0  0  0  0  0  0  0  0  0  0
   -6.2610    5.9518   -0.9003 C   0  0  0  0  0  0  0  0  0  0  0  0
   -6.5365    7.9889   -2.4164 C   0  0  0  0  0  0  0  0  0  0  0  0
    2.9358   -5.5555    2.9648 C   0  0  0  0  0  0  0  0  0  0  0  0
   -6.9134    7.3075   -1.0897 C   0  0  0  0  0  0  0  0  0  0  0  0
   -0.6051   -1.7635    2.0579 C   0  0  0  0  0  0  0  0  0  0  0  0
   -2.0556   -1.3515    1.7827 C   0  0  0  0  0  0  0  0  0  0  0  0
   -0.4710   -3.2618    2.3591 C   0  0  0  0  0  0  0  0  0  0  0  0
   -2.1824    0.1364    1.4905 C   0  0  0  0  0  0  0  0  0  0  0  0
    0.9767   -3.6664    2.6274 C   0  0  0  0  0  0  0  0  0  0  0  0
    4.0899   -7.4764    2.0549 N   0  0  0  0  0  0  0  0  0  0  0  0
    0.6601   -6.1189    1.5592 O   0  0  0  0  0  0  0  0  0  0  0  0
   -3.1846    9.6384    3.5475 O   0  0  0  0  0  0  0  0  0  0  0  0
   -3.5632    0.4188    1.2570 O   0  0  0  0  0  0  0  0  0  0  0  0
    1.0742   -5.4939    2.8777 S   0  0  1  0  0  0  0  0  0  0  0  0
   -7.7162    2.2316   -4.5385 H   0  0  0  0  0  0  0  0  0  0  0  0
   -5.3065    2.7323   -4.1412 H   0  0  0  0  0  0  0  0  0  0  0  0
   -9.4543    3.4657   -3.2485 H   0  0  0  0  0  0  0  0  0  0  0  0
    3.3765   -9.6512    5.2010 H   0  0  0  0  0  0  0  0  0  0  0  0
    4.6474  -10.5958    3.2394 H   0  0  0  0  0  0  0  0  0  0  0  0
   -4.6511    4.4272   -2.4590 H   0  0  0  0  0  0  0  0  0  0  0  0
   -8.7948    5.1636   -1.5831 H   0  0  0  0  0  0  0  0  0  0  0  0
   -5.3037    5.7223    2.7921 H   0  0  0  0  0  0  0  0  0  0  0  0
   -4.0846    8.0044   -0.6327 H   0  0  0  0  0  0  0  0  0  0  0  0
   -2.8156    4.8996    0.5852 H   0  0  0  0  0  0  0  0  0  0  0  0
   -6.8171    3.3654    0.3153 H   0  0  0  0  0  0  0  0  0  0  0  0
   -4.3608    7.4695    4.2915 H   0  0  0  0  0  0  0  0  0  0  0  0
   -3.1283    9.7355    0.8495 H   0  0  0  0  0  0  0  0  0  0  0  0
   -1.9671    2.6510    1.0756 H   0  0  0  0  0  0  0  0  0  0  0  0
   -5.9746    1.0935    0.8403 H   0  0  0  0  0  0  0  0  0  0  0  0
    2.5787   -7.2811    5.0739 H   0  0  0  0  0  0  0  0  0  0  0  0
    5.0588   -9.1190    1.2685 H   0  0  0  0  0  0  0  0  0  0  0  0
   -6.8018    7.3609   -3.2722 H   0  0  0  0  0  0  0  0  0  0  0  0
   -5.4599    8.1827   -2.4694 H   0  0  0  0  0  0  0  0  0  0  0  0
   -7.0582    8.9463   -2.5218 H   0  0  0  0  0  0  0  0  0  0  0  0
    3.2207   -4.9439    3.8275 H   0  0  0  0  0  0  0  0  0  0  0  0
    3.3237   -5.1221    2.0406 H   0  0  0  0  0  0  0  0  0  0  0  0
   -6.6764    7.9636   -0.2503 H   0  0  0  0  0  0  0  0  0  0  0  0
   -8.0026    7.1710   -1.0753 H   0  0  0  0  0  0  0  0  0  0  0  0
    0.0197   -1.5132    1.1903 H   0  0  0  0  0  0  0  0  0  0  0  0
   -0.2103   -1.1816    2.9020 H   0  0  0  0  0  0  0  0  0  0  0  0
   -2.4509   -1.9150    0.9300 H   0  0  0  0  0  0  0  0  0  0  0  0
   -2.6869   -1.5956    2.6449 H   0  0  0  0  0  0  0  0  0  0  0  0
   -1.0937   -3.5191    3.2252 H   0  0  0  0  0  0  0  0  0  0  0  0
   -0.8470   -3.8457    1.5123 H   0  0  0  0  0  0  0  0  0  0  0  0
   -1.5903    0.4100    0.6060 H   0  0  0  0  0  0  0  0  0  0  0  0
   -1.8186    0.7303    2.3408 H   0  0  0  0  0  0  0  0  0  0  0  0
    1.6185   -3.4293    1.7721 H   0  0  0  0  0  0  0  0  0  0  0  0
    1.3769   -3.1849    3.5272 H   0  0  0  0  0  0  0  0  0  0  0  0
   -2.7962   10.3707    3.0433 H   0  0  0  0  0  0  0  0  0  0  0  0
  1  2  1  0  0  0  0
  1  3  2  0  0  0  0
  1 39  1  0  0  0  0
  2  6  2  0  0  0  0
  2 40  1  0  0  0  0
  3  7  1  0  0  0  0
  3 41  1  0  0  0  0
  4  5  1  0  0  0  0
  4 16  2  0  0  0  0
  4 42  1  0  0  0  0
  5 17  2  0  0  0  0
  5 43  1  0  0  0  0
  6 20  1  0  0  0  0
  6 44  1  0  0  0  0
  7 20  2  0  0  0  0
  7 45  1  0  0  0  0
  8 12  2  0  0  0  0
  8 18  1  0  0  0  0
  8 46  1  0  0  0  0
  9 13  1  0  0  0  0
  9 18  2  0  0  0  0
  9 47  1  0  0  0  0
 10 14  2  0  0  0  0
 10 19  1  0  0  0  0
 10 48  1  0  0  0  0
 11 15  1  0  0  0  0
 11 19  2  0  0  0  0
 11 49  1  0  0  0  0
 12 21  1  0  0  0  0
 12 50  1  0  0  0  0
 13 21  2  0  0  0  0
 13 51  1  0  0  0  0
 14 22  1  0  0  0  0
 14 52  1  0  0  0  0
 15 22  2  0  0  0  0
 15 53  1  0  0  0  0
 16 23  1  0  0  0  0
 16 54  1  0  0  0  0
 17 34  1  0  0  0  0
 17 55  1  0  0  0  0
 18 24  1  0  0  0  0
 19 24  1  0  0  0  0
 20 25  1  0  0  0  0
 21 36  1  0  0  0  0
 22 37  1  0  0  0  0
 23 27  1  0  0  0  0
 23 34  2  0  0  0  0
 24 25  2  0  0  0  0
 25 28  1  0  0  0  0
 26 28  1  0  0  0  0
 26 56  1  0  0  0  0
 26 57  1  0  0  0  0
 26 58  1  0  0  0  0
 27 38  1  0  0  0  0
 27 59  1  0  0  0  0
 27 60  1  0  0  0  0
 28 61  1  0  0  0  0
 28 62  1  0  0  0  0
 29 30  1  0  0  0  0
 29 31  1  0  0  0  0
 29 63  1  0  0  0  0
 29 64  1  0  0  0  0
 30 32  1  0  0  0  0
 30 65  1  0  0  0  0
 30 66  1  0  0  0  0
 31 33  1  0  0  0  0
 31 67  1  0  0  0  0
 31 68  1  0  0  0  0
 32 37  1  0  0  0  0
 32 69  1  0  0  0  0
 32 70  1  0  0  0  0
 33 38  1  0  0  0  0
 33 71  1  0  0  0  0
 33 72  1  0  0  0  0
 35 38  2  0  0  0  0
 36 73  1  0  0  0  0
M  END
$$$$
