
  -OEChem-05262117483D

 70 74  0     1  0  0  0  0  0999 V2000
    2.9441   -7.2450   -4.6675 C   0  0  0  0  0  0  0  0  0  0  0  0
    4.6499   -6.4232   -6.1660 C   0  0  0  0  0  0  0  0  0  0  0  0
   -3.6737  -16.0765   -5.0578 C   0  0  0  0  0  0  0  0  0  0  0  0
   -2.7014  -16.0432   -6.0428 C   0  0  0  0  0  0  0  0  0  0  0  0
    3.5153   -6.5328   -3.6214 C   0  0  0  0  0  0  0  0  0  0  0  0
    5.2409   -5.7124   -5.1249 C   0  0  0  0  0  0  0  0  0  0  0  0
   -2.5012  -14.4023   -3.7710 C   0  0  0  0  0  0  0  0  0  0  0  0
   -1.5066  -14.3586   -4.7623 C   0  0  0  0  0  0  0  0  0  0  0  0
    3.5024   -7.2073   -5.9625 C   0  0  0  0  0  0  0  0  0  0  0  0
   -3.5908  -15.2573   -3.9035 C   0  0  0  0  0  0  0  0  0  0  0  0
   -1.5979  -15.1765   -5.9023 C   0  0  0  0  0  0  0  0  0  0  0  0
    4.6737   -5.7642   -3.8384 C   0  0  0  0  0  0  0  0  0  0  0  0
   -0.3562  -13.4678   -4.6525 C   0  0  0  0  0  0  0  0  0  0  0  0
    2.9445   -7.9611   -7.1260 C   0  0  0  0  0  0  0  0  0  0  0  0
    3.8638  -10.7414   -6.5617 C   0  0  0  0  0  0  0  0  0  0  0  0
    8.6282   -3.2885    0.6992 C   0  0  0  0  0  0  0  0  0  0  0  0
    8.3075   -2.1833   -0.3166 C   0  0  0  0  0  0  0  0  0  0  0  0
    7.4583   -4.2722    0.8388 C   0  0  0  0  0  0  0  0  0  0  0  0
    1.3597   -9.7462   -8.1117 C   0  0  0  0  0  0  0  0  0  0  0  0
    7.8955   -2.7680   -1.6754 C   0  0  0  0  0  0  0  0  0  0  0  0
    7.0485   -4.8558   -0.5203 C   0  0  0  0  0  0  0  0  0  0  0  0
    0.9177  -11.1673   -7.6734 C   0  0  0  0  0  0  0  0  0  0  0  0
    1.9461   -9.0822   -6.8522 C   0  0  1  0  0  0  0  0  0  0  0  0
    2.5089  -10.2831   -6.0220 C   0  0  1  0  0  0  0  0  0  0  0  0
    6.7198   -3.7503   -1.5368 C   0  0  0  0  0  0  0  0  0  0  0  0
    1.3785  -11.3163   -6.2035 C   0  0  2  0  0  0  0  0  0  0  0  0
   -4.6717  -15.3264   -2.8524 C   0  0  0  0  0  0  0  0  0  0  0  0
    1.7277  -12.7427   -5.7712 C   0  0  0  0  0  0  0  0  0  0  0  0
    6.3543   -4.3218   -2.8997 C   0  0  0  0  0  0  0  0  0  0  0  0
   -0.6358  -15.1715   -6.9100 N   0  0  0  0  0  0  0  0  0  0  0  0
    0.3771  -14.4100   -6.8178 N   0  0  0  0  0  0  0  0  0  0  0  0
    0.5276  -13.5893   -5.7312 N   0  0  0  0  0  0  0  0  0  0  0  0
   -0.1391  -12.6759   -3.7337 O   0  0  0  0  0  0  0  0  0  0  0  0
    3.3134   -7.7102   -8.2675 O   0  0  0  0  0  0  0  0  0  0  0  0
    4.0199  -11.6271   -7.3721 O   0  0  0  0  0  0  0  0  0  0  0  0
    4.9483  -10.0771   -6.0715 O   0  0  0  0  0  0  0  0  0  0  0  0
    5.1646   -5.1159   -2.7537 O   0  0  0  0  0  0  0  0  0  0  0  0
    2.0440   -7.8183   -4.4693 H   0  0  0  0  0  0  0  0  0  0  0  0
    5.0792   -6.3938   -7.1628 H   0  0  0  0  0  0  0  0  0  0  0  0
   -4.5235  -16.7468   -5.1679 H   0  0  0  0  0  0  0  0  0  0  0  0
   -2.7609  -16.6700   -6.9275 H   0  0  0  0  0  0  0  0  0  0  0  0
    3.0840   -6.5516   -2.6250 H   0  0  0  0  0  0  0  0  0  0  0  0
    6.1330   -5.1284   -5.3181 H   0  0  0  0  0  0  0  0  0  0  0  0
   -2.3939  -13.7550   -2.9055 H   0  0  0  0  0  0  0  0  0  0  0  0
    8.8727   -2.8473    1.6724 H   0  0  0  0  0  0  0  0  0  0  0  0
    9.5223   -3.8350    0.3683 H   0  0  0  0  0  0  0  0  0  0  0  0
    7.4882   -1.5623    0.0706 H   0  0  0  0  0  0  0  0  0  0  0  0
    9.1706   -1.5197   -0.4434 H   0  0  0  0  0  0  0  0  0  0  0  0
    7.7227   -5.0824    1.5280 H   0  0  0  0  0  0  0  0  0  0  0  0
    6.5983   -3.7521    1.2829 H   0  0  0  0  0  0  0  0  0  0  0  0
    2.1312   -9.7963   -8.8815 H   0  0  0  0  0  0  0  0  0  0  0  0
    0.5400   -9.1493   -8.5195 H   0  0  0  0  0  0  0  0  0  0  0  0
    7.6319   -1.9591   -2.3683 H   0  0  0  0  0  0  0  0  0  0  0  0
    8.7545   -3.2937   -2.1167 H   0  0  0  0  0  0  0  0  0  0  0  0
    7.8737   -5.4657   -0.9165 H   0  0  0  0  0  0  0  0  0  0  0  0
    6.1888   -5.5236   -0.4074 H   0  0  0  0  0  0  0  0  0  0  0  0
   -0.1634  -11.3087   -7.7563 H   0  0  0  0  0  0  0  0  0  0  0  0
    1.3936  -11.9259   -8.2978 H   0  0  0  0  0  0  0  0  0  0  0  0
    1.1307   -8.6644   -6.2488 H   0  0  0  0  0  0  0  0  0  0  0  0
    2.6278  -10.0193   -4.9665 H   0  0  0  0  0  0  0  0  0  0  0  0
    5.8466   -3.1921   -1.1708 H   0  0  0  0  0  0  0  0  0  0  0  0
    0.5757  -10.9729   -5.5426 H   0  0  0  0  0  0  0  0  0  0  0  0
   -4.7566  -16.3394   -2.4436 H   0  0  0  0  0  0  0  0  0  0  0  0
   -4.4688  -14.6433   -2.0241 H   0  0  0  0  0  0  0  0  0  0  0  0
   -5.6479  -15.0652   -3.2762 H   0  0  0  0  0  0  0  0  0  0  0  0
    2.1576  -12.7437   -4.7665 H   0  0  0  0  0  0  0  0  0  0  0  0
    2.4214  -13.2080   -6.4680 H   0  0  0  0  0  0  0  0  0  0  0  0
    7.1688   -4.9514   -3.2825 H   0  0  0  0  0  0  0  0  0  0  0  0
    6.1662   -3.5171   -3.6224 H   0  0  0  0  0  0  0  0  0  0  0  0
    4.6685   -9.3441   -5.4932 H   0  0  0  0  0  0  0  0  0  0  0  0
  1  5  1  0  0  0  0
  1  9  2  0  0  0  0
  1 38  1  0  0  0  0
  2  6  2  0  0  0  0
  2  9  1  0  0  0  0
  2 39  1  0  0  0  0
  3  4  2  0  0  0  0
  3 10  1  0  0  0  0
  3 40  1  0  0  0  0
  4 11  1  0  0  0  0
  4 41  1  0  0  0  0
  5 12  2  0  0  0  0
  5 42  1  0  0  0  0
  6 12  1  0  0  0  0
  6 43  1  0  0  0  0
  7  8  1  0  0  0  0
  7 10  2  0  0  0  0
  7 44  1  0  0  0  0
  8 11  2  0  0  0  0
  8 13  1  0  0  0  0
  9 14  1  0  0  0  0
 10 27  1  0  0  0  0
 11 30  1  0  0  0  0
 12 37  1  0  0  0  0
 13 32  1  0  0  0  0
 13 33  2  0  0  0  0
 14 23  1  0  0  0  0
 14 34  2  0  0  0  0
 15 24  1  0  0  0  0
 15 35  2  0  0  0  0
 15 36  1  0  0  0  0
 16 17  1  0  0  0  0
 16 18  1  0  0  0  0
 16 45  1  0  0  0  0
 16 46  1  0  0  0  0
 17 20  1  0  0  0  0
 17 47  1  0  0  0  0
 17 48  1  0  0  0  0
 18 21  1  0  0  0  0
 18 49  1  0  0  0  0
 18 50  1  0  0  0  0
 19 22  1  0  0  0  0
 19 23  1  0  0  0  0
 19 51  1  0  0  0  0
 19 52  1  0  0  0  0
 20 25  1  0  0  0  0
 20 53  1  0  0  0  0
 20 54  1  0  0  0  0
 21 25  1  0  0  0  0
 21 55  1  0  0  0  0
 21 56  1  0  0  0  0
 22 26  1  0  0  0  0
 22 57  1  0  0  0  0
 22 58  1  0  0  0  0
 23 24  1  0  0  0  0
 23 59  1  0  0  0  0
 24 26  1  0  0  0  0
 24 60  1  0  0  0  0
 25 29  1  0  0  0  0
 25 61  1  0  0  0  0
 26 28  1  0  0  0  0
 26 62  1  0  0  0  0
 27 63  1  0  0  0  0
 27 64  1  0  0  0  0
 27 65  1  0  0  0  0
 28 32  1  0  0  0  0
 28 66  1  0  0  0  0
 28 67  1  0  0  0  0
 29 37  1  0  0  0  0
 29 68  1  0  0  0  0
 29 69  1  0  0  0  0
 30 31  2  0  0  0  0
 31 32  1  0  0  0  0
 36 70  1  0  0  0  0
M  END
$$$$
