
  -OEChem-05262117483D

 69 73  0     1  0  0  0  0  0999 V2000
    2.0933   -6.1132   -4.9305 C   0  0  0  0  0  0  0  0  0  0  0  0
    4.1064   -6.0635   -6.2540 C   0  0  0  0  0  0  0  0  0  0  0  0
    4.1384   -9.3189    0.5097 C   0  0  0  0  0  0  0  0  0  0  0  0
    2.8777   -9.3815   -0.0631 C   0  0  0  0  0  0  0  0  0  0  0  0
    2.7612   -5.4986   -3.8737 C   0  0  0  0  0  0  0  0  0  0  0  0
    4.7950   -5.4721   -5.1947 C   0  0  0  0  0  0  0  0  0  0  0  0
    5.0386  -10.7439   -1.2172 C   0  0  0  0  0  0  0  0  0  0  0  0
    3.7687  -10.8157   -1.8049 C   0  0  0  0  0  0  0  0  0  0  0  0
    2.7600   -6.4181   -6.1255 C   0  0  0  0  0  0  0  0  0  0  0  0
    5.2419   -9.9966   -0.0604 C   0  0  0  0  0  0  0  0  0  0  0  0
    2.6823  -10.1293   -1.2420 C   0  0  0  0  0  0  0  0  0  0  0  0
    4.1267   -5.2176   -3.9897 C   0  0  0  0  0  0  0  0  0  0  0  0
    3.5335  -11.5897   -3.0214 C   0  0  0  0  0  0  0  0  0  0  0  0
    2.1141   -7.2261   -7.2150 C   0  0  0  0  0  0  0  0  0  0  0  0
    3.5090   -9.2662   -5.6803 C   0  0  0  0  0  0  0  0  0  0  0  0
    7.6926   -5.9926    1.2524 C   0  0  0  0  0  0  0  0  0  0  0  0
    8.4013   -4.8965    0.4437 C   0  0  0  0  0  0  0  0  0  0  0  0
    6.1714   -5.9375    1.0507 C   0  0  0  0  0  0  0  0  0  0  0  0
    1.0244   -9.4666   -7.8784 C   0  0  0  0  0  0  0  0  0  0  0  0
    8.0198   -4.9597   -1.0424 C   0  0  0  0  0  0  0  0  0  0  0  0
    5.7962   -6.0006   -0.4355 C   0  0  0  0  0  0  0  0  0  0  0  0
    1.3323  -10.8521   -7.2621 C   0  0  0  0  0  0  0  0  0  0  0  0
    1.3070   -8.4356   -6.7553 C   0  0  1  0  0  0  0  0  0  0  0  0
    1.9520   -9.2176   -5.5829 C   0  0  1  0  0  0  0  0  0  0  0  0
    6.4967   -4.8935   -1.2405 C   0  0  0  0  0  0  0  0  0  0  0  0
    1.3139  -10.6166   -5.7403 C   0  0  2  0  0  0  0  0  0  0  0  0
    6.6026   -9.9221    0.5925 C   0  0  0  0  0  0  0  0  0  0  0  0
    1.9911  -11.7433   -4.9568 C   0  0  0  0  0  0  0  0  0  0  0  0
    6.1454   -4.9688   -2.7224 C   0  0  0  0  0  0  0  0  0  0  0  0
    1.4096  -10.1443   -1.8111 N   0  0  0  0  0  0  0  0  0  0  0  0
    1.2357  -10.7228   -2.9369 N   0  0  0  0  0  0  0  0  0  0  0  0
    2.2465  -11.3748   -3.5521 N   0  0  0  0  0  0  0  0  0  0  0  0
    3.9894   -9.1171   -6.8402 O   0  5  0  0  0  0  0  0  0  0  0  0
    4.3122  -12.3963   -3.5187 O   0  0  0  0  0  0  0  0  0  0  0  0
    2.1943   -6.8843   -8.3904 O   0  0  0  0  0  0  0  0  0  0  0  0
    4.1212   -9.4545   -4.5931 O   0  0  0  0  0  0  0  0  0  0  0  0
    4.7461   -4.7112   -2.8674 O   0  0  0  0  0  0  0  0  0  0  0  0
    1.0492   -6.3871   -4.8040 H   0  0  0  0  0  0  0  0  0  0  0  0
    4.6289   -6.3379   -7.1637 H   0  0  0  0  0  0  0  0  0  0  0  0
    4.2876   -8.7289    1.4119 H   0  0  0  0  0  0  0  0  0  0  0  0
    2.0308   -8.8503    0.3621 H   0  0  0  0  0  0  0  0  0  0  0  0
    2.2602   -5.2941   -2.9316 H   0  0  0  0  0  0  0  0  0  0  0  0
    5.8543   -5.2600   -5.2970 H   0  0  0  0  0  0  0  0  0  0  0  0
    5.8550  -11.2700   -1.7036 H   0  0  0  0  0  0  0  0  0  0  0  0
    7.9427   -5.9012    2.3171 H   0  0  0  0  0  0  0  0  0  0  0  0
    8.0647   -6.9729    0.9244 H   0  0  0  0  0  0  0  0  0  0  0  0
    8.1194   -3.9128    0.8454 H   0  0  0  0  0  0  0  0  0  0  0  0
    9.4891   -4.9827    0.5582 H   0  0  0  0  0  0  0  0  0  0  0  0
    5.6862   -6.7559    1.5956 H   0  0  0  0  0  0  0  0  0  0  0  0
    5.7849   -5.0038    1.4841 H   0  0  0  0  0  0  0  0  0  0  0  0
    1.6599   -9.2585   -8.7401 H   0  0  0  0  0  0  0  0  0  0  0  0
   -0.0171   -9.4011   -8.2136 H   0  0  0  0  0  0  0  0  0  0  0  0
    8.5079   -4.1439   -1.5911 H   0  0  0  0  0  0  0  0  0  0  0  0
    8.3975   -5.8982   -1.4729 H   0  0  0  0  0  0  0  0  0  0  0  0
    6.0841   -6.9782   -0.8458 H   0  0  0  0  0  0  0  0  0  0  0  0
    4.7132   -5.9227   -0.5654 H   0  0  0  0  0  0  0  0  0  0  0  0
    0.6205  -11.6262   -7.5752 H   0  0  0  0  0  0  0  0  0  0  0  0
    2.3356  -11.1668   -7.5638 H   0  0  0  0  0  0  0  0  0  0  0  0
    0.3485   -8.0274   -6.3953 H   0  0  0  0  0  0  0  0  0  0  0  0
    1.6888   -8.7896   -4.6145 H   0  0  0  0  0  0  0  0  0  0  0  0
    6.1450   -3.9200   -0.8677 H   0  0  0  0  0  0  0  0  0  0  0  0
    0.2707  -10.5437   -5.4068 H   0  0  0  0  0  0  0  0  0  0  0  0
    6.6942  -10.6600    1.4000 H   0  0  0  0  0  0  0  0  0  0  0  0
    7.3995  -10.1225   -0.1293 H   0  0  0  0  0  0  0  0  0  0  0  0
    6.7814   -8.9362    1.0315 H   0  0  0  0  0  0  0  0  0  0  0  0
    2.9720  -11.9712   -5.3731 H   0  0  0  0  0  0  0  0  0  0  0  0
    1.3873  -12.6583   -4.9871 H   0  0  0  0  0  0  0  0  0  0  0  0
    6.3814   -5.9648   -3.1178 H   0  0  0  0  0  0  0  0  0  0  0  0
    6.7242   -4.2267   -3.2924 H   0  0  0  0  0  0  0  0  0  0  0  0
  1  5  1  0  0  0  0
  1  9  2  0  0  0  0
  1 38  1  0  0  0  0
  2  6  2  0  0  0  0
  2  9  1  0  0  0  0
  2 39  1  0  0  0  0
  3  4  2  0  0  0  0
  3 10  1  0  0  0  0
  3 40  1  0  0  0  0
  4 11  1  0  0  0  0
  4 41  1  0  0  0  0
  5 12  2  0  0  0  0
  5 42  1  0  0  0  0
  6 12  1  0  0  0  0
  6 43  1  0  0  0  0
  7  8  1  0  0  0  0
  7 10  2  0  0  0  0
  7 44  1  0  0  0  0
  8 11  2  0  0  0  0
  8 13  1  0  0  0  0
  9 14  1  0  0  0  0
 10 27  1  0  0  0  0
 11 30  1  0  0  0  0
 12 37  1  0  0  0  0
 13 32  1  0  0  0  0
 13 34  2  0  0  0  0
 14 23  1  0  0  0  0
 14 35  2  0  0  0  0
 15 24  1  0  0  0  0
 15 33  1  0  0  0  0
 15 36  2  0  0  0  0
 16 17  1  0  0  0  0
 16 18  1  0  0  0  0
 16 45  1  0  0  0  0
 16 46  1  0  0  0  0
 17 20  1  0  0  0  0
 17 47  1  0  0  0  0
 17 48  1  0  0  0  0
 18 21  1  0  0  0  0
 18 49  1  0  0  0  0
 18 50  1  0  0  0  0
 19 22  1  0  0  0  0
 19 23  1  0  0  0  0
 19 51  1  0  0  0  0
 19 52  1  0  0  0  0
 20 25  1  0  0  0  0
 20 53  1  0  0  0  0
 20 54  1  0  0  0  0
 21 25  1  0  0  0  0
 21 55  1  0  0  0  0
 21 56  1  0  0  0  0
 22 26  1  0  0  0  0
 22 57  1  0  0  0  0
 22 58  1  0  0  0  0
 23 24  1  0  0  0  0
 23 59  1  0  0  0  0
 24 26  1  0  0  0  0
 24 60  1  0  0  0  0
 25 29  1  0  0  0  0
 25 61  1  0  0  0  0
 26 28  1  0  0  0  0
 26 62  1  0  0  0  0
 27 63  1  0  0  0  0
 27 64  1  0  0  0  0
 27 65  1  0  0  0  0
 28 32  1  0  0  0  0
 28 66  1  0  0  0  0
 28 67  1  0  0  0  0
 29 37  1  0  0  0  0
 29 68  1  0  0  0  0
 29 69  1  0  0  0  0
 30 31  2  0  0  0  0
 31 32  1  0  0  0  0
M  CHG  1  33  -1
M  END
$$$$
