
  -OEChem-05262117483D

 69 73  0     1  0  0  0  0  0999 V2000
    2.6134   -6.1714   -5.4408 C   0  0  0  0  0  0  0  0  0  0  0  0
    4.5677   -5.9471   -6.8209 C   0  0  0  0  0  0  0  0  0  0  0  0
   -2.1467  -16.8216   -5.3365 C   0  0  0  0  0  0  0  0  0  0  0  0
   -2.2685  -15.5945   -4.7073 C   0  0  0  0  0  0  0  0  0  0  0  0
    3.0509   -5.1138   -4.6293 C   0  0  0  0  0  0  0  0  0  0  0  0
    5.0229   -4.9080   -6.0222 C   0  0  0  0  0  0  0  0  0  0  0  0
    0.1045  -16.2951   -6.0310 C   0  0  0  0  0  0  0  0  0  0  0  0
   -0.0051  -15.0455   -5.3961 C   0  0  0  0  0  0  0  0  0  0  0  0
    3.3577   -6.6054   -6.5383 C   0  0  0  0  0  0  0  0  0  0  0  0
   -0.9560  -17.1940   -6.0102 C   0  0  0  0  0  0  0  0  0  0  0  0
   -1.1882  -14.6857   -4.7320 C   0  0  0  0  0  0  0  0  0  0  0  0
    4.2656   -4.4861   -4.9164 C   0  0  0  0  0  0  0  0  0  0  0  0
    1.0994  -14.0853   -5.4137 C   0  0  0  0  0  0  0  0  0  0  0  0
    2.9072   -7.6992   -7.4691 C   0  0  0  0  0  0  0  0  0  0  0  0
    3.7409   -9.6139   -5.4669 C   0  0  0  0  0  0  0  0  0  0  0  0
    5.2647    0.7470   -1.1283 C   0  0  0  0  0  0  0  0  0  0  0  0
    5.1190   -0.4979   -0.2411 C   0  0  0  0  0  0  0  0  0  0  0  0
    5.8753    0.3896   -2.4910 C   0  0  0  0  0  0  0  0  0  0  0  0
    1.5805   -9.8326   -7.9952 C   0  0  0  0  0  0  0  0  0  0  0  0
    4.3231   -1.6044   -0.9484 C   0  0  0  0  0  0  0  0  0  0  0  0
    5.0760   -0.7169   -3.1929 C   0  0  0  0  0  0  0  0  0  0  0  0
    1.6585  -11.1530   -7.2000 C   0  0  0  0  0  0  0  0  0  0  0  0
    1.8610   -8.6983   -6.9705 C   0  0  1  0  0  0  0  0  0  0  0  0
    2.2021   -9.4008   -5.6347 C   0  0  1  0  0  0  0  0  0  0  0  0
    4.9384   -1.9669   -2.3097 C   0  0  0  0  0  0  0  0  0  0  0  0
    1.4203  -10.7288   -5.7422 C   0  0  2  0  0  0  0  0  0  0  0  0
   -0.8607  -18.5425   -6.6845 C   0  0  0  0  0  0  0  0  0  0  0  0
    1.7699  -11.7795   -4.6871 C   0  0  0  0  0  0  0  0  0  0  0  0
    4.1236   -3.0605   -2.9912 C   0  0  0  0  0  0  0  0  0  0  0  0
   -1.3409  -13.4606   -4.0903 N   0  0  0  0  0  0  0  0  0  0  0  0
   -0.3794  -12.6194   -4.1077 N   0  0  0  0  0  0  0  0  0  0  0  0
    0.7937  -12.8972   -4.7304 N   0  0  0  0  0  0  0  0  0  0  0  0
    4.4533   -9.1678   -6.4152 O   0  5  0  0  0  0  0  0  0  0  0  0
    2.1848  -14.2739   -5.9560 O   0  0  0  0  0  0  0  0  0  0  0  0
    3.2101   -7.6225   -8.6612 O   0  0  0  0  0  0  0  0  0  0  0  0
    4.1054  -10.1947   -4.4136 O   0  0  0  0  0  0  0  0  0  0  0  0
    4.8026   -3.4519   -4.1790 O   0  0  0  0  0  0  0  0  0  0  0  0
    1.6710   -6.6510   -5.1962 H   0  0  0  0  0  0  0  0  0  0  0  0
    5.1481   -6.2917   -7.6702 H   0  0  0  0  0  0  0  0  0  0  0  0
   -2.9821  -17.5193   -5.3167 H   0  0  0  0  0  0  0  0  0  0  0  0
   -3.1787  -15.3040   -4.1906 H   0  0  0  0  0  0  0  0  0  0  0  0
    2.4428   -4.8059   -3.7857 H   0  0  0  0  0  0  0  0  0  0  0  0
    5.9707   -4.4144   -6.2212 H   0  0  0  0  0  0  0  0  0  0  0  0
    1.0376  -16.5303   -6.5350 H   0  0  0  0  0  0  0  0  0  0  0  0
    5.8755    1.5046   -0.6215 H   0  0  0  0  0  0  0  0  0  0  0  0
    4.2731    1.1950   -1.2847 H   0  0  0  0  0  0  0  0  0  0  0  0
    6.1182   -0.8800    0.0102 H   0  0  0  0  0  0  0  0  0  0  0  0
    4.6362   -0.2348    0.7082 H   0  0  0  0  0  0  0  0  0  0  0  0
    5.9270    1.2802   -3.1293 H   0  0  0  0  0  0  0  0  0  0  0  0
    6.9100    0.0492   -2.3446 H   0  0  0  0  0  0  0  0  0  0  0  0
    2.3113   -9.7919   -8.8041 H   0  0  0  0  0  0  0  0  0  0  0  0
    0.5897   -9.7039   -8.4460 H   0  0  0  0  0  0  0  0  0  0  0  0
    4.2693   -2.4955   -0.3105 H   0  0  0  0  0  0  0  0  0  0  0  0
    3.2883   -1.2636   -1.0998 H   0  0  0  0  0  0  0  0  0  0  0  0
    4.0698   -0.3417   -3.4327 H   0  0  0  0  0  0  0  0  0  0  0  0
    5.5443   -0.9899   -4.1431 H   0  0  0  0  0  0  0  0  0  0  0  0
    0.9405  -11.9036   -7.5503 H   0  0  0  0  0  0  0  0  0  0  0  0
    2.6572  -11.5918   -7.2834 H   0  0  0  0  0  0  0  0  0  0  0  0
    0.9397   -8.1112   -6.8328 H   0  0  0  0  0  0  0  0  0  0  0  0
    1.8592   -8.8387   -4.7599 H   0  0  0  0  0  0  0  0  0  0  0  0
    5.9441   -2.3746   -2.1344 H   0  0  0  0  0  0  0  0  0  0  0  0
    0.3515  -10.4955   -5.6161 H   0  0  0  0  0  0  0  0  0  0  0  0
   -1.6413  -18.6601   -7.4451 H   0  0  0  0  0  0  0  0  0  0  0  0
    0.1080  -18.6752   -7.1729 H   0  0  0  0  0  0  0  0  0  0  0  0
   -0.9879  -19.3560   -5.9605 H   0  0  0  0  0  0  0  0  0  0  0  0
    1.7274  -11.3572   -3.6839 H   0  0  0  0  0  0  0  0  0  0  0  0
    2.7614  -12.1950   -4.8419 H   0  0  0  0  0  0  0  0  0  0  0  0
    3.1170   -2.6869   -3.2347 H   0  0  0  0  0  0  0  0  0  0  0  0
    4.0109   -3.9256   -2.3223 H   0  0  0  0  0  0  0  0  0  0  0  0
  1  5  1  0  0  0  0
  1  9  2  0  0  0  0
  1 38  1  0  0  0  0
  2  6  2  0  0  0  0
  2  9  1  0  0  0  0
  2 39  1  0  0  0  0
  3  4  2  0  0  0  0
  3 10  1  0  0  0  0
  3 40  1  0  0  0  0
  4 11  1  0  0  0  0
  4 41  1  0  0  0  0
  5 12  2  0  0  0  0
  5 42  1  0  0  0  0
  6 12  1  0  0  0  0
  6 43  1  0  0  0  0
  7  8  1  0  0  0  0
  7 10  2  0  0  0  0
  7 44  1  0  0  0  0
  8 11  2  0  0  0  0
  8 13  1  0  0  0  0
  9 14  1  0  0  0  0
 10 27  1  0  0  0  0
 11 30  1  0  0  0  0
 12 37  1  0  0  0  0
 13 32  1  0  0  0  0
 13 34  2  0  0  0  0
 14 23  1  0  0  0  0
 14 35  2  0  0  0  0
 15 24  1  0  0  0  0
 15 33  1  0  0  0  0
 15 36  2  0  0  0  0
 16 17  1  0  0  0  0
 16 18  1  0  0  0  0
 16 45  1  0  0  0  0
 16 46  1  0  0  0  0
 17 20  1  0  0  0  0
 17 47  1  0  0  0  0
 17 48  1  0  0  0  0
 18 21  1  0  0  0  0
 18 49  1  0  0  0  0
 18 50  1  0  0  0  0
 19 22  1  0  0  0  0
 19 23  1  0  0  0  0
 19 51  1  0  0  0  0
 19 52  1  0  0  0  0
 20 25  1  0  0  0  0
 20 53  1  0  0  0  0
 20 54  1  0  0  0  0
 21 25  1  0  0  0  0
 21 55  1  0  0  0  0
 21 56  1  0  0  0  0
 22 26  1  0  0  0  0
 22 57  1  0  0  0  0
 22 58  1  0  0  0  0
 23 24  1  0  0  0  0
 23 59  1  0  0  0  0
 24 26  1  0  0  0  0
 24 60  1  0  0  0  0
 25 29  1  0  0  0  0
 25 61  1  0  0  0  0
 26 28  1  0  0  0  0
 26 62  1  0  0  0  0
 27 63  1  0  0  0  0
 27 64  1  0  0  0  0
 27 65  1  0  0  0  0
 28 32  1  0  0  0  0
 28 66  1  0  0  0  0
 28 67  1  0  0  0  0
 29 37  1  0  0  0  0
 29 68  1  0  0  0  0
 29 69  1  0  0  0  0
 30 31  2  0  0  0  0
 31 32  1  0  0  0  0
M  CHG  1  33  -1
M  END
$$$$
