27
0 1 C11H14OS
C                    -2.019735017991     1.572811954050     1.423240634591
C                    -1.695092202434     2.393863581107     0.336845673786
C                    -1.455235614808     0.300346040812     1.505430078822
C                    -0.820409888562     1.933035565730    -0.644413030859
C                    -0.564183870687    -0.182160883190     0.535477620999
C                    -0.247374629425     0.651783352840    -0.552969938830
C                     0.271589529872    -2.241654778929    -0.655348123369
C                     1.310648716041    -1.524343830142    -1.510689862166
C                     0.046289797670    -1.560750333218     0.705618624856
C                     1.321232154419    -1.464405541480     1.572426046277
C                     1.980739282574    -2.807495889763     1.857087713782
O                     3.019665650554    -2.584419326275     2.817489015087
S                     0.846325929697     0.211001792603    -1.889280479273
H                    -2.705588948113     1.919290817404     2.191433062289
H                    -2.125214043398     3.388304291157     0.249593543554
H                    -1.705441474605    -0.346157356448     2.344999828441
H                    -0.576374208583     2.568712505271    -1.492590615117
H                    -0.680443479443    -2.283427572847    -1.195588053508
H                     0.599404953311    -3.277005866921    -0.508484418485
H                     2.290333287820    -1.528911671949    -1.026697447774
H                     1.415174545122    -2.012776231835    -2.483032856871
H                    -0.678995751138    -2.172939975101     1.255976253927
H                     1.054888977373    -1.009219396561     2.532130103689
H                     2.050542953181    -0.790945163886     1.110020151461
H                     1.232754820192    -3.514684498734     2.250058181828
H                     2.399449538700    -3.240862592465     0.937334143894
H                     3.473689484189    -3.426187431489     2.976539025536
