34
0 1 C12H19NO2
C                    -1.322593653297    -2.415701406940     2.391295018428
C                    -1.518411827695    -3.774821755333     2.665083046772
C                     0.774261793965    -2.474479680947     3.552277141945
C                    -0.176622032952    -1.742577930017     2.824955303355
C                    -0.559167815783    -4.496914936783     3.384509317958
C                     0.599885075794    -3.826949615912     3.835438867230
C                    -1.619281788391    -8.001649030669     3.647408091122
C                    -0.373643582786     0.479356779692     4.971515138324
C                     1.260882615687    -4.925950138804     5.830901076912
C                     0.008104317231    -0.266194478249     2.563690962798
C                    -1.780166403311    -6.558140538485     3.202143489726
C                    -0.806608100224     0.635851478059     3.513665425137
N                    -0.601064860510     2.037246460287     3.102339191389
O                     1.600494394005    -4.498908151540     4.504892785952
O                    -0.646401615316    -5.830757749264     3.683492928539
H                    -2.079188241655    -1.879735381834     1.821961697844
H                    -2.414832773132    -4.263471722945     2.300276908617
H                     1.683635600492    -1.999188051170     3.911317222335
H                    -0.696297628674    -8.427889616090     3.244197573082
H                    -1.583368573727    -8.068256518550     4.738832913066
H                    -2.464614023829    -8.599319849093     3.291186593768
H                     0.682239819110     0.748542215162     5.083710491473
H                    -0.513763876638    -0.549195063781     5.314349145470
H                    -0.961648317986     1.135477284826     5.624352236452
H                     2.159922310970    -5.392692979535     6.239031879365
H                     0.442501052790    -5.651784227417     5.817734867446
H                     0.983163123466    -4.064406633601     6.452042698540
H                     1.063194799994     0.013127314940     2.653423838751
H                    -0.291372618806    -0.037078536967     1.532539954327
H                    -2.702436581260    -6.123231622887     3.610836236043
H                    -1.825178698402    -6.488999530040     2.107032461667
H                    -1.864186192138     0.327922317235     3.437512485269
H                    -1.141978581408     2.654074954266     3.707374341508
H                    -0.958933829399     2.175147580713     2.157621115077
