
  -OEChem-05262117483D

 39 41  0     1  0  0  0  0  0999 V2000
   -0.6178    2.1805   -0.0613 C   0  0  0  0  0  0  0  0  0  0  0  0
    3.3259   -2.0689   -4.6366 C   0  0  0  0  0  0  0  0  0  0  0  0
    2.2896   -1.1864   -4.9571 C   0  0  0  0  0  0  0  0  0  0  0  0
    3.7007   -2.2372   -3.2984 C   0  0  0  0  0  0  0  0  0  0  0  0
    1.6324   -0.4795   -3.9443 C   0  0  0  0  0  0  0  0  0  0  0  0
    3.0414   -1.5297   -2.2899 C   0  0  0  0  0  0  0  0  0  0  0  0
    2.6406   -2.6697    1.9646 C   0  0  0  0  0  0  0  0  0  0  0  0
    0.7497   -2.2290    2.7724 C   0  0  0  0  0  0  0  0  0  0  0  0
    1.9997   -0.6422   -2.6018 C   0  0  0  0  0  0  0  0  0  0  0  0
   -2.6512    0.8636   -0.7642 C   0  0  0  0  0  0  0  0  0  0  0  0
   -2.7633    1.1394    0.7072 C   0  0  0  0  0  0  0  0  0  0  0  0
   -1.3825    0.9608    0.0732 C   0  0  0  0  0  0  0  0  0  0  0  0
    1.2627    0.0817   -1.4964 C   0  0  0  0  0  0  0  0  0  0  0  0
    0.1805   -0.8289   -0.8882 C   0  0  0  0  0  0  0  0  0  0  0  0
    0.3719   -0.0395    1.5568 C   0  0  0  0  0  0  0  0  0  0  0  0
   -0.5641   -0.3155    0.3559 C   0  0  1  0  0  0  0  0  0  0  0  0
   -0.0189    3.1756   -0.1502 N   0  0  0  0  0  0  0  0  0  0  0  0
    1.6887   -3.1663    2.8086 N   0  0  0  0  0  0  0  0  0  0  0  0
    2.3473   -1.4948    1.4165 N   0  0  0  0  0  0  0  0  0  0  0  0
    1.1227   -1.2172    1.9523 N   0  0  0  0  0  0  0  0  0  0  0  0
   -1.5196   -1.3093    0.7610 O   0  0  0  0  0  0  0  0  0  0  0  0
    3.8405   -2.6165   -5.4221 H   0  0  0  0  0  0  0  0  0  0  0  0
    1.9968   -1.0445   -5.9945 H   0  0  0  0  0  0  0  0  0  0  0  0
    4.5102   -2.9166   -3.0427 H   0  0  0  0  0  0  0  0  0  0  0  0
    0.8317    0.2119   -4.2004 H   0  0  0  0  0  0  0  0  0  0  0  0
    3.3324   -1.6569   -1.2495 H   0  0  0  0  0  0  0  0  0  0  0  0
    3.5722   -3.1784    1.7521 H   0  0  0  0  0  0  0  0  0  0  0  0
   -0.1878   -2.2310    3.3130 H   0  0  0  0  0  0  0  0  0  0  0  0
   -2.9096   -0.1340   -1.1024 H   0  0  0  0  0  0  0  0  0  0  0  0
   -2.8470    1.6671   -1.4660 H   0  0  0  0  0  0  0  0  0  0  0  0
   -3.0250    2.1417    1.0290 H   0  0  0  0  0  0  0  0  0  0  0  0
   -3.0976    0.3298    1.3443 H   0  0  0  0  0  0  0  0  0  0  0  0
    1.9745    0.3767   -0.7215 H   0  0  0  0  0  0  0  0  0  0  0  0
    0.8112    0.9960   -1.8888 H   0  0  0  0  0  0  0  0  0  0  0  0
    0.6564   -1.7802   -0.6212 H   0  0  0  0  0  0  0  0  0  0  0  0
   -0.5716   -1.0541   -1.6526 H   0  0  0  0  0  0  0  0  0  0  0  0
   -0.2430    0.2731    2.4040 H   0  0  0  0  0  0  0  0  0  0  0  0
    1.0867    0.7533    1.3375 H   0  0  0  0  0  0  0  0  0  0  0  0
   -1.1839   -2.1779    0.4886 H   0  0  0  0  0  0  0  0  0  0  0  0
  1 12  1  0  0  0  0
  1 17  3  0  0  0  0
  2  3  1  0  0  0  0
  2  4  2  0  0  0  0
  2 22  1  0  0  0  0
  3  5  2  0  0  0  0
  3 23  1  0  0  0  0
  4  6  1  0  0  0  0
  4 24  1  0  0  0  0
  5  9  1  0  0  0  0
  5 25  1  0  0  0  0
  6  9  2  0  0  0  0
  6 26  1  0  0  0  0
  7 18  1  0  0  0  0
  7 19  2  0  0  0  0
  7 27  1  0  0  0  0
  8 18  2  0  0  0  0
  8 20  1  0  0  0  0
  8 28  1  0  0  0  0
  9 13  1  0  0  0  0
 10 11  1  0  0  0  0
 10 12  1  0  0  0  0
 10 29  1  0  0  0  0
 10 30  1  0  0  0  0
 11 12  1  0  0  0  0
 11 31  1  0  0  0  0
 11 32  1  0  0  0  0
 12 16  1  0  0  0  0
 13 14  1  0  0  0  0
 13 33  1  0  0  0  0
 13 34  1  0  0  0  0
 14 16  1  0  0  0  0
 14 35  1  0  0  0  0
 14 36  1  0  0  0  0
 15 16  1  0  0  0  0
 15 20  1  0  0  0  0
 15 37  1  0  0  0  0
 15 38  1  0  0  0  0
 16 21  1  0  0  0  0
 19 20  1  0  0  0  0
 21 39  1  0  0  0  0
M  END
$$$$
