
  -OEChem-05262117483D

 67 69  0     1  0  0  0  0  0999 V2000
   -2.4924   -0.4600   -0.5787 C   0  0  0  0  0  0  0  0  0  0  0  0
    1.2536   -6.8740   -3.6007 C   0  0  0  0  0  0  0  0  0  0  0  0
    0.7172   -6.4397   -2.3925 C   0  0  0  0  0  0  0  0  0  0  0  0
    0.9078   -1.8590   -0.0308 C   0  0  0  0  0  0  0  0  0  0  0  0
   -1.4071   -1.3954   -0.5209 C   0  0  0  0  0  0  0  0  0  0  0  0
   -0.6448   -4.8253   -3.6028 C   0  0  0  0  0  0  0  0  0  0  0  0
   -1.6087   -2.7253   -0.9544 C   0  0  0  0  0  0  0  0  0  0  0  0
    0.8904   -6.2859   -4.8204 C   0  0  0  0  0  0  0  0  0  0  0  0
   -0.1566   -0.9548   -0.0425 C   0  0  0  0  0  0  0  0  0  0  0  0
   -0.2126   -5.4034   -2.3968 C   0  0  0  0  0  0  0  0  0  0  0  0
   -0.5449   -3.6219   -0.8651 C   0  0  0  0  0  0  0  0  0  0  0  0
    0.7297   -3.1835   -0.4459 C   0  0  0  0  0  0  0  0  0  0  0  0
   -0.0682   -5.2656   -4.8121 C   0  0  0  0  0  0  0  0  0  0  0  0
   -1.6706   -3.7460   -3.5414 C   0  0  0  0  0  0  0  0  0  0  0  0
   -2.9126   -3.1329   -1.6146 C   0  0  0  0  0  0  0  0  0  0  0  0
    0.0335    0.4684    0.4202 C   0  0  0  0  0  0  0  0  0  0  0  0
    6.1311   -5.8413   -1.6459 C   0  0  0  0  0  0  0  0  0  0  0  0
    5.7624   -3.3725   -2.0339 C   0  0  0  0  0  0  0  0  0  0  0  0
    4.9248   -4.6924   -5.8213 C   0  0  0  0  0  0  0  0  0  0  0  0
    2.8034   -3.9775   -6.9954 C   0  0  0  0  0  0  0  0  0  0  0  0
   -1.7008   -5.1310   -6.5238 C   0  0  0  0  0  0  0  0  0  0  0  0
    3.8915   -4.8401   -1.0993 C   0  0  0  0  0  0  0  0  0  0  0  0
    3.0647   -6.3599   -6.1060 C   0  0  0  0  0  0  0  0  0  0  0  0
    3.0801   -3.6762   -0.5486 C   0  0  0  0  0  0  0  0  0  0  0  0
    1.5687   -6.7242   -6.0983 C   0  0  1  0  0  0  0  0  0  0  0  0
    5.4066   -4.5804   -1.1528 C   0  0  0  0  0  0  0  0  0  0  0  0
    3.4023   -4.8732   -5.9005 C   0  0  0  0  0  0  0  0  0  0  0  0
   -3.3660    0.3125   -0.6056 N   0  0  0  0  0  0  0  0  0  0  0  0
   -1.6511   -2.6898   -4.1313 O   0  0  0  0  0  0  0  0  0  0  0  0
   -0.6964   -4.9686   -1.1669 O   0  0  0  0  0  0  0  0  0  0  0  0
   -2.6591   -4.1000   -2.6496 O   0  0  0  0  0  0  0  0  0  0  0  0
    1.4049   -8.1542   -6.1934 O   0  0  0  0  0  0  0  0  0  0  0  0
   -0.4419   -4.6808   -6.0008 O   0  0  0  0  0  0  0  0  0  0  0  0
    1.7108   -4.1154   -0.4857 O   0  0  0  0  0  0  0  0  0  0  0  0
    1.9786   -7.6825   -3.6076 H   0  0  0  0  0  0  0  0  0  0  0  0
    1.0295   -6.8579   -1.4419 H   0  0  0  0  0  0  0  0  0  0  0  0
    1.8801   -1.5286    0.3178 H   0  0  0  0  0  0  0  0  0  0  0  0
   -3.5818   -3.6400   -0.9160 H   0  0  0  0  0  0  0  0  0  0  0  0
   -3.4212   -2.2561   -2.0217 H   0  0  0  0  0  0  0  0  0  0  0  0
   -0.1853    1.1761   -0.3861 H   0  0  0  0  0  0  0  0  0  0  0  0
   -0.6447    0.7079    1.2456 H   0  0  0  0  0  0  0  0  0  0  0  0
    1.0586    0.6379    0.7572 H   0  0  0  0  0  0  0  0  0  0  0  0
    5.8238   -6.0906   -2.6687 H   0  0  0  0  0  0  0  0  0  0  0  0
    5.9081   -6.7053   -1.0102 H   0  0  0  0  0  0  0  0  0  0  0  0
    7.2168   -5.6973   -1.6506 H   0  0  0  0  0  0  0  0  0  0  0  0
    5.3635   -3.4994   -3.0469 H   0  0  0  0  0  0  0  0  0  0  0  0
    6.8485   -3.2582   -2.1164 H   0  0  0  0  0  0  0  0  0  0  0  0
    5.3661   -2.4339   -1.6328 H   0  0  0  0  0  0  0  0  0  0  0  0
    5.4038   -4.9819   -6.7649 H   0  0  0  0  0  0  0  0  0  0  0  0
    5.1877   -3.6472   -5.6250 H   0  0  0  0  0  0  0  0  0  0  0  0
    5.3625   -5.3048   -5.0246 H   0  0  0  0  0  0  0  0  0  0  0  0
    3.1541   -4.2920   -7.9870 H   0  0  0  0  0  0  0  0  0  0  0  0
    1.7110   -4.0010   -6.9932 H   0  0  0  0  0  0  0  0  0  0  0  0
    3.1109   -2.9358   -6.8517 H   0  0  0  0  0  0  0  0  0  0  0  0
   -1.8590   -4.5792   -7.4516 H   0  0  0  0  0  0  0  0  0  0  0  0
   -2.5205   -4.9130   -5.8310 H   0  0  0  0  0  0  0  0  0  0  0  0
   -1.6686   -6.2085   -6.7264 H   0  0  0  0  0  0  0  0  0  0  0  0
    3.6922   -5.7196   -0.4759 H   0  0  0  0  0  0  0  0  0  0  0  0
    3.5190   -5.0758   -2.1036 H   0  0  0  0  0  0  0  0  0  0  0  0
    3.4920   -6.6892   -7.0658 H   0  0  0  0  0  0  0  0  0  0  0  0
    3.5543   -6.9556   -5.3255 H   0  0  0  0  0  0  0  0  0  0  0  0
    3.4223   -3.3902    0.4550 H   0  0  0  0  0  0  0  0  0  0  0  0
    3.1432   -2.8000   -1.2018 H   0  0  0  0  0  0  0  0  0  0  0  0
    1.0704   -6.2420   -6.9439 H   0  0  0  0  0  0  0  0  0  0  0  0
    5.7529   -4.3711   -0.1305 H   0  0  0  0  0  0  0  0  0  0  0  0
    2.9746   -4.5633   -4.9377 H   0  0  0  0  0  0  0  0  0  0  0  0
    1.9029   -8.4532   -6.9713 H   0  0  0  0  0  0  0  0  0  0  0  0
  1  5  1  0  0  0  0
  1 28  3  0  0  0  0
  2  3  1  0  0  0  0
  2  8  2  0  0  0  0
  2 35  1  0  0  0  0
  3 10  2  0  0  0  0
  3 36  1  0  0  0  0
  4  9  1  0  0  0  0
  4 12  2  0  0  0  0
  4 37  1  0  0  0  0
  5  7  1  0  0  0  0
  5  9  2  0  0  0  0
  6 10  1  0  0  0  0
  6 13  2  0  0  0  0
  6 14  1  0  0  0  0
  7 11  2  0  0  0  0
  7 15  1  0  0  0  0
  8 13  1  0  0  0  0
  8 25  1  0  0  0  0
  9 16  1  0  0  0  0
 10 30  1  0  0  0  0
 11 12  1  0  0  0  0
 11 30  1  0  0  0  0
 12 34  1  0  0  0  0
 13 33  1  0  0  0  0
 14 29  2  0  0  0  0
 14 31  1  0  0  0  0
 15 31  1  0  0  0  0
 15 38  1  0  0  0  0
 15 39  1  0  0  0  0
 16 40  1  0  0  0  0
 16 41  1  0  0  0  0
 16 42  1  0  0  0  0
 17 26  1  0  0  0  0
 17 43  1  0  0  0  0
 17 44  1  0  0  0  0
 17 45  1  0  0  0  0
 18 26  1  0  0  0  0
 18 46  1  0  0  0  0
 18 47  1  0  0  0  0
 18 48  1  0  0  0  0
 19 27  1  0  0  0  0
 19 49  1  0  0  0  0
 19 50  1  0  0  0  0
 19 51  1  0  0  0  0
 20 27  1  0  0  0  0
 20 52  1  0  0  0  0
 20 53  1  0  0  0  0
 20 54  1  0  0  0  0
 21 33  1  0  0  0  0
 21 55  1  0  0  0  0
 21 56  1  0  0  0  0
 21 57  1  0  0  0  0
 22 24  1  0  0  0  0
 22 26  1  0  0  0  0
 22 58  1  0  0  0  0
 22 59  1  0  0  0  0
 23 25  1  0  0  0  0
 23 27  1  0  0  0  0
 23 60  1  0  0  0  0
 23 61  1  0  0  0  0
 24 34  1  0  0  0  0
 24 62  1  0  0  0  0
 24 63  1  0  0  0  0
 25 32  1  0  0  0  0
 25 64  1  0  0  0  0
 26 65  1  0  0  0  0
 27 66  1  0  0  0  0
 32 67  1  0  0  0  0
M  END
$$$$
