67
0 1 C27H33NO6
C                     0.141433103136     0.726587165993     1.721710975029
C                     4.416182957717    -4.003498214942     4.648110015345
C                     3.617798207845    -4.016919942916     3.502417874652
C                     1.488068811727    -1.920788362452    -0.512147705936
C                     0.642252696647    -0.541192771917     1.276355212275
C                     1.667110925525    -3.571157459849     4.902656451212
C                     0.773859190652    -1.610362638799     2.194722157950
C                     3.876823393244    -3.779120584614     5.915948797761
C                     0.994579481482    -0.687848610700    -0.080048356194
C                     2.255245250932    -3.806500356372     3.652098913713
C                     1.284499101377    -2.820612652910     1.734979104025
C                     1.644893653173    -2.989195938978     0.380179249427
C                     2.490269805028    -3.554977136368     6.046533768078
C                     0.170346308739    -3.480040579111     4.919843873010
C                     0.393754883301    -1.408913309782     3.646171001806
C                     0.836702905622     0.460210523781    -1.046511218403
C                     4.053699007915    -7.728363281458    -2.746057092661
C                     2.407221596144    -6.189952709240    -3.886232693227
C                     4.170522343861    -7.531501977067     8.238926985374
C                     3.334512639218    -5.494982283469     9.474705010845
C                     0.895676292558    -2.522608713390     7.578902718790
C                     2.953376383389    -5.904495963560    -1.404714177488
C                     5.045755356581    -5.258890992785     7.599739473634
C                     2.470890060256    -4.464064684482    -1.323490889133
C                     4.781170571906    -3.814985146725     7.131016573492
C                     3.481848026209    -6.304230401172    -2.793468365010
C                     3.827967583529    -6.038812591023     8.125934601386
N                    -0.258480587964     1.766287079929     2.068546546158
O                    -0.541968482206    -4.255591586348     5.517509754211
O                     1.401286183393    -3.925327263073     2.556017020101
O                    -0.401727996334    -2.478867163285     4.192056056843
O                     6.020626828792    -3.187846571439     6.747223863940
O                     2.049236949117    -3.332702694405     7.319315848824
O                     2.142818763761    -4.203446887350     0.051132684625
H                     5.488061169439    -4.151551843577     4.566673124609
H                     4.025264533059    -4.211443024884     2.515507377477
H                     1.760829976986    -2.038246531130    -1.554158975967
H                     1.290406766964    -1.255183318919     4.253722617108
H                    -0.232190011076    -0.521989396617     3.744214891608
H                    -0.208306650735     0.780989350847    -1.109528641084
H                     1.417142629253     1.330759111663    -0.724428101807
H                     1.168812236993     0.177801309657    -2.048123930690
H                     3.270542501762    -8.454561904376    -2.497328605676
H                     4.843284318664    -7.817405417106    -1.991966105188
H                     4.478349193564    -8.014808937634    -3.714141248007
H                     1.534862185015    -6.807592924019    -3.639722591195
H                     2.795883529800    -6.533788157799    -4.850687095083
H                     2.059907929281    -5.160671215062    -4.023598550905
H                     4.998799801062    -7.692897385582     8.940442793480
H                     3.310942287197    -8.105021941362     8.602468310619
H                     4.466392021730    -7.947430338013     7.269419835465
H                     4.115729832605    -5.589302263280    10.240024440214
H                     3.043558694838    -4.444054689653     9.405804942075
H                     2.460234759613    -6.056332177356     9.821685983996
H                     1.045247167508    -2.112560262685     8.579502162554
H                    -0.017793573125    -3.118095617465     7.550602332146
H                     0.825648404274    -1.696486213960     6.862393536978
H                     3.746680751574    -6.037334953622    -0.660131906520
H                     2.132109296538    -6.569850997320    -1.111842822986
H                     5.807426543008    -5.227066217125     8.394531189622
H                     5.494632677253    -5.796374909801     6.755550091634
H                     3.257057859910    -3.770559232901    -1.652062411554
H                     1.581413084013    -4.299451238222    -1.941867559835
H                     4.316183160152    -3.239612162591     7.937179963772
H                     4.303741161450    -5.620922273817    -3.052045723611
H                     3.013515156129    -5.937376453046     7.398808468403
H                     6.643830146000    -3.305812146978     7.481397372635
