52
0 1 C21H27N3O
C                    -1.825799550273     3.169116656282    -3.547958902444
C                     2.225319745199     2.409630188553     1.638040591332
C                     1.681682486784     1.934180345374     0.420411174560
C                     1.998878101495     1.774817786989     2.863650100984
C                     0.672509038680     0.149769988459     1.619324291904
C                     0.887922052511     0.786987712116     0.394632396702
C                    -0.115783523894    -1.012580174567     1.877455670536
C                     1.206252667670     0.619945358334     2.839614454026
C                    -0.051852026958    -1.235022069367     3.233356975747
C                    -0.726952763945    -1.738157384687     0.716460391673
C                    -0.277002785191     1.265959859353    -1.818892216017
C                    -1.638853148231    -0.587654758560    -2.822688842653
C                     0.209763602598     0.177108203930    -0.821680368960
C                    -1.610293649966     0.902899884282    -2.496924462457
C                    -0.999276569531    -0.734709369414    -0.430008432996
C                     0.410189148341    -4.576685564901    -2.668543156632
C                    -1.548643351317    -2.751894282427     6.211821454898
C                    -1.842264354130     1.719384293961    -3.783354547352
C                    -0.624248722663    -2.322013270011     4.077478818860
C                     0.225769863819    -3.092741726574    -2.331691328516
C                    -1.226398052489    -2.789584849880    -1.904413915603
N                    -1.810490543528     4.313970643775    -3.343275416944
N                     0.779474639291    -0.268882026424     3.816636841094
N                    -1.589077729066    -1.404680024391    -1.608033936274
O                    -1.062889459452    -1.763174110319     5.315764784469
H                     2.837352057405     3.307765906282     1.619801789669
H                     1.885763382319     2.487609361309    -0.492550538123
H                     2.422874028315     2.169902455578     3.783254352939
H                    -0.040041754718    -2.523219039926     0.382915952874
H                    -1.668668373432    -2.230547444529     0.983273721503
H                    -0.392906961489     2.220346426646    -1.298910808785
H                     0.486936454761     1.423061772694    -2.590112579840
H                    -2.549671645584    -0.843643493373    -3.383501362374
H                    -0.788984340066    -0.791595707890    -3.499833076816
H                     0.938991749172    -0.462233102582    -1.335033604083
H                    -2.437449288523     1.124958517195    -1.814385092003
H                    -1.763665684197    -0.056730823877    -0.027391074983
H                     0.172459440344    -5.210287690559    -1.805812214811
H                    -0.246724365885    -4.880718446841    -3.491910330869
H                     1.440787473550    -4.794924432663    -2.966753147175
H                    -1.849995887183    -2.236704045660     7.126285798021
H                    -0.771152242840    -3.492487694957     6.452874988457
H                    -2.418659729802    -3.278402138034     5.792480652374
H                    -2.807536075480     1.459778008483    -4.232085566400
H                    -1.067813744445     1.486374042334    -4.523759249997
H                    -1.458967303705    -2.801807626339     3.545530878649
H                     0.130898735360    -3.100852356889     4.281213092738
H                     0.498555694028    -2.484891877580    -3.202013777808
H                     0.918534329719    -2.811295858395    -1.531244602600
H                    -1.895362159494    -3.118048319606    -2.711496846538
H                    -1.480460809802    -3.418719052971    -1.045929054678
H                     0.780084383732    -0.096550763384     4.813164641938
