44
0 1 C19H19N3O3
C                    -0.948310327014    -0.494074833079     2.584739843620
C                     1.825630144773     1.999961147325    -1.813264829140
C                     1.751882384120     0.608512669909    -1.558560597921
C                     0.772199156450     2.874704909254    -1.528057193632
C                    -0.478412129578     0.915276085089    -0.791848421759
C                     0.587203740823     0.046961000753    -1.039972641286
C                    -1.753844509715     0.606439930401    -0.233351105252
C                    -0.390641056424     2.311980805653    -0.985359669274
C                    -2.407545701310     1.804309875419    -0.063217319373
C                     1.618926673440    -2.092021656864    -0.192582303381
C                     1.896316726389    -2.299876845353     1.099682087264
C                     3.933228704344    -4.743876945570     2.878943168911
C                    -2.058876509980    -0.828093044235     0.079616018413
C                     0.964101382447    -1.880831900516     2.207731323495
C                     0.356941405907    -1.418505212945    -0.671266684051
C                    -0.750314382015    -1.573491661010     0.407247552771
C                     3.490456051351    -5.937519055721     3.689900095079
C                    -3.697303675847     2.125837715784     0.614288295199
C                     3.185131405506    -2.927883673439     1.537453978574
N                    -1.617850035946     0.074521761700     3.359992474286
N                    -1.580792872447     2.838951733654    -0.508165837929
N                    -0.175305138420    -1.110804609050     1.691947064142
O                     5.081748704550    -4.379582812824     2.721165057055
O                    -4.272105635437     3.277530546126    -0.026606384556
O                     2.866358662786    -4.105218854463     2.331485949549
H                     2.745689473253     2.406375658747    -2.225165992761
H                     2.625372551696    -0.006351370094    -1.758274813074
H                     0.872791584865     3.942595294435    -1.703918010458
H                     2.338853800272    -2.403263816284    -0.947165335700
H                    -2.768114934503    -0.945556425309     0.903483841917
H                    -2.499924907825    -1.330165692339    -0.791376263392
H                     0.621628390577    -2.770866428452     2.755761197268
H                     1.504334576160    -1.251628031246     2.923460884397
H                     0.002165885281    -1.954840138068    -1.562848785447
H                    -0.976772615425    -2.645430717527     0.497542970557
H                     2.856361864973    -5.608526694540     4.518665861134
H                     4.365851251594    -6.457110586352     4.078233002220
H                     2.895404903541    -6.613928511451     3.069951048380
H                    -4.368729520528     1.260107995503     0.554899657614
H                    -3.508067169466     2.334892215628     1.677513634010
H                     3.776969008285    -2.247933508868     2.159656849223
H                     3.797592732260    -3.225038399955     0.683255500681
H                    -1.915890234688     3.786159440573    -0.621735120329
H                    -4.976512698485     3.619067407635     0.545205750251
