52
0 1 C21H27N3O
C                     3.817401396328    -0.479253352007     3.129149510259
C                     0.068867513788     3.037721288110    -1.079283507025
C                     0.728234701029     2.037355735381    -0.324268671394
C                    -1.159999436145     2.820739126263    -1.710105145113
C                    -1.069501856789     0.559953612190    -0.800351616896
C                     0.162879983429     0.770661087012    -0.173307362156
C                    -1.846014029760    -0.639198915508    -0.830721245186
C                    -1.732200362741     1.551022473847    -1.557295065330
C                    -2.957304783330    -0.366488048543    -1.593414669689
C                    -1.362139828266    -1.818824666546    -0.041384282593
C                     2.289185412490    -0.443515009243     0.475095310323
C                     2.193389467479    -2.953648761483     0.636229707471
C                     0.752855210516    -0.416801127629     0.575986078266
C                     2.920758371091    -1.683206585943     1.126232511330
C                     0.181657095902    -1.770664587277     0.034069936978
C                    -0.129209781624    -4.896292116276     3.940082099567
C                    -5.660581221741    -1.669958914938    -3.691910984355
C                     2.966541216993    -1.585021210031     2.670703162754
C                    -4.138023862111    -1.205942876748    -1.942055110822
C                     0.715666504146    -4.484132909972     2.728790024401
C                     0.137997393637    -3.243253282808     2.041705826057
N                     4.496036317401     0.403977290527     3.465094191050
N                    -2.912467846983     0.973400745864    -2.004447294754
N                     0.734831736352    -2.940876736122     0.736197690902
O                    -4.494667420625    -0.958955208158    -3.302701728002
H                     0.539922672526     4.012769484341    -1.174173400107
H                     1.685266048395     2.278451148024     0.129443079981
H                    -1.637721878481     3.608205569126    -2.287412446580
H                    -1.789385818636    -1.773890647349     0.967240705082
H                    -1.664046455006    -2.777840528996    -0.477207092526
H                     2.557770761003    -0.434241231544    -0.588531652824
H                     2.719711857058     0.464375614105     0.908051667849
H                     2.436400459291    -3.067358513973    -0.428862568539
H                     2.588464245746    -3.841998373305     1.134104990733
H                     0.461890206333    -0.329533212041     1.633174896840
H                     3.962011271970    -1.754024853309     0.787324506952
H                     0.538098662182    -1.851954509626    -1.002860358689
H                    -0.193516354076    -4.084742892640     4.674120202397
H                    -1.151062474449    -5.156056329400     3.641815894530
H                     0.302807392188    -5.766389691713     4.444633429601
H                    -5.860331172231    -1.413766192894    -4.734513551710
H                    -6.528226801654    -1.386837756379    -3.076988221556
H                    -5.511484526615    -2.756841634254    -3.611059797539
H                     3.360757013645    -2.512571941529     3.099365993356
H                     1.970432360455    -1.436194400574     3.093885760077
H                    -3.894441152533    -2.267141456258    -1.786485382469
H                    -4.998742459419    -0.964133021952    -1.294858750713
H                     0.756852848004    -5.303736231922     2.001538815093
H                     1.743531623770    -4.305529902133     3.062200279735
H                    -0.924086504639    -3.441705452648     1.873089709834
H                     0.172306386419    -2.396902074317     2.752280518289
H                    -3.487998917517     1.318966709737    -2.760834271017
