
  -OEChem-05262117483D

 44 47  0     1  0  0  0  0  0999 V2000
   -0.9483   -0.4941    2.5847 C   0  0  0  0  0  0  0  0  0  0  0  0
    1.8256    2.0000   -1.8133 C   0  0  0  0  0  0  0  0  0  0  0  0
    1.7519    0.6085   -1.5586 C   0  0  0  0  0  0  0  0  0  0  0  0
    0.7722    2.8747   -1.5281 C   0  0  0  0  0  0  0  0  0  0  0  0
   -0.4784    0.9153   -0.7918 C   0  0  0  0  0  0  0  0  0  0  0  0
    0.5872    0.0470   -1.0400 C   0  0  0  0  0  0  0  0  0  0  0  0
   -1.7538    0.6064   -0.2334 C   0  0  0  0  0  0  0  0  0  0  0  0
   -0.3906    2.3120   -0.9854 C   0  0  0  0  0  0  0  0  0  0  0  0
   -2.4075    1.8043   -0.0632 C   0  0  0  0  0  0  0  0  0  0  0  0
    1.6189   -2.0920   -0.1926 C   0  0  0  0  0  0  0  0  0  0  0  0
    1.8963   -2.2999    1.0997 C   0  0  0  0  0  0  0  0  0  0  0  0
    3.9332   -4.7439    2.8789 C   0  0  0  0  0  0  0  0  0  0  0  0
   -2.0589   -0.8281    0.0796 C   0  0  0  0  0  0  0  0  0  0  0  0
    0.9641   -1.8808    2.2077 C   0  0  0  0  0  0  0  0  0  0  0  0
    0.3569   -1.4185   -0.6713 C   0  0  1  0  0  0  0  0  0  0  0  0
   -0.7503   -1.5735    0.4072 C   0  0  1  0  0  0  0  0  0  0  0  0
    3.4905   -5.9375    3.6899 C   0  0  0  0  0  0  0  0  0  0  0  0
   -3.6973    2.1258    0.6143 C   0  0  0  0  0  0  0  0  0  0  0  0
    3.1851   -2.9279    1.5375 C   0  0  0  0  0  0  0  0  0  0  0  0
   -1.6179    0.0745    3.3600 N   0  0  0  0  0  0  0  0  0  0  0  0
   -1.5808    2.8390   -0.5082 N   0  0  0  0  0  0  0  0  0  0  0  0
   -0.1753   -1.1108    1.6919 N   0  0  0  0  0  0  0  0  0  0  0  0
    5.0817   -4.3796    2.7212 O   0  0  0  0  0  0  0  0  0  0  0  0
   -4.2721    3.2775   -0.0266 O   0  0  0  0  0  0  0  0  0  0  0  0
    2.8664   -4.1052    2.3315 O   0  0  0  0  0  0  0  0  0  0  0  0
    2.7457    2.4064   -2.2252 H   0  0  0  0  0  0  0  0  0  0  0  0
    2.6254   -0.0064   -1.7583 H   0  0  0  0  0  0  0  0  0  0  0  0
    0.8728    3.9426   -1.7039 H   0  0  0  0  0  0  0  0  0  0  0  0
    2.3389   -2.4033   -0.9472 H   0  0  0  0  0  0  0  0  0  0  0  0
   -2.7681   -0.9456    0.9035 H   0  0  0  0  0  0  0  0  0  0  0  0
   -2.4999   -1.3302   -0.7914 H   0  0  0  0  0  0  0  0  0  0  0  0
    0.6216   -2.7709    2.7558 H   0  0  0  0  0  0  0  0  0  0  0  0
    1.5043   -1.2516    2.9235 H   0  0  0  0  0  0  0  0  0  0  0  0
    0.0022   -1.9548   -1.5628 H   0  0  0  0  0  0  0  0  0  0  0  0
   -0.9768   -2.6454    0.4975 H   0  0  0  0  0  0  0  0  0  0  0  0
    2.8564   -5.6085    4.5187 H   0  0  0  0  0  0  0  0  0  0  0  0
    4.3659   -6.4571    4.0782 H   0  0  0  0  0  0  0  0  0  0  0  0
    2.8954   -6.6139    3.0700 H   0  0  0  0  0  0  0  0  0  0  0  0
   -4.3687    1.2601    0.5549 H   0  0  0  0  0  0  0  0  0  0  0  0
   -3.5081    2.3349    1.6775 H   0  0  0  0  0  0  0  0  0  0  0  0
    3.7770   -2.2479    2.1597 H   0  0  0  0  0  0  0  0  0  0  0  0
    3.7976   -3.2250    0.6833 H   0  0  0  0  0  0  0  0  0  0  0  0
   -1.9159    3.7862   -0.6217 H   0  0  0  0  0  0  0  0  0  0  0  0
   -4.9765    3.6191    0.5452 H   0  0  0  0  0  0  0  0  0  0  0  0
  1 20  3  0  0  0  0
  1 22  1  0  0  0  0
  2  3  1  0  0  0  0
  2  4  2  0  0  0  0
  2 26  1  0  0  0  0
  3  6  2  0  0  0  0
  3 27  1  0  0  0  0
  4  8  1  0  0  0  0
  4 28  1  0  0  0  0
  5  6  1  0  0  0  0
  5  7  1  0  0  0  0
  5  8  2  0  0  0  0
  6 15  1  0  0  0  0
  7  9  2  0  0  0  0
  7 13  1  0  0  0  0
  8 21  1  0  0  0  0
  9 18  1  0  0  0  0
  9 21  1  0  0  0  0
 10 11  2  0  0  0  0
 10 15  1  0  0  0  0
 10 29  1  0  0  0  0
 11 14  1  0  0  0  0
 11 19  1  0  0  0  0
 12 17  1  0  0  0  0
 12 23  2  0  0  0  0
 12 25  1  0  0  0  0
 13 16  1  0  0  0  0
 13 30  1  0  0  0  0
 13 31  1  0  0  0  0
 14 22  1  0  0  0  0
 14 32  1  0  0  0  0
 14 33  1  0  0  0  0
 15 16  1  0  0  0  0
 15 34  1  0  0  0  0
 16 22  1  0  0  0  0
 16 35  1  0  0  0  0
 17 36  1  0  0  0  0
 17 37  1  0  0  0  0
 17 38  1  0  0  0  0
 18 24  1  0  0  0  0
 18 39  1  0  0  0  0
 18 40  1  0  0  0  0
 19 25  1  0  0  0  0
 19 41  1  0  0  0  0
 19 42  1  0  0  0  0
 21 43  1  0  0  0  0
 24 44  1  0  0  0  0
M  END
$$$$
