65
0 1 C24F3H30N5O2S
C                     2.715340271203   -10.024645013261     7.687010045692
C                     2.999952391845    -8.756152802825     5.624538221074
C                     2.711244069168    -7.671997727442     4.800072533157
C                     1.189139970987    -6.812079780546     6.482500239040
C                     2.385883721064    -8.882147372511     6.880485703636
C                     1.469889748879    -7.897752488543     7.304863034931
C                     1.811530800089    -6.697875083319     5.236120460367
C                     0.186346124582    -5.223494360914     4.090402808040
C                     2.435281355326    -4.675169476137     3.859935131199
C                     0.054980723715     3.503114975667     0.096450441969
C                     1.618510750736     1.633271450514    -0.217214920443
C                    -0.002419234162     1.475613154962     1.602300925626
C                     2.711110399005     1.172889293396     0.743975966178
C                     1.121064386770     1.012495786677     2.531304063355
C                     0.277801652275    -3.987581665134     3.196825100006
C                    -0.502365976324    -2.826103342730     3.828302976045
C                    -0.265989808379    -4.336016161080     1.800841473351
C                    -2.710062098951     6.059854978840     1.137763256291
C                    -1.105205744824     4.109552466561     0.886597860626
C                    -1.548987126000     5.465776167696     0.333553503605
C                     2.739796190702    -1.475148966004     3.441590970450
C                     2.333711277306    -2.609832686102     2.493520963975
C                     3.200851635860    -0.243089881550     2.658461394126
C                     0.794481798063    -8.009325576918     8.653952580583
N                     3.011466568269   -10.966782324068     8.303868480518
N                     1.493474991947    -5.584772908531     4.409757058304
N                     1.727696175661    -3.749027033366     3.175283507575
N                     0.536815063481     2.284404989614     0.517944514189
N                     2.155147989507     0.297254121871     1.781718697033
O                    -0.829524547966    -5.788957729179     4.445163718084
O                     0.544093176333     4.086333710462    -0.872559747038
F                    -0.029795058258    -6.961868433085     8.889235124444
F                     0.049201939237    -9.134578274308     8.746263211023
F                     1.698107581183    -8.041110346780     9.661289863142
S                     4.081782998122    -4.755356270382     4.050337044552
H                     3.700224093746    -9.518219205252     5.299217042667
H                     3.185268060228    -7.578356327444     3.830602780202
H                     0.484533799721    -6.056803362036     6.806229615354
H                     2.009679693178     2.345123565949    -0.943145049428
H                     1.219351708672     0.763600592996    -0.757942286295
H                    -0.509830184925     0.592319873722     1.186097022105
H                    -0.733225074964     2.042496448561     2.176235145717
H                     3.467361821234     0.613871351183     0.183430675657
H                     3.204066355665     2.059724362998     1.184167414449
H                     1.542266940557     1.892027877391     3.055608149885
H                     0.694874258397     0.349951832221     3.290188390920
H                    -0.446063240934    -1.939332515241     3.190442905339
H                    -0.106382579619    -2.575733316287     4.816252242793
H                    -1.551045286676    -3.113816505328     3.935522237752
H                    -0.226317043638    -3.462386449473     1.144245237905
H                    -1.305933540715    -4.660082363981     1.887686179465
H                     0.316979313526    -5.141614517102     1.345915270862
H                    -2.432660636941     6.216201131873     2.187213191540
H                    -3.587294179127     5.401877871338     1.122212352060
H                    -3.016108727723     7.028436005129     0.728990434879
H                    -0.810069194354     4.217841841007     1.938446699049
H                    -1.952249953207     3.411105748691     0.880506845719
H                    -1.834478326408     5.348912175065    -0.716190818218
H                    -0.695693641681     6.150569213930     0.336304685340
H                     3.554400296166    -1.816530619837     4.086138518157
H                     1.902125181832    -1.225333697199     4.099463443743
H                     1.615431193375    -2.235518334159     1.762740941729
H                     3.210961719932    -2.967784497683     1.946635621132
H                     4.049181633739    -0.527294969666     2.025587474520
H                     3.576080379564     0.523083274705     3.360777090628
