
  -OEChem-05262117483D

 65 67  0     0  0  0  0  0  0999 V2000
    3.3510  -10.1339    7.0901 C   0  0  0  0  0  0  0  0  0  0  0  0
    3.4590   -8.6094    5.1907 C   0  0  0  0  0  0  0  0  0  0  0  0
    3.0415   -7.4731    4.5031 C   0  0  0  0  0  0  0  0  0  0  0  0
    1.4805   -6.9763    6.2931 C   0  0  0  0  0  0  0  0  0  0  0  0
    2.8900   -8.9442    6.4293 C   0  0  0  0  0  0  0  0  0  0  0  0
    1.8889   -8.1163    6.9773 C   0  0  0  0  0  0  0  0  0  0  0  0
    2.0581   -6.6543    5.0614 C   0  0  0  0  0  0  0  0  0  0  0  0
    0.2579   -5.2410    4.1180 C   0  0  0  0  0  0  0  0  0  0  0  0
    2.4311   -4.4477    3.8892 C   0  0  0  0  0  0  0  0  0  0  0  0
    8.0764    0.5402    1.1160 C   0  0  0  0  0  0  0  0  0  0  0  0
    6.4441   -1.0040    2.1127 C   0  0  0  0  0  0  0  0  0  0  0  0
    5.6306    0.6336    0.4945 C   0  0  0  0  0  0  0  0  0  0  0  0
    5.2783   -0.6529    3.0317 C   0  0  0  0  0  0  0  0  0  0  0  0
    4.4774    0.9639    1.4440 C   0  0  0  0  0  0  0  0  0  0  0  0
    0.1958   -3.9211    3.3509 C   0  0  0  0  0  0  0  0  0  0  0  0
   -0.6649   -2.9111    4.1228 C   0  0  0  0  0  0  0  0  0  0  0  0
   -0.3695   -4.1872    1.9456 C   0  0  0  0  0  0  0  0  0  0  0  0
   10.0960    3.2347   -0.8666 C   0  0  0  0  0  0  0  0  0  0  0  0
    8.3531    1.6976    0.1548 C   0  0  0  0  0  0  0  0  0  0  0  0
    9.8343    2.0788    0.1046 C   0  0  0  0  0  0  0  0  0  0  0  0
    2.3718   -1.1952    3.7391 C   0  0  0  0  0  0  0  0  0  0  0  0
    2.1003   -2.2988    2.7096 C   0  0  0  0  0  0  0  0  0  0  0  0
    2.9464    0.0649    3.0822 C   0  0  0  0  0  0  0  0  0  0  0  0
    1.2583   -8.4569    8.3098 C   0  0  0  0  0  0  0  0  0  0  0  0
    3.7538  -11.1072    7.5863 N   0  0  0  0  0  0  0  0  0  0  0  0
    1.6043   -5.4961    4.3708 N   0  0  0  0  0  0  0  0  0  0  0  0
    1.6148   -3.5396    3.3095 N   0  0  0  0  0  0  0  0  0  0  0  0
    6.7721    0.1239    1.2428 N   0  0  0  0  0  0  0  0  0  0  0  0
    4.1192   -0.2027    2.2493 N   0  0  0  0  0  0  0  0  0  0  0  0
   -0.6847   -5.9388    4.4369 O   0  0  0  0  0  0  0  0  0  0  0  0
    8.9877    0.0094    1.7545 O   0  0  0  0  0  0  0  0  0  0  0  0
    0.3372   -7.5364    8.6778 F   0  0  0  0  0  0  0  0  0  0  0  0
    0.6339   -9.6568    8.2729 F   0  0  0  0  0  0  0  0  0  0  0  0
    2.1827   -8.5147    9.2968 F   0  0  0  0  0  0  0  0  0  0  0  0
    4.0836   -4.3751    4.0418 S   0  0  0  0  0  0  0  0  0  0  0  0
    4.2255   -9.2513    4.7696 H   0  0  0  0  0  0  0  0  0  0  0  0
    3.4801   -7.2202    3.5456 H   0  0  0  0  0  0  0  0  0  0  0  0
    0.7102   -6.3417    6.7121 H   0  0  0  0  0  0  0  0  0  0  0  0
    7.3323   -1.2550    2.6910 H   0  0  0  0  0  0  0  0  0  0  0  0
    6.1702   -1.8724    1.4979 H   0  0  0  0  0  0  0  0  0  0  0  0
    5.2933   -0.1270   -0.2246 H   0  0  0  0  0  0  0  0  0  0  0  0
    5.9052    1.5268   -0.0638 H   0  0  0  0  0  0  0  0  0  0  0  0
    5.0091   -1.5479    3.5965 H   0  0  0  0  0  0  0  0  0  0  0  0
    5.5976    0.1259    3.7503 H   0  0  0  0  0  0  0  0  0  0  0  0
    4.7701    1.8229    2.0789 H   0  0  0  0  0  0  0  0  0  0  0  0
    3.6058    1.2672    0.8532 H   0  0  0  0  0  0  0  0  0  0  0  0
   -0.7301   -1.9666    3.5754 H   0  0  0  0  0  0  0  0  0  0  0  0
   -0.2473   -2.7146    5.1139 H   0  0  0  0  0  0  0  0  0  0  0  0
   -1.6731   -3.3154    4.2416 H   0  0  0  0  0  0  0  0  0  0  0  0
   -0.4504   -3.2553    1.3793 H   0  0  0  0  0  0  0  0  0  0  0  0
   -1.3658   -4.6270    2.0347 H   0  0  0  0  0  0  0  0  0  0  0  0
    0.2722   -4.8783    1.3920 H   0  0  0  0  0  0  0  0  0  0  0  0
    9.5476    4.1378   -0.5725 H   0  0  0  0  0  0  0  0  0  0  0  0
    9.7875    2.9786   -1.8874 H   0  0  0  0  0  0  0  0  0  0  0  0
   11.1606    3.4895   -0.8970 H   0  0  0  0  0  0  0  0  0  0  0  0
    7.7568    2.5694    0.4543 H   0  0  0  0  0  0  0  0  0  0  0  0
    8.0059    1.4247   -0.8503 H   0  0  0  0  0  0  0  0  0  0  0  0
   10.4209    1.2009   -0.1824 H   0  0  0  0  0  0  0  0  0  0  0  0
   10.1701    2.3454    1.1113 H   0  0  0  0  0  0  0  0  0  0  0  0
    3.0512   -1.5837    4.5016 H   0  0  0  0  0  0  0  0  0  0  0  0
    1.4451   -0.9215    4.2541 H   0  0  0  0  0  0  0  0  0  0  0  0
    1.3541   -1.9673    1.9821 H   0  0  0  0  0  0  0  0  0  0  0  0
    3.0154   -2.5198    2.1588 H   0  0  0  0  0  0  0  0  0  0  0  0
    3.1654    0.8110    3.8698 H   0  0  0  0  0  0  0  0  0  0  0  0
    2.1804    0.5095    2.4343 H   0  0  0  0  0  0  0  0  0  0  0  0
  1  5  1  0  0  0  0
  1 25  3  0  0  0  0
  2  3  1  0  0  0  0
  2  5  2  0  0  0  0
  2 36  1  0  0  0  0
  3  7  2  0  0  0  0
  3 37  1  0  0  0  0
  4  6  2  0  0  0  0
  4  7  1  0  0  0  0
  4 38  1  0  0  0  0
  5  6  1  0  0  0  0
  6 24  1  0  0  0  0
  7 26  1  0  0  0  0
  8 15  1  0  0  0  0
  8 26  1  0  0  0  0
  8 30  2  0  0  0  0
  9 26  1  0  0  0  0
  9 27  1  0  0  0  0
  9 35  2  0  0  0  0
 10 19  1  0  0  0  0
 10 28  1  0  0  0  0
 10 31  2  0  0  0  0
 11 13  1  0  0  0  0
 11 28  1  0  0  0  0
 11 39  1  0  0  0  0
 11 40  1  0  0  0  0
 12 14  1  0  0  0  0
 12 28  1  0  0  0  0
 12 41  1  0  0  0  0
 12 42  1  0  0  0  0
 13 29  1  0  0  0  0
 13 43  1  0  0  0  0
 13 44  1  0  0  0  0
 14 29  1  0  0  0  0
 14 45  1  0  0  0  0
 14 46  1  0  0  0  0
 15 16  1  0  0  0  0
 15 17  1  0  0  0  0
 15 27  1  0  0  0  0
 16 47  1  0  0  0  0
 16 48  1  0  0  0  0
 16 49  1  0  0  0  0
 17 50  1  0  0  0  0
 17 51  1  0  0  0  0
 17 52  1  0  0  0  0
 18 20  1  0  0  0  0
 18 53  1  0  0  0  0
 18 54  1  0  0  0  0
 18 55  1  0  0  0  0
 19 20  1  0  0  0  0
 19 56  1  0  0  0  0
 19 57  1  0  0  0  0
 20 58  1  0  0  0  0
 20 59  1  0  0  0  0
 21 22  1  0  0  0  0
 21 23  1  0  0  0  0
 21 60  1  0  0  0  0
 21 61  1  0  0  0  0
 22 27  1  0  0  0  0
 22 62  1  0  0  0  0
 22 63  1  0  0  0  0
 23 29  1  0  0  0  0
 23 64  1  0  0  0  0
 23 65  1  0  0  0  0
 24 32  1  0  0  0  0
 24 33  1  0  0  0  0
 24 34  1  0  0  0  0
M  END
$$$$
