52
0 1 C21H27N3O
C                     3.875866995396    -2.160424971111     3.257313870553
C                     0.031410715659     3.391092547047    -1.074238384416
C                     0.756860288235     2.420002633393    -0.341956250324
C                    -1.190792813670     3.111142297710    -1.693211305540
C                    -0.968796602501     0.853532772962    -0.797132568422
C                     0.262587950346     1.123620243905    -0.191548672119
C                    -1.705126185531    -0.370478923146    -0.781484274417
C                    -1.686071852993     1.808176906679    -1.552371156053
C                    -2.838420958328    -0.153908477044    -1.529335923903
C                    -1.154263192224    -1.518972411573     0.011781453249
C                     2.452182238248    -0.001884712262     0.401485733715
C                     2.464246547299    -2.514790691613     0.587228432232
C                     0.919618206357    -0.032334669652     0.551855385789
C                     3.153002554038    -1.209632194425     1.043175163556
C                     0.388074853875    -1.414351828021     0.042168380342
C                     0.625767498300    -5.435787414703     1.513040858927
C                    -6.292601721384    -1.139477208359    -2.244466800168
C                     3.245625610703    -1.022897992444     2.577782189903
C                    -3.952154854286    -1.067501043047    -1.911949695422
C                     0.944983749731    -4.320319198647     2.513188681693
C                     0.484416237712    -2.933019904489     2.041730930224
N                     4.375498697197    -3.078075506095     3.768774101207
N                    -2.813374461187     1.156075931093    -2.029602061553
N                     1.011428870169    -2.553593658357     0.727515311070
O                    -5.186425306802    -0.354702187248    -1.823128316631
H                     0.445770457767     4.391991558030    -1.165005822982
H                     1.707552642962     2.708669791375     0.097794419789
H                    -1.717290360905     3.875314571431    -2.259264907483
H                    -1.556813069559    -1.464511112334     1.029892032386
H                    -1.430159102735    -2.497974794552    -0.393542281065
H                     2.684828167241     0.009176874768    -0.670509542589
H                     2.858472641739     0.928782206244     0.813064321491
H                     2.691972726348    -2.634758107498    -0.481059947128
H                     2.906295905006    -3.375545278263     1.092616121556
H                     0.656013643088     0.051466357315     1.616600066457
H                     4.185228517219    -1.246680113199     0.672630347264
H                     0.714303211357    -1.487630563037    -1.006178479720
H                    -0.448506552660    -5.472950535356     1.295692988002
H                     1.144692270937    -5.277472267355     0.563594367275
H                     0.923872653545    -6.412405960183     1.908850045202
H                    -7.183565341624    -0.514766418739    -2.152556518747
H                    -6.412695647664    -2.032243073884    -1.613202949851
H                    -6.181957566560    -1.460732919344    -3.291177020952
H                     2.260819487250    -0.865090532420     3.023492025129
H                     3.838496103896    -0.128216526583     2.799493058137
H                    -3.821786343908    -1.434118073244    -2.944766723089
H                    -3.956342254722    -1.943010206895    -1.246957798940
H                     2.012586754643    -4.320859271616     2.751287644256
H                     0.434175507735    -4.517063120949     3.464044086502
H                    -0.603646721412    -2.972309698390     1.957507492840
H                     0.698081929560    -2.199018680018     2.838873431302
H                    -3.638659288967     1.600257243238    -2.409294155732
