39
0 1 C16H18N4O
C                     0.308046632873     1.653791932015    -1.031978191828
C                     1.583644973567    -4.041013725282    -4.782872278813
C                     0.538915690629    -4.547812947190    -4.004315269847
C                     1.938152280724    -2.691570324122    -4.668472955499
C                    -0.144317346480    -3.709057696549    -3.116708427034
C                     1.253046924684    -1.858516455208    -3.780948394450
C                     3.699543857609     1.224772102592     0.662281863567
C                     2.015805041102     1.922297935697     1.707105144254
C                     0.202765752581    -2.357002287260    -2.994275537483
C                    -2.141068758850     1.269528355289    -0.658814832069
C                    -1.617940329453     1.916167137247     0.590655362681
C                    -0.702157091509     1.007004763475    -0.223772050512
C                    -0.499416744726    -1.452751969196    -2.006228875669
C                     0.348186221874    -1.256519406708    -0.736688936691
C                     0.637215146564    -0.197303939961     1.565343803078
C                    -0.296584723283    -0.369721707600     0.337640566749
N                     1.097540665845     2.162129831914    -1.720478145590
N                     3.205354198367     2.330555354381     1.294779442924
N                     2.895908881333     0.167167170811     0.669281719166
N                     1.805949033579     0.631505689593     1.345772938067
O                    -1.500534231813    -0.964462281305     0.848755085932
H                     2.114803376088    -4.689514814139    -5.474853303144
H                     0.253374080799    -5.593377758610    -4.090121698523
H                     2.746917831145    -2.288486295310    -5.272816952555
H                    -0.960800761306    -4.109222244106    -2.518005824176
H                     1.532714709809    -0.810083212259    -3.696358226676
H                     4.672584535423     1.194392240015     0.189852960790
H                     1.286255054240     2.506298000644     2.253607775554
H                    -2.822731250915     0.435572741950    -0.547102363709
H                    -2.275612895471     1.883444829413    -1.542913743278
H                    -1.403470674544     2.979625287572     0.580095726694
H                    -1.962388866853     1.513685227433     1.537783592475
H                    -0.683410279724    -0.481033694647    -2.473366720729
H                    -1.477617514191    -1.868913972465    -1.743524643923
H                     1.323232793532    -0.841604208448    -1.001659761433
H                     0.562819620088    -2.235688813889    -0.285351275370
H                     0.975015604208    -1.181683938173     1.901591781788
H                     0.053887258385     0.256749220675     2.368516548352
H                    -1.358666340805    -1.922212865168     0.907169164307
