39
0 1 C18FH16N3O
C                    -1.698870961644    -5.048369703673    -3.580284205660
C                    -3.422646727939     2.638425654824     3.396100076907
C                    -2.258180977927    -4.488773164389    -2.449894869754
C                    -2.421160451963     2.239238301780     2.513196143092
C                    -0.470398550364    -4.564350692834    -4.089202475373
C                    -1.407786807919    -1.750861934662    -0.026919927345
C                    -3.739226766677     3.998990191327     3.484523440350
C                    -2.164774072226     4.541389841833     1.915778816427
C                    -1.608699884627    -3.418747554456    -1.778339032692
C                    -1.762680171018     3.209569078975     1.742147656027
C                    -0.363796695584    -2.911792061226    -2.273848507523
C                    -2.118293564381    -2.781547071392    -0.603740549824
C                     0.162332327350    -3.528680272854    -3.444887003625
C                    -0.186450383076    -1.339915290310    -0.612795406911
C                    -0.997512985932     1.682902938768    -0.205556389768
C                     0.442953113006     1.917019705235     1.319344568725
C                    -0.673187057565     2.854993026406     0.768325113592
C                     0.619797305134    -0.226553448266     0.026244162756
N                    -3.125749731892     4.943497295269     2.760233422045
N                     0.325550216887    -1.889283389748    -1.703026944828
N                    -0.222230954180     0.767489489859     0.665962529197
O                    -3.292523385362    -3.153672010835    -0.020036924658
F                     1.331186390510    -3.070383454954    -3.933399591541
H                    -2.199345155898    -5.866973785587    -4.088915566073
H                    -3.953179584788     1.913989493649     4.008156498426
H                    -3.203761570758    -4.889813055721    -2.090186359170
H                    -2.143171693210     1.192371539793     2.414501360029
H                    -0.018367582229    -4.994398152649    -4.977583451529
H                    -1.779277041632    -1.252634182335     0.861248594743
H                    -4.517089759730     4.342811405019     4.164970121315
H                    -1.681250133127     5.329802659928     1.337961705635
H                    -2.051013767437     1.412438185641    -0.330811619514
H                    -0.538302686456     1.825991689226    -1.196105451234
H                     1.426535238987     2.154233153237     0.884377755848
H                     0.536641996075     1.833382257527     2.407558036431
H                    -0.302533648817     3.758285872393     0.280095122182
H                     1.272051096514    -0.664155574235     0.794044501891
H                     1.275842360181     0.202266124626    -0.749810107884
H                    -3.696521245007    -3.882097041032    -0.516400290420
