43
0 1 C17FH20N3O2
C                     5.975700397995    -2.835659828062    -4.878661894864
C                     7.015938691533    -3.197265560657    -5.709579845802
C                     8.435866031189    -1.455412905049    -4.749355728903
C                     6.389320218069     0.283397383772    -2.154358980994
C                     7.367753936633    -1.081388505176    -3.895360545019
C                     6.117916074849    -1.770400120382    -3.949391014633
C                     7.472436941929    -0.019301389502    -2.949830896077
C                     8.234665505421    -2.492862752193    -5.626314081584
C                     5.189203016191    -0.471310978878    -2.289853466968
C                    -0.919361343739    -1.488897275693    -3.071704990369
C                    -1.282148866632    -0.818029559509    -0.798480864329
C                     1.808361568358    -0.767273024629    -0.485631768348
C                     2.114146534875    -1.386362459992    -2.480201594749
C                    -2.195041045429    -0.751518164917    -3.466001449503
C                    -2.550648295044    -0.095171071393    -1.240856163446
C                     0.915859656425    -1.507888667893    -1.509938536363
C                     4.002259321132    -0.083271093033    -1.429001061911
N                     5.050812962480    -1.457164259362    -3.153205657543
N                    -0.315897929313    -0.847653349562    -1.899798802395
N                     2.988788065060    -1.107176400757    -1.313857509060
O                    -3.130129541161    -0.713105339364    -2.388689460970
O                     8.667098035718     0.638111265836    -2.891694196521
F                     9.242144305842    -2.870285612782    -6.456365430755
H                     5.023125754638    -3.355251300483    -4.910592548299
H                     6.921892984271    -4.009519097993    -6.424078556388
H                     9.387160134489    -0.936575515445    -4.712197757145
H                     6.442108867522     1.086021329944    -1.420450388995
H                    -1.158793118484    -2.551081278422    -2.873538480971
H                    -0.207895622920    -1.455619342371    -3.904151316219
H                    -0.839888351343    -0.287339314774     0.052299059990
H                    -1.543153725143    -1.839317191616    -0.461076755124
H                     1.573479728064     0.309928778626    -0.481752015668
H                     1.850368819531    -1.141081059816     0.543433789778
H                     2.413176083331    -2.256429184397    -3.066348140049
H                     1.995277241080    -0.515458799494    -3.144001625400
H                    -1.944722380927     0.273627703525    -3.779853764931
H                    -2.697109100275    -1.262011789895    -4.292039613960
H                    -3.309864406137    -0.130393418750    -0.455049400236
H                    -2.315154699436     0.957386298272    -1.462069049466
H                     0.747870885077    -2.556872958948    -1.209844479155
H                     4.361884216425     0.152213204932    -0.419421745470
H                     3.588556192690     0.863877610627    -1.837105733593
H                     8.617995989262     1.333539736817    -2.215551858863
