
  -OEChem-05262117483D

 43 46  0     0  0  0  0  0  0999 V2000
    4.5627    0.0560    3.1306 C   0  0  0  0  0  0  0  0  0  0  0  0
    5.2803    0.4154    4.2527 C   0  0  0  0  0  0  0  0  0  0  0  0
    7.1308    1.1991    2.8621 C   0  0  0  0  0  0  0  0  0  0  0  0
    6.1185    0.6283   -0.6869 C   0  0  0  0  0  0  0  0  0  0  0  0
    6.3945    0.8315    1.7076 C   0  0  0  0  0  0  0  0  0  0  0  0
    5.0946    0.2523    1.8279 C   0  0  0  0  0  0  0  0  0  0  0  0
    6.8946    1.0118    0.3846 C   0  0  0  0  0  0  0  0  0  0  0  0
    6.5605    0.9845    4.0928 C   0  0  0  0  0  0  0  0  0  0  0  0
    4.8350    0.0574   -0.4522 C   0  0  0  0  0  0  0  0  0  0  0  0
   -0.9820   -1.6808   -3.1651 C   0  0  0  0  0  0  0  0  0  0  0  0
   -1.3388   -0.6496   -1.0301 C   0  0  0  0  0  0  0  0  0  0  0  0
    1.7255   -0.7339   -0.6237 C   0  0  0  0  0  0  0  0  0  0  0  0
    2.0549   -1.6149   -2.5132 C   0  0  0  0  0  0  0  0  0  0  0  0
   -2.2081   -0.9454   -3.6970 C   0  0  0  0  0  0  0  0  0  0  0  0
   -2.5570    0.0643   -1.6072 C   0  0  0  0  0  0  0  0  0  0  0  0
    0.8260   -1.5576   -1.5747 C   0  0  0  0  0  0  0  0  0  0  0  0
    3.9896   -0.3140   -1.6555 C   0  0  0  0  0  0  0  0  0  0  0  0
    4.3354   -0.1227    0.7537 N   0  0  0  0  0  0  0  0  0  0  0  0
   -0.3599   -0.9008   -2.0919 N   0  0  0  0  0  0  0  0  0  0  0  0
    2.9106   -1.2308   -1.3664 N   0  0  0  0  0  0  0  0  0  0  0  0
   -3.1545   -0.6909   -2.6603 O   0  0  0  0  0  0  0  0  0  0  0  0
    8.1387    1.5604    0.2658 O   0  0  0  0  0  0  0  0  0  0  0  0
    7.2450    1.3289    5.2150 F   0  0  0  0  0  0  0  0  0  0  0  0
    3.5752   -0.3875    3.2122 H   0  0  0  0  0  0  0  0  0  0  0  0
    4.8868    0.2708    5.2544 H   0  0  0  0  0  0  0  0  0  0  0  0
    8.1184    1.6384    2.7769 H   0  0  0  0  0  0  0  0  0  0  0  0
    6.4765    0.7499   -1.7080 H   0  0  0  0  0  0  0  0  0  0  0  0
   -1.2837   -2.6857   -2.8128 H   0  0  0  0  0  0  0  0  0  0  0  0
   -0.2582   -1.8143   -3.9771 H   0  0  0  0  0  0  0  0  0  0  0  0
   -0.8788   -0.0198   -0.2606 H   0  0  0  0  0  0  0  0  0  0  0  0
   -1.6630   -1.5912   -0.5474 H   0  0  0  0  0  0  0  0  0  0  0  0
    1.5566    0.3459   -0.7607 H   0  0  0  0  0  0  0  0  0  0  0  0
    1.7315   -0.9722    0.4408 H   0  0  0  0  0  0  0  0  0  0  0  0
    2.3181   -2.5715   -2.9783 H   0  0  0  0  0  0  0  0  0  0  0  0
    1.9832   -0.8318   -3.2859 H   0  0  0  0  0  0  0  0  0  0  0  0
   -1.8952    0.0040   -4.1585 H   0  0  0  0  0  0  0  0  0  0  0  0
   -2.7264   -1.5493   -4.4466 H   0  0  0  0  0  0  0  0  0  0  0  0
   -3.3283    0.1919   -0.8432 H   0  0  0  0  0  0  0  0  0  0  0  0
   -2.2586    1.0557   -1.9816 H   0  0  0  0  0  0  0  0  0  0  0  0
    0.5990   -2.5514   -1.1512 H   0  0  0  0  0  0  0  0  0  0  0  0
    3.6193    0.6308   -2.1084 H   0  0  0  0  0  0  0  0  0  0  0  0
    4.6366   -0.7794   -2.4097 H   0  0  0  0  0  0  0  0  0  0  0  0
    8.3695    1.6316   -0.6749 H   0  0  0  0  0  0  0  0  0  0  0  0
  1  2  1  0  0  0  0
  1  6  2  0  0  0  0
  1 24  1  0  0  0  0
  2  8  2  0  0  0  0
  2 25  1  0  0  0  0
  3  5  2  0  0  0  0
  3  8  1  0  0  0  0
  3 26  1  0  0  0  0
  4  7  2  0  0  0  0
  4  9  1  0  0  0  0
  4 27  1  0  0  0  0
  5  6  1  0  0  0  0
  5  7  1  0  0  0  0
  6 18  1  0  0  0  0
  7 22  1  0  0  0  0
  8 23  1  0  0  0  0
  9 17  1  0  0  0  0
  9 18  2  0  0  0  0
 10 14  1  0  0  0  0
 10 19  1  0  0  0  0
 10 28  1  0  0  0  0
 10 29  1  0  0  0  0
 11 15  1  0  0  0  0
 11 19  1  0  0  0  0
 11 30  1  0  0  0  0
 11 31  1  0  0  0  0
 12 16  1  0  0  0  0
 12 20  1  0  0  0  0
 12 32  1  0  0  0  0
 12 33  1  0  0  0  0
 13 16  1  0  0  0  0
 13 20  1  0  0  0  0
 13 34  1  0  0  0  0
 13 35  1  0  0  0  0
 14 21  1  0  0  0  0
 14 36  1  0  0  0  0
 14 37  1  0  0  0  0
 15 21  1  0  0  0  0
 15 38  1  0  0  0  0
 15 39  1  0  0  0  0
 16 19  1  0  0  0  0
 16 40  1  0  0  0  0
 17 20  1  0  0  0  0
 17 41  1  0  0  0  0
 17 42  1  0  0  0  0
 22 43  1  0  0  0  0
M  END
$$$$
