22   
torsion grid (-165,)
C       -1.0905888185   -0.6872851565   -0.3336332122
C        0.4293916032   -0.5400913847   -0.2655960579
C        0.5475905784    0.7825985929    0.5373255199
C        1.0689650765   -1.7722285678    0.3829472126
C        0.9160752148   -0.4077079936   -1.7256349253
C        1.7380159837    1.6714357493    0.1943685030
C        0.4280325804    0.5945946312    2.0536915407
O       -1.7521558878   -1.6286790445   -0.6964853544
O       -1.6880656716    0.4981084844    0.0250134109
O       -0.6255500202    1.5071317121    0.0535309757
H        2.1543368969   -1.6422388757    0.4507149427
H        0.8680839233   -2.6545253218   -0.2300940190
H        0.6804055882   -1.9680024559    1.3842627781
H        2.0073456109   -0.3385877623   -1.7582487788
H        0.4936433974    0.4723148995   -2.2175056564
H        0.6123733329   -1.2929170200   -2.2906354633
H        1.7027049470    2.5907936622    0.7854971543
H        1.7533743255    1.9418943975   -0.8620575738
H        2.6676853343    1.1478759535    0.4376293346
H        0.3131272206    1.5735668246    2.5262225349
H        1.3237593268    0.1171635606    2.4603881580
H       -0.4395639179   -0.0136791013    2.3222257910
22   
torsion grid (-150,)
C       -1.1130163082   -0.6730565331   -0.3690004228
C        0.4103625924   -0.5487052879   -0.2583443025
C        0.5385591878    0.7785516475    0.5442050746
C        1.0067500278   -1.7930843930    0.4141924962
C        0.9425072514   -0.4427020490   -1.7030866512
C        1.6968180843    1.6896027564    0.1524516392
C        0.4866202596    0.5949490666    2.0643861619
O       -1.7627659027   -1.5064750080   -0.9487851735
O       -1.7056814547    0.4478652695    0.1768673467
O       -0.6690764826    1.4814638449    0.1079186176
H        2.0925279377   -1.6858384276    0.5101397963
H        0.8049049933   -2.6734527210   -0.2015756184
H        0.5901383396   -1.9759413426    1.4068075053
H        2.0346799112   -0.3809593386   -1.7052808205
H        0.5399937956    0.4306551679   -2.2227450545
H        0.6461699808   -1.3336454057   -2.2622919743
H        1.6700479339    2.6059973898    0.7485637482
H        1.6621485645    1.9640155176   -0.9024684423
H        2.6460138184    1.1831546293    0.3524891138
H        0.3970301446    1.5752729140    2.5397126163
H        1.3985326291    0.1153265255    2.4308861232
H       -0.3701866750   -0.0089827918    2.3722217803
22   
torsion grid (-135,)
C       -1.2060234390   -0.6917781432   -0.4134636607
C        0.3235743697   -0.6156432004   -0.2903659292
C        0.4779832520    0.7117854816    0.5263877537
C        0.8715275875   -1.8779713983    0.3951350912
C        0.8850851385   -0.5320714656   -1.7223359736
C        1.5846771893    1.6542655007    0.0666039360
C        0.5374304741    0.5150793269    2.0441317780
O       -1.8530466703   -1.3489412367   -1.1874108987
O       -1.7658196709    0.3333508664    0.3379870994
O       -0.7750582624    1.3996712538    0.1900599258
H        1.9573610005   -1.8009786971    0.5156069466
H        0.6620858519   -2.7524181915   -0.2270526856
H        0.4297271604   -2.0510912032    1.3785939664
H        1.9777787481   -0.4829220912   -1.7051677334
H        0.5020583200    0.3380825130   -2.2611633153
H        0.5869624914   -1.4239868877   -2.2784464381
H        1.5677836930    2.5683618932    0.6667798036
H        1.4785392002    1.9302400304   -0.9830674090
H        2.5590592969    1.1762960855    0.2062355223
H        0.4948034328    1.4918265572    2.5332887342
H        1.4687841714    0.0229214142    2.3384038561
H       -0.3012844395   -0.0819307158    2.4080361737
22   
torsion grid (-120,)
C       -1.1694322428   -0.6226588877   -0.4961680496
C        0.3521355117   -0.5999979864   -0.2841361163
C        0.4891740591    0.7271522215    0.5541010769
C        0.7926770089   -1.8807008800    0.4501433155
C        1.0293138468   -0.5563442327   -1.6637063681
C        1.4878922103    1.7503020536    0.0251674354
C        0.6796088432    0.5200111721    2.0583751344
O       -1.7858179860   -1.0152700894   -1.4492464410
O       -1.7373978078    0.2057205263    0.4844661922
O       -0.8317188732    1.3487455487    0.3373303657
H        1.8673178120   -1.8493855274    0.6569628234
H        0.5997503460   -2.7515233076   -0.1829751182
H        0.2670458440   -2.0278564962    1.3957523406
H        2.1170821100   -0.5032985989   -1.5596041513
H        0.6911823828    0.2927982414   -2.2613399302
H        0.7805732337   -1.4638720314   -2.2189079497
H        1.4258868582    2.6649255541    0.6218149477
H        1.2998178525    2.0087761532   -1.0173443313
H        2.5058856214    1.3592250643    0.1124509982
H        0.6845873350    1.4929347777    2.5570156929
H        1.6292848187    0.0207839524    2.2715719866
H       -0.1307669487   -0.0742789274    2.4842793176
22   
torsion grid (-105,)
C       -1.1706128319   -0.5547906596   -0.6120576751
C        0.3297058613   -0.6361285727   -0.3117450953
C        0.4546266433    0.6880810501    0.5532459147
C        0.6211638221   -1.9365218080    0.4633888924
C        1.1335812299   -0.6388810220   -1.6179989437
C        1.2955429940    1.7988957535   -0.0653698737
C        0.8328965451    0.4717812967    2.0173501584
O       -1.7302664791   -0.5923872277   -1.6715019754
O       -1.7483006576    0.0128798901    0.5540665095
O       -0.9319598665    1.2281760648    0.5103406056
H        1.6700442249   -1.9740058922    0.7723820083
H        0.4369367759   -2.7984780195   -0.1851424279
H       -0.0032683541   -2.0433823481    1.3521620926
H        2.2079996113   -0.6193708736   -1.4106365757
H        0.8850843660    0.2054987624   -2.2623311432
H        0.9141085407   -1.5499445518   -2.1808174325
H        1.2044692768    2.7031758722    0.5437303343
H        0.9725015093    2.0396923672   -1.0789690979
H        2.3506596274    1.5118794378   -0.0872754696
H        0.8514161861    1.4364468767    2.5316855771
H        1.8249347451    0.0182554244    2.1068805212
H        0.1090466844   -0.1682700943    2.5241028430
22   
torsion grid (-90,)
C       -1.1688213496   -0.4689399427   -0.6718742554
C        0.3073339282   -0.6583198634   -0.3142468785
C        0.4211114170    0.6709116665    0.5632887748
C        0.5024947781   -1.9624440067    0.4810612094
C        1.1969742305   -0.6837673574   -1.5606567104
C        1.1378785061    1.8295076609   -0.1190956301
C        0.9375104617    0.4583147877    1.9818599855
O       -1.6396675774   -0.1656219268   -1.7310461955
O       -1.7564272247   -0.1018278377    0.5855357039
O       -1.0013514597    1.1478708165    0.6485106136
H        1.5279980591   -2.0403982012    0.8533372582
H        0.3261753503   -2.8201477974   -0.1759738661
H       -0.1802296454   -2.0392262137    1.3284338514
H        2.2545817892   -0.6872984436   -1.2778546566
H        1.0145522600    0.1616696100   -2.2241873412
H        1.0019538746   -1.5950964649   -2.1331914270
H        1.0242484540    2.7303648886    0.4918554488
H        0.7202758548    2.0377516908   -1.1055438137
H        2.2066980621    1.6205272447   -0.2179508561
H        0.9495045960    1.4155363405    2.5105603407
H        1.9579989803    0.0614199694    1.9722113228
H        0.3002758885   -0.2295778452    2.5393163983
22   
torsion grid (-75,)
C       -1.1314509179   -0.3746706181   -0.6953555069
C        0.3231161865   -0.6634541842   -0.3052749792
C        0.4375528581    0.6719009843    0.5926968066
C        0.4602627027   -1.9721236176    0.4885046792
C        1.2656562552   -0.6911645601   -1.5106703409
C        1.1174445881    1.8422988020   -0.1037033136
C        1.0030396024    0.4394007574    1.9871090674
O       -1.4714929644    0.1997106935   -1.6915244541
O       -1.7173025232   -0.1168114310    0.6068775458
O       -0.9943852937    1.1405390559    0.7369188961
H        1.4745723089   -2.0841708741    0.8822043014
H        0.2733315985   -2.8219572481   -0.1762171880
H       -0.2430743610   -2.0311268925    1.3196531836
H        2.3095712950   -0.6872238685   -1.1806670684
H        1.1083139017    0.1491909110   -2.1863311577
H        1.1043489052   -1.6093135652   -2.0836237360
H        0.9825475454    2.7428318216    0.5039847083
H        0.6807439480    2.0338430232   -1.0855228429
H        2.1909633978    1.6647722845   -0.2123538031
H        1.0274093947    1.3883423166    2.5306291639
H        2.0253183944    0.0501062026    1.9348205343
H        0.3893350063   -0.2615506894    2.5544968217
22   
torsion grid (75,)
C       -0.8455217975   -0.9294359653   -0.4837871910
C        0.6818415513   -0.8455231263   -0.3767646882
C        0.6294425432    0.4549745573    0.5764336204
C        1.2985787916   -2.0814677344    0.2821752767
C        1.3448653720   -0.6020778680   -1.7415525445
C        1.5368542791    1.5929764420    0.1294719135
C        0.7903371588    0.1547977981    2.0600325063
O       -1.5447882510   -1.6020608314    0.2208390034
O       -1.1691508286    0.4372313803   -0.8484868057
O       -0.8047589095    0.9275098613    0.4733668263
H        2.3487279630   -1.8984557019    0.5319155125
H        1.2673454700   -2.9247700800   -0.4143585767
H        0.7705047604   -2.3830034274    1.1864352770
H        2.4132025916   -0.3987042691   -1.6246192932
H        0.8908305051    0.2281586155   -2.2833390383
H        1.2503756137   -1.5024302411   -2.3575503783
H        1.4249702726    2.4364150111    0.8169248491
H        1.2812650588    1.9361624453   -0.8739191285
H        2.5870641077    1.2826336259    0.1386813132
H        0.5570943369    1.0588698013    2.6316034844
H        1.8182566118   -0.1369804452    2.2924340043
H        0.1078091834   -0.6318315822    2.3867381076
22   
torsion grid (90,)
C       -0.8495635061   -0.9375577272   -0.5872296707
C        0.6637177103   -0.8501277663   -0.3746469286
C        0.6077232715    0.4294314024    0.5790553172
C        1.2212558207   -2.1168357487    0.2812482610
C        1.3799366239   -0.6103671127   -1.7166059227
C        1.4694984527    1.6026467732    0.1261666602
C        0.8092656883    0.1335584485    2.0601473264
O       -1.6117931961   -1.7510670096   -0.1481898420
O       -1.2146866380    0.4273904866   -0.8415863447
O       -0.8331019332    0.8494991474    0.5045408547
H        2.2757313519   -1.9818666835    0.5427673322
H        1.1562355052   -2.9534141481   -0.4203628130
H        0.6715458419   -2.4021101692    1.1783232718
H        2.4445404262   -0.4151163105   -1.5590732358
H        0.9531691631    0.2256287661   -2.2725124699
H        1.2997625494   -1.5078910697   -2.3382716353
H        1.3402638850    2.4369517023    0.8212754706
H        1.1864423170    1.9440461229   -0.8705027203
H        2.5297272248    1.3291295151    0.1152999340
H        0.5965547935    1.0382645750    2.6380568587
H        1.8434789879   -0.1601118952    2.2601079427
H        0.1388790730   -0.6534850806    2.4094082460
22   
torsion grid (105,)
C       -0.8564449778   -0.9073651272   -0.7241926838
C        0.6388829973   -0.8642022867   -0.3925593666
C        0.6165365037    0.3984515534    0.5679041891
C        1.0743944527   -2.1777471507    0.2688411632
C        1.4406635264   -0.6639480357   -1.6940426506
C        1.3805424603    1.6170284614    0.0532517548
C        0.9606173196    0.1193552011    2.0264812883
O       -1.6253438224   -1.8211287635   -0.6198148538
O       -1.2634557519    0.4522714472   -0.7630743461
O       -0.8309495170    0.7440004447    0.6055282988
H        2.1229082961   -2.1256509751    0.5781315148
H        0.9728514730   -2.9985963377   -0.4459063199
H        0.4643528845   -2.4295836189    1.1373607850
H        2.5048892117   -0.5355141600   -1.4750425273
H        1.1005726406    0.2006621585   -2.2667930302
H        1.3384469169   -1.5506294482   -2.3271687712
H        1.2685909123    2.4400139845    0.7643265921
H        0.9950835929    1.9488019573   -0.9120309565
H        2.4480282241    1.3995003804   -0.0515892776
H        0.7850800971    1.0224987279    2.6185449734
H        2.0163388179   -0.1486879793    2.1251495761
H        0.3506564957   -0.6827791610    2.4439188297
22   
torsion grid (120,)
C       -0.8095633062   -0.8252180170   -0.8200305850
C        0.6569292771   -0.8284661685   -0.3611762565
C        0.6389048152    0.4086839518    0.6139885653
C        0.9439468587   -2.1754650332    0.3221726965
C        1.5830819090   -0.6791495483   -1.5832601169
C        1.2345398266    1.6931783446    0.0331906611
C        1.1750281165    0.1589438811    2.0190870557
O       -1.5112885260   -1.7635349977   -1.0839325680
O       -1.3213365972    0.4567063759   -0.5656227787
O       -0.8107036013    0.6146776652    0.7993224748
H        1.9711832139   -2.2081993397    0.6971553603
H        0.8156898186   -2.9840058571   -0.4013651077
H        0.2603240282   -2.3701697378    1.1512087095
H        2.6285614975   -0.6237387042   -1.2630739478
H        1.3600581978    0.2098853320   -2.1765687262
H        1.4784432034   -1.5535458306   -2.2319995288
H        1.1041312796    2.5065240938    0.7520070647
H        0.7364574392    1.9788834277   -0.8950285399
H        2.3043029568    1.5786950434   -0.1644719494
H        1.0200504221    1.0502123331    2.6338904706
H        2.2499844897   -0.0404886325    1.9793862111
H        0.6801365163   -0.6822116051    2.5054412886
22   
torsion grid (135,)
C       -0.8053230549   -0.7695549963   -0.9186101006
C        0.6330762579   -0.8361436845   -0.3826442870
C        0.6256830802    0.3792394036    0.6051071193
C        0.7892244473   -2.2010795265    0.3140582404
C        1.6426680918   -0.7393858189   -1.5380692588
C        1.0997092099    1.6976436173   -0.0136718747
C        1.3004797994    0.1491139074    1.9527513699
O       -1.4238680257   -1.6343101207   -1.4835030662
O       -1.4162371184    0.3722758397   -0.4166691771
O       -0.8068664388    0.4902378635    0.9082125130
H        1.8010577499   -2.3158272926    0.7137056254
H        0.6107456131   -2.9980707351   -0.4116117706
H        0.0723977422   -2.3280756434    1.1290703218
H        2.6657075798   -0.7478667371   -1.1471796240
H        1.5134312175    0.1634724445   -2.1384824048
H        1.5265540634   -1.6029231676   -2.1987206500
H        0.9211241427    2.5101866807    0.6955577899
H        0.5613482490    1.9289685365   -0.9350554214
H        2.1702032069    1.6629511014   -0.2352022804
H        1.1893099428    1.0375547052    2.5807506732
H        2.3700432749   -0.0286614878    1.8050974835
H        0.8751706693   -0.7028940730    2.4841930857
22   
torsion grid (150,)
C       -0.7756865660   -0.7136515816   -0.9181800287
C        0.6480867681   -0.8067936948   -0.3592497205
C        0.6460294107    0.3806934445    0.6469750097
C        0.7559821550   -2.1863043945    0.3239373664
C        1.6804615644   -0.7170061469   -1.4917391538
C        1.0256687642    1.7272983861    0.0224554700
C        1.4094801937    0.1578930414    1.9480706644
O       -1.3266984417   -1.4399748988   -1.7066260991
O       -1.4670571302    0.2771333628   -0.2498296701
O       -0.7660019954    0.4145608415    1.0298403475
H        1.7632144321   -2.3383097592    0.7226978167
H        0.5542151679   -2.9691591839   -0.4114185942
H        0.0352689429   -2.2953913074    1.1384783560
H        2.6949247180   -0.7615674903   -1.0812449050
H        1.5858920034    0.2003851343   -2.0762787327
H        1.5513410467   -1.5629127103   -2.1720102950
H        0.8200197871    2.5247229325    0.7413732804
H        0.4498897387    1.9325765507   -0.8830644288
H        2.0895356085    1.7549185555   -0.2292411333
H        1.3112336348    1.0345834320    2.5943090883
H        2.4723481879    0.0152666330    1.7302438484
H        1.0437978045   -0.7135778016    2.4922493592
22   
torsion grid (165,)
C       -0.7433715354   -0.6875948462   -0.9346604355
C        0.6608684497   -0.8135359402   -0.3446032033
C        0.6508245859    0.3736916677    0.6552804769
C        0.7135461187   -2.1912416256    0.3523834208
C        1.7254606817   -0.7492989151   -1.4444778335
C        0.9658295731    1.7261449115    0.0065728132
C        1.4632611810    0.1829435890    1.9312130961
O       -1.2218722984   -1.2505009042   -1.8884331193
O       -1.5020176635    0.1507667340   -0.1524176426
O       -0.7464187908    0.3657307259    1.0840150298
H        1.7095528058   -2.3691566670    0.7683503813
H        0.5031703349   -2.9755891733   -0.3794116130
H       -0.0221218773   -2.2688406136    1.1571106652
H        2.7265693375   -0.8127725446   -1.0047956474
H        1.6639446225    0.1672667276   -2.0344959519
H        1.5980399433   -1.5933199633   -2.1271202664
H        0.7421402513    2.5242606163    0.7192099528
H        0.3663863449    1.8973589798   -0.8912964054
H        2.0226865882    1.7923481508   -0.2660125730
H        1.3520570419    1.0553760414    2.5811451739
H        2.5232558105    0.0818037538    1.6785934095
H        1.1486811364   -0.7018601935    2.4858838125
22   
torsion grid (180,)
C       -1.0820296249   -0.6885637283   -0.2891578186
C        0.4369976057   -0.5433079885   -0.2639632627
C        0.5588067463    0.7763333617    0.5391847725
C        1.0956494478   -1.7699633504    0.3707666475
C        0.8920248528   -0.3981792177   -1.7333947076
C        1.7732209644    1.6430671872    0.2258707492
C        0.3968647153    0.5862912384    2.0516979127
O       -1.7605747944   -1.6773059012   -0.4273620256
O       -1.6653515253    0.5392429699   -0.1014696836
O       -0.5890574203    1.5258134413    0.0319321538
H        2.1809237365   -1.6323564392    0.4221831229
H        0.8911447282   -2.6534025204   -0.2392395855
H        0.7217132531   -1.9705518094    1.3764575091
H        1.9820035364   -0.3227375396   -1.7874957926
H        0.4555612907    0.4835943226   -2.2093387979
H        0.5852438659   -1.2817456289   -2.2999536606
H        1.7378652065    2.5656810945    0.8119975407
H        1.8209947853    1.9086452392   -0.8308311035
H        2.6865606590    1.1046326235    0.4971229618
H        0.2852670529    1.5657212269    2.5239234461
H        1.2732576076    0.0931593403    2.4809626939
H       -0.4874425649   -0.0088942321    2.2956870659
