20
0 1 C8ClH9N2
C                     0.942770550716     2.675997935296    -0.775448627322
C                     1.967823691435     3.612239460544    -0.622167092978
C                     3.416975366436     2.025545410223     0.149335840892
C                     1.160114653899     1.332864448487    -0.446694639307
C                     2.447629626160     1.028519166781     0.019798075232
C                     0.258896960469    -0.557951221500    -1.926241861697
C                    -0.945361476424     0.266922583757    -2.445392000325
C                     0.109686407574     0.253181412669    -0.597283222576
N                     3.188696890424     3.305952320729    -0.164901620294
N                    -1.244723697425     0.651236532861    -1.040777842622
Cl                    2.879939524931    -0.622490002203     0.439848340351
H                    -0.021046843489     3.002356909589    -1.155592559462
H                     1.798346386928     4.656485430061    -0.878945889367
H                     4.409043219414     1.773107491536     0.518469653777
H                     0.030319515208    -1.615861806038    -1.787901428934
H                     1.205883889364    -0.450083580124    -2.456393880291
H                    -0.631714587589     1.100330710354    -3.089477634536
H                    -1.754143288460    -0.281744821552    -2.938374479347
H                     0.095844528771    -0.350447628933     0.315839661610
H                    -1.521412098435     1.616035339121    -0.875101718562
