
  -OEChem-05262117483D

 44 46  0     1  0  0  0  0  0999 V2000
   -1.4954    2.3818   -4.5713 C   0  0  0  0  0  0  0  0  0  0  0  0
   -2.7318    2.6630   -5.1611 C   0  0  0  0  0  0  0  0  0  0  0  0
   -1.4446    1.4614   -3.5256 C   0  0  0  0  0  0  0  0  0  0  0  0
   -3.8606    2.0048   -4.6679 C   0  0  0  0  0  0  0  0  0  0  0  0
   -2.6348    0.8531   -3.1001 C   0  0  0  0  0  0  0  0  0  0  0  0
   -0.9371    1.6224    0.8496 C   0  0  0  0  0  0  0  0  0  0  0  0
   -0.5149    0.4189    1.7008 C   0  0  0  0  0  0  0  0  0  0  0  0
    0.1102   -2.0511    1.7012 C   0  0  0  0  0  0  0  0  0  0  0  0
   -2.0463    1.2414   -0.1300 C   0  0  0  0  0  0  0  0  0  0  0  0
    1.5798   -1.8832    2.1245 C   0  0  0  0  0  0  0  0  0  0  0  0
   -1.3657   -1.0716   -0.1248 C   0  0  0  0  0  0  0  0  0  0  0  0
    1.1290   -0.6414    0.0716 C   0  0  0  0  0  0  0  0  0  0  0  0
   -0.1972   -0.8152    0.8315 C   0  0  1  0  0  0  0  0  0  0  0  0
    4.6693   -0.4179    1.9031 C   0  0  0  0  0  0  0  0  0  0  0  0
   -2.6272   -0.1870   -1.9957 C   0  0  0  0  0  0  0  0  0  0  0  0
   -3.8255    1.1220   -3.6585 N   0  0  0  0  0  0  0  0  0  0  0  0
   -1.6407    0.0989   -0.9566 N   0  0  1  0  0  0  0  0  0  0  0  0
    2.1399   -0.9378    1.1201 N   0  0  2  0  0  0  0  0  0  0  0  0
    3.8755   -0.4177   -0.6382 O   0  0  0  0  0  0  0  0  0  0  0  0
    4.0491   -2.6326    0.6089 O   0  0  0  0  0  0  0  0  0  0  0  0
    3.7140   -1.2004    0.5917 S   0  0  0  0  0  0  0  0  0  0  0  0
   -0.5892    2.8698   -4.9219 H   0  0  0  0  0  0  0  0  0  0  0  0
   -2.8233    3.3733   -5.9780 H   0  0  0  0  0  0  0  0  0  0  0  0
   -0.5137    1.2099   -3.0273 H   0  0  0  0  0  0  0  0  0  0  0  0
   -4.8426    2.1978   -5.0980 H   0  0  0  0  0  0  0  0  0  0  0  0
   -1.2851    2.4356    1.4964 H   0  0  0  0  0  0  0  0  0  0  0  0
   -0.0814    2.0086    0.2853 H   0  0  0  0  0  0  0  0  0  0  0  0
    0.3473    0.6758    2.3255 H   0  0  0  0  0  0  0  0  0  0  0  0
   -1.3364    0.1561    2.3805 H   0  0  0  0  0  0  0  0  0  0  0  0
    0.0016   -2.9595    1.0982 H   0  0  0  0  0  0  0  0  0  0  0  0
   -0.5597   -2.1380    2.5612 H   0  0  0  0  0  0  0  0  0  0  0  0
   -2.9746    1.0056    0.4283 H   0  0  0  0  0  0  0  0  0  0  0  0
   -2.2739    2.0849   -0.7879 H   0  0  0  0  0  0  0  0  0  0  0  0
    1.6687   -1.4390    3.1216 H   0  0  0  0  0  0  0  0  0  0  0  0
    2.1189   -2.8339    2.1166 H   0  0  0  0  0  0  0  0  0  0  0  0
   -1.1217   -1.9145   -0.7808 H   0  0  0  0  0  0  0  0  0  0  0  0
   -2.2555   -1.3680    0.4673 H   0  0  0  0  0  0  0  0  0  0  0  0
    1.1830   -1.3513   -0.7630 H   0  0  0  0  0  0  0  0  0  0  0  0
    1.2889    0.3583   -0.3259 H   0  0  0  0  0  0  0  0  0  0  0  0
    5.7225   -0.5775    1.6649 H   0  0  0  0  0  0  0  0  0  0  0  0
    4.4260    0.6443    1.9173 H   0  0  0  0  0  0  0  0  0  0  0  0
    4.4215   -0.8950    2.8526 H   0  0  0  0  0  0  0  0  0  0  0  0
   -3.6533   -0.2755   -1.6011 H   0  0  0  0  0  0  0  0  0  0  0  0
   -2.3756   -1.1565   -2.4435 H   0  0  0  0  0  0  0  0  0  0  0  0
  1  2  1  0  0  0  0
  1  3  2  0  0  0  0
  1 22  1  0  0  0  0
  2  4  2  0  0  0  0
  2 23  1  0  0  0  0
  3  5  1  0  0  0  0
  3 24  1  0  0  0  0
  4 16  1  0  0  0  0
  4 25  1  0  0  0  0
  5 15  1  0  0  0  0
  5 16  2  0  0  0  0
  6  7  1  0  0  0  0
  6  9  1  0  0  0  0
  6 26  1  0  0  0  0
  6 27  1  0  0  0  0
  7 13  1  0  0  0  0
  7 28  1  0  0  0  0
  7 29  1  0  0  0  0
  8 10  1  0  0  0  0
  8 13  1  0  0  0  0
  8 30  1  0  0  0  0
  8 31  1  0  0  0  0
  9 17  1  0  0  0  0
  9 32  1  0  0  0  0
  9 33  1  0  0  0  0
 10 18  1  0  0  0  0
 10 34  1  0  0  0  0
 10 35  1  0  0  0  0
 11 13  1  0  0  0  0
 11 17  1  0  0  0  0
 11 36  1  0  0  0  0
 11 37  1  0  0  0  0
 12 13  1  0  0  0  0
 12 18  1  0  0  0  0
 12 38  1  0  0  0  0
 12 39  1  0  0  0  0
 14 21  1  0  0  0  0
 14 40  1  0  0  0  0
 14 41  1  0  0  0  0
 14 42  1  0  0  0  0
 15 17  1  0  0  0  0
 15 43  1  0  0  0  0
 15 44  1  0  0  0  0
 18 21  1  0  0  0  0
 19 21  2  0  0  0  0
 20 21  2  0  0  0  0
M  END
$$$$
