
  -OEChem-05262117483D

 31 33  0     0  0  0  0  0  0999 V2000
    5.8451    1.1520    4.0800 C   0  0  0  0  0  0  0  0  0  0  0  0
    5.3361    2.4680    4.1973 C   0  0  0  0  0  0  0  0  0  0  0  0
    6.5084    0.7532    2.9357 C   0  0  0  0  0  0  0  0  0  0  0  0
   10.2003   -1.3466   -1.0667 C   0  0  0  0  0  0  0  0  0  0  0  0
    5.5047    3.3748    3.1715 C   0  0  0  0  0  0  0  0  0  0  0  0
   11.0515   -1.6075   -2.1372 C   0  0  0  0  0  0  0  0  0  0  0  0
    9.0531   -3.4320   -1.4839 C   0  0  0  0  0  0  0  0  0  0  0  0
    6.9999    3.5547   -0.0669 C   0  0  0  0  0  0  0  0  0  0  0  0
    6.6915    1.6651    1.8607 C   0  0  0  0  0  0  0  0  0  0  0  0
    9.1758   -2.2531   -0.7305 C   0  0  0  0  0  0  0  0  0  0  0  0
    6.1885    3.0005    1.9858 C   0  0  0  0  0  0  0  0  0  0  0  0
   10.9038   -2.7711   -2.8990 C   0  0  0  0  0  0  0  0  0  0  0  0
    9.8982   -3.6914   -2.5624 C   0  0  0  0  0  0  0  0  0  0  0  0
    7.3646    1.3970    0.6186 C   0  0  0  0  0  0  0  0  0  0  0  0
    8.2590   -2.0634    0.4119 C   0  0  0  0  0  0  0  0  0  0  0  0
    6.3469    3.9450    1.0060 N   0  0  0  0  0  0  0  0  0  0  0  0
    7.5174    2.3295   -0.3168 N   0  0  0  0  0  0  0  0  0  0  0  0
    7.7284   -0.9817    0.8781 N   0  0  0  0  0  0  0  0  0  0  0  0
    7.9636    0.1998    0.2608 N   0  0  0  0  0  0  0  0  0  0  0  0
   11.9840   -3.0488   -4.2364 Cl  0  0  0  0  0  0  0  0  0  0  0  0
    9.6808   -5.1685   -3.4642 Cl  0  0  0  0  0  0  0  0  0  0  0  0
    5.7114    0.4483    4.8972 H   0  0  0  0  0  0  0  0  0  0  0  0
    4.8132    2.7641    5.1032 H   0  0  0  0  0  0  0  0  0  0  0  0
    6.8855   -0.2554    2.8451 H   0  0  0  0  0  0  0  0  0  0  0  0
   10.3704   -0.4576   -0.4684 H   0  0  0  0  0  0  0  0  0  0  0  0
    5.1306    4.3920    3.2365 H   0  0  0  0  0  0  0  0  0  0  0  0
   11.8455   -0.9115   -2.3881 H   0  0  0  0  0  0  0  0  0  0  0  0
    8.2837   -4.1572   -1.2357 H   0  0  0  0  0  0  0  0  0  0  0  0
    7.1444    4.2905   -0.8567 H   0  0  0  0  0  0  0  0  0  0  0  0
    7.9536   -2.9631    0.9435 H   0  0  0  0  0  0  0  0  0  0  0  0
    8.3405    0.2230   -0.6876 H   0  0  0  0  0  0  0  0  0  0  0  0
  1  2  1  0  0  0  0
  1  3  2  0  0  0  0
  1 22  1  0  0  0  0
  2  5  2  0  0  0  0
  2 23  1  0  0  0  0
  3  9  1  0  0  0  0
  3 24  1  0  0  0  0
  4  6  2  0  0  0  0
  4 10  1  0  0  0  0
  4 25  1  0  0  0  0
  5 11  1  0  0  0  0
  5 26  1  0  0  0  0
  6 12  1  0  0  0  0
  6 27  1  0  0  0  0
  7 10  2  0  0  0  0
  7 13  1  0  0  0  0
  7 28  1  0  0  0  0
  8 16  1  0  0  0  0
  8 17  2  0  0  0  0
  8 29  1  0  0  0  0
  9 11  1  0  0  0  0
  9 14  2  0  0  0  0
 10 15  1  0  0  0  0
 11 16  2  0  0  0  0
 12 13  2  0  0  0  0
 12 20  1  0  0  0  0
 13 21  1  0  0  0  0
 14 17  1  0  0  0  0
 14 19  1  0  0  0  0
 15 18  2  0  0  0  0
 15 30  1  0  0  0  0
 18 19  1  0  0  0  0
 19 31  1  0  0  0  0
M  END
$$$$
