
  -OEChem-05262117483D

 44 46  0     1  0  0  0  0  0999 V2000
   -1.1095   -2.7045   -6.2049 C   0  0  0  0  0  0  0  0  0  0  0  0
    0.2184   -3.1176   -6.1235 C   0  0  0  0  0  0  0  0  0  0  0  0
   -1.6007   -1.8381   -5.2253 C   0  0  0  0  0  0  0  0  0  0  0  0
    0.9962   -2.6402   -5.0632 C   0  0  0  0  0  0  0  0  0  0  0  0
   -0.7452   -1.4144   -4.2030 C   0  0  0  0  0  0  0  0  0  0  0  0
   -0.9447   -1.0598    0.6288 C   0  0  0  0  0  0  0  0  0  0  0  0
   -1.9204   -2.2309    0.7930 C   0  0  0  0  0  0  0  0  0  0  0  0
   -3.0625   -4.2030   -0.3475 C   0  0  0  0  0  0  0  0  0  0  0  0
   -1.2378   -0.2825   -0.6565 C   0  0  0  0  0  0  0  0  0  0  0  0
   -2.6539   -5.2658   -1.3740 C   0  0  0  0  0  0  0  0  0  0  0  0
   -2.2358   -2.2187   -1.6937 C   0  0  0  0  0  0  0  0  0  0  0  0
   -0.7075   -3.9440   -0.6910 C   0  0  0  0  0  0  0  0  0  0  0  0
   -1.9840   -3.1113   -0.4628 C   0  0  1  0  0  0  0  0  0  0  0  0
   -0.3772   -7.3146   -2.8360 C   0  0  0  0  0  0  0  0  0  0  0  0
   -1.2229   -0.5023   -3.0905 C   0  0  0  0  0  0  0  0  0  0  0  0
    0.5388   -1.8031   -4.1274 N   0  0  0  0  0  0  0  0  0  0  0  0
   -1.2126   -1.1871   -1.8003 N   0  0  1  0  0  0  0  0  0  0  0  0
   -1.1706   -5.1612   -1.4211 N   0  0  2  0  0  0  0  0  0  0  0  0
    0.9160   -4.9967   -2.8709 O   0  0  0  0  0  0  0  0  0  0  0  0
   -1.3500   -5.1687   -4.0197 O   0  0  0  0  0  0  0  0  0  0  0  0
   -0.4538   -5.5156   -2.9043 S   0  0  0  0  0  0  0  0  0  0  0  0
   -1.7569   -3.0636   -7.0007 H   0  0  0  0  0  0  0  0  0  0  0  0
    0.6433   -3.8073   -6.8470 H   0  0  0  0  0  0  0  0  0  0  0  0
   -2.6353   -1.5050   -5.2420 H   0  0  0  0  0  0  0  0  0  0  0  0
    2.0325   -2.9549   -4.9560 H   0  0  0  0  0  0  0  0  0  0  0  0
   -1.0119   -0.3881    1.4923 H   0  0  0  0  0  0  0  0  0  0  0  0
    0.0846   -1.4328    0.5831 H   0  0  0  0  0  0  0  0  0  0  0  0
   -1.6492   -2.8404    1.6638 H   0  0  0  0  0  0  0  0  0  0  0  0
   -2.9271   -1.8352    0.9868 H   0  0  0  0  0  0  0  0  0  0  0  0
   -4.0717   -3.8231   -0.5342 H   0  0  0  0  0  0  0  0  0  0  0  0
   -3.0457   -4.6254    0.6635 H   0  0  0  0  0  0  0  0  0  0  0  0
   -2.2162    0.2343   -0.5640 H   0  0  0  0  0  0  0  0  0  0  0  0
   -0.4764    0.4894   -0.8070 H   0  0  0  0  0  0  0  0  0  0  0  0
   -2.9537   -6.2746   -1.0725 H   0  0  0  0  0  0  0  0  0  0  0  0
   -3.0837   -5.0574   -2.3581 H   0  0  0  0  0  0  0  0  0  0  0  0
   -2.2154   -2.8234   -2.6051 H   0  0  0  0  0  0  0  0  0  0  0  0
   -3.2518   -1.7783   -1.6170 H   0  0  0  0  0  0  0  0  0  0  0  0
    0.0457   -3.4030   -1.2631 H   0  0  0  0  0  0  0  0  0  0  0  0
   -0.2655   -4.2597    0.2610 H   0  0  0  0  0  0  0  0  0  0  0  0
    0.0396   -7.6482   -3.7882 H   0  0  0  0  0  0  0  0  0  0  0  0
    0.2681   -7.5972   -2.0045 H   0  0  0  0  0  0  0  0  0  0  0  0
   -1.3861   -7.7091   -2.7077 H   0  0  0  0  0  0  0  0  0  0  0  0
   -0.5299    0.3417   -3.0227 H   0  0  0  0  0  0  0  0  0  0  0  0
   -2.2205   -0.0937   -3.3393 H   0  0  0  0  0  0  0  0  0  0  0  0
  1  2  1  0  0  0  0
  1  3  2  0  0  0  0
  1 22  1  0  0  0  0
  2  4  2  0  0  0  0
  2 23  1  0  0  0  0
  3  5  1  0  0  0  0
  3 24  1  0  0  0  0
  4 16  1  0  0  0  0
  4 25  1  0  0  0  0
  5 15  1  0  0  0  0
  5 16  2  0  0  0  0
  6  7  1  0  0  0  0
  6  9  1  0  0  0  0
  6 26  1  0  0  0  0
  6 27  1  0  0  0  0
  7 13  1  0  0  0  0
  7 28  1  0  0  0  0
  7 29  1  0  0  0  0
  8 10  1  0  0  0  0
  8 13  1  0  0  0  0
  8 30  1  0  0  0  0
  8 31  1  0  0  0  0
  9 17  1  0  0  0  0
  9 32  1  0  0  0  0
  9 33  1  0  0  0  0
 10 18  1  0  0  0  0
 10 34  1  0  0  0  0
 10 35  1  0  0  0  0
 11 13  1  0  0  0  0
 11 17  1  0  0  0  0
 11 36  1  0  0  0  0
 11 37  1  0  0  0  0
 12 13  1  0  0  0  0
 12 18  1  0  0  0  0
 12 38  1  0  0  0  0
 12 39  1  0  0  0  0
 14 21  1  0  0  0  0
 14 40  1  0  0  0  0
 14 41  1  0  0  0  0
 14 42  1  0  0  0  0
 15 17  1  0  0  0  0
 15 43  1  0  0  0  0
 15 44  1  0  0  0  0
 18 21  1  0  0  0  0
 19 21  2  0  0  0  0
 20 21  2  0  0  0  0
M  END
$$$$
