31
0 1 C15Cl2H10N4
C                     9.582457778432     3.730887552974    -2.071833212896
C                     8.754966165265     4.879818538660    -2.083539406561
C                     9.080611639341     2.515924845378    -1.643850507304
C                     4.192115144770    -2.079544600172    -1.384796254201
C                     7.435685626982     4.798169664826    -1.683265800873
C                     3.293236525738    -1.976517617914    -2.442583000688
C                     5.866753166316    -0.920661622106    -2.682896453459
C                     5.132138080406     2.329394683546    -0.501224482871
C                     7.735775911157     2.413336863243    -1.208319702648
C                     5.482455097820    -1.534720222645    -1.480347878094
C                     6.894761259039     3.562922319428    -1.244405942385
C                     3.677929371017    -1.352855800404    -3.633004384874
C                     4.978404999148    -0.835374422110    -3.751847902448
C                     7.109071419937     1.207636529578    -0.728929918173
C                     6.389461661845    -1.709025845858    -0.332330109395
N                     5.572742366277     3.507687336647    -0.879719731661
N                     5.831259139379     1.167443980522    -0.402472273497
N                     7.456069522554    -1.096085142760     0.048655262136
N                     7.875388290139     0.046534478629    -0.642874522204
Cl                    2.528758758014    -1.242121553160    -4.938991017939
Cl                    5.515227677489    -0.063476954879    -5.223844607434
H                    10.612365262792     3.803994019641    -2.409877430729
H                     9.161854295582     5.829304708020    -2.421342219043
H                     9.722812164407     1.639934823492    -1.672379397959
H                     3.881690045547    -2.574027323045    -0.468154902492
H                     6.778446002008     5.662336592509    -1.697819735240
H                     2.289833882120    -2.381390387409    -2.358829366832
H                     6.863810424835    -0.515601047620    -2.799379279745
H                     4.081805197106     2.259126739313    -0.222533632961
H                     6.146181699841    -2.551689641710     0.316416279558
H                     8.839080967859     0.231792503739    -0.390870417702
