31
0 1 C15Cl2H10N4
C                     8.887469334177     3.880637893083    -0.581310315395
C                     8.841031938399     4.697145258469     0.574816178581
C                     8.182520028533     2.692791739209    -0.622514339063
C                     6.449683494240    -0.233836418964    -3.508303510591
C                     8.093019244413     4.316342574787     1.670501813714
C                     6.987518292790    -0.008807339739    -4.773123003639
C                     7.401914833882    -2.454139516580    -3.504511532535
C                     5.968894628722     1.618707599367     2.676706138449
C                     7.406415861774     2.278656526991     0.490997662307
C                     6.659700366343    -1.460336607947    -2.849259788212
C                     7.359845272092     3.101446723440     1.654350759025
C                     7.748808159411    -0.995589839530    -5.408201755968
C                     7.951110358047    -2.228422242392    -4.767777620589
C                     6.629821004864     1.065377761824     0.567406454065
C                     6.089562791652    -1.760086964556    -1.514292278362
N                     6.627222226166     2.755781734635     2.759916333768
N                     5.923612876595     0.748277393719     1.636888736589
N                     6.036593237677    -1.006213781132    -0.469552284877
N                     6.604400802776     0.226869409395    -0.530924125186
Cl                    8.411705244404    -0.665836108762    -6.985027402742
Cl                    8.878921031975    -3.498960871062    -5.519988854191
H                     9.480621005681     4.189352374055    -1.437583369041
H                     9.400105888728     5.628938747631     0.595418481462
H                     8.239922087243     2.090888011109    -1.526082865210
H                     5.826420311214     0.531312287254    -3.055398135326
H                     8.041505822077     4.925033783795     2.568157959304
H                     6.812980371365     0.932182074571    -5.285208944010
H                     7.565688290697    -3.414783001128    -3.025032713994
H                     5.379791909019     1.327233590207     3.545172091208
H                     5.673515540461    -2.755317455718    -1.365387087176
H                     7.224726284975     0.442732689531    -1.304807753241
