18
0 1 C7H7NO3
C                    -0.600896889080    -0.619124625647     1.881057943854
C                    -0.145729545827    -0.722780519145     0.595015941650
C                    -1.027660470921    -1.760825119139     2.627036877525
C                    -0.071224379124    -2.005227788806    -0.082850084936
C                    -0.969061889620    -2.967838293838     1.999649917040
C                    -2.614503214747    -4.598910309236     2.498644388935
C                    -2.800311764075    -5.871077449020     3.279579774291
N                    -0.515025694405    -3.083654473258     0.721929797986
O                     0.325411725919    -2.221971699197    -1.227824470828
O                    -3.440749361723    -4.008358273697     1.851653159080
O                    -1.295809369946    -4.161098533839     2.619670788962
H                    -0.642543373689     0.357277428144     2.357405419751
H                     0.180006597473     0.141297818982     0.026654666685
H                    -1.392134021200    -1.692452534213     3.644191148774
H                    -2.092214848880    -6.629349153420     2.933935153517
H                    -3.822586618603    -6.225793442502     3.155083776256
H                    -2.592615429293    -5.687401124010     4.337665246605
H                    -0.483016770369    -3.999322234151     0.283735411590
