
  -OEChem-05262117483D

 22 23  0     0  0  0  0  0  0999 V2000
    1.9429   -0.9369   -0.1272 C   0  0  0  0  0  0  0  0  0  0  0  0
    0.8010   -0.4376    0.5101 C   0  0  0  0  0  0  0  0  0  0  0  0
    2.9548   -1.5401    0.6199 C   0  0  0  0  0  0  0  0  0  0  0  0
    0.6807   -0.5251    1.8993 C   0  0  0  0  0  0  0  0  0  0  0  0
    5.1113   -3.5813    4.0112 C   0  0  0  0  0  0  0  0  0  0  0  0
    5.9088   -2.6496    3.3014 C   0  0  0  0  0  0  0  0  0  0  0  0
    2.8436   -1.6476    2.0121 C   0  0  0  0  0  0  0  0  0  0  0  0
    1.7077   -1.1143    2.6284 C   0  0  0  0  0  0  0  0  0  0  0  0
    3.8058   -3.3068    3.6375 C   0  0  0  0  0  0  0  0  0  0  0  0
    2.5276   -3.9898    4.0084 C   0  0  0  0  0  0  0  0  0  0  0  0
    5.1736   -1.8486    2.5352 N   0  0  0  0  0  0  0  0  0  0  0  0
    3.8841   -2.2498    2.7605 N   0  0  0  0  0  0  0  0  0  0  0  0
    1.6045   -1.1513    3.9801 F   0  0  0  0  0  0  0  0  0  0  0  0
    2.0430   -0.8612   -1.2060 H   0  0  0  0  0  0  0  0  0  0  0  0
    0.0078    0.0264   -0.0690 H   0  0  0  0  0  0  0  0  0  0  0  0
    3.8504   -1.9296    0.1473 H   0  0  0  0  0  0  0  0  0  0  0  0
   -0.1807   -0.1284    2.4276 H   0  0  0  0  0  0  0  0  0  0  0  0
    5.4349   -4.3563    4.6932 H   0  0  0  0  0  0  0  0  0  0  0  0
    6.9852   -2.5273    3.3174 H   0  0  0  0  0  0  0  0  0  0  0  0
    1.9631   -3.4197    4.7515 H   0  0  0  0  0  0  0  0  0  0  0  0
    1.8812   -4.1289    3.1356 H   0  0  0  0  0  0  0  0  0  0  0  0
    2.7498   -4.9741    4.4266 H   0  0  0  0  0  0  0  0  0  0  0  0
  1  2  1  0  0  0  0
  1  3  2  0  0  0  0
  1 14  1  0  0  0  0
  2  4  2  0  0  0  0
  2 15  1  0  0  0  0
  3  7  1  0  0  0  0
  3 16  1  0  0  0  0
  4  8  1  0  0  0  0
  4 17  1  0  0  0  0
  5  6  1  0  0  0  0
  5  9  2  0  0  0  0
  5 18  1  0  0  0  0
  6 11  2  0  0  0  0
  6 19  1  0  0  0  0
  7  8  2  0  0  0  0
  7 12  1  0  0  0  0
  8 13  1  0  0  0  0
  9 10  1  0  0  0  0
  9 12  1  0  0  0  0
 10 20  1  0  0  0  0
 10 21  1  0  0  0  0
 10 22  1  0  0  0  0
 11 12  1  0  0  0  0
M  END
$$$$
