
  -OEChem-05262117483D

 27 28  0     0  0  0  0  0  0999 V2000
   -2.8164    3.1918    3.0879 C   0  0  0  0  0  0  0  0  0  0  0  0
   -2.5866    2.1492    3.9938 C   0  0  0  0  0  0  0  0  0  0  0  0
   -2.2589    3.1285    1.8098 C   0  0  0  0  0  0  0  0  0  0  0  0
   -1.8012    1.0575    3.6244 C   0  0  0  0  0  0  0  0  0  0  0  0
   -1.4868    2.0254    1.4258 C   0  0  0  0  0  0  0  0  0  0  0  0
   -1.2535    0.9859    2.3349 C   0  0  0  0  0  0  0  0  0  0  0  0
   -1.2189   -1.4100    1.8789 C   0  0  0  0  0  0  0  0  0  0  0  0
    0.4833   -0.0170    0.9053 C   0  0  0  0  0  0  0  0  0  0  0  0
   -0.2816   -2.6074    1.9616 C   0  0  0  0  0  0  0  0  0  0  0  0
    1.5066   -1.1455    0.9498 C   0  0  0  0  0  0  0  0  0  0  0  0
   -0.4590   -0.1688    2.0012 N   0  0  0  0  0  0  0  0  0  0  0  0
    0.7799   -2.4786    0.8813 N   0  3  0  0  0  0  0  0  0  0  0  0
   -3.4181    4.0472    3.3801 H   0  0  0  0  0  0  0  0  0  0  0  0
   -3.0025    2.1963    4.9963 H   0  0  0  0  0  0  0  0  0  0  0  0
   -2.4298    3.9332    1.1004 H   0  0  0  0  0  0  0  0  0  0  0  0
   -1.5896    0.2696    4.3431 H   0  0  0  0  0  0  0  0  0  0  0  0
   -1.0813    1.9924    0.4191 H   0  0  0  0  0  0  0  0  0  0  0  0
   -1.8010   -1.4500    0.9383 H   0  0  0  0  0  0  0  0  0  0  0  0
   -1.9351   -1.4884    2.6979 H   0  0  0  0  0  0  0  0  0  0  0  0
    1.0243    0.9255    1.0154 H   0  0  0  0  0  0  0  0  0  0  0  0
   -0.0015   -0.0038   -0.0895 H   0  0  0  0  0  0  0  0  0  0  0  0
    0.2495   -2.6275    2.9146 H   0  0  0  0  0  0  0  0  0  0  0  0
   -0.7996   -3.5550    1.8006 H   0  0  0  0  0  0  0  0  0  0  0  0
    2.2022   -1.1086    0.1089 H   0  0  0  0  0  0  0  0  0  0  0  0
    2.0571   -1.1412    1.8918 H   0  0  0  0  0  0  0  0  0  0  0  0
    0.3290   -2.5638   -0.0382 H   0  0  0  0  0  0  0  0  0  0  0  0
    1.4512   -3.2517    0.9498 H   0  0  0  0  0  0  0  0  0  0  0  0
  1  2  1  0  0  0  0
  1  3  2  0  0  0  0
  1 13  1  0  0  0  0
  2  4  2  0  0  0  0
  2 14  1  0  0  0  0
  3  5  1  0  0  0  0
  3 15  1  0  0  0  0
  4  6  1  0  0  0  0
  4 16  1  0  0  0  0
  5  6  2  0  0  0  0
  5 17  1  0  0  0  0
  6 11  1  0  0  0  0
  7  9  1  0  0  0  0
  7 11  1  0  0  0  0
  7 18  1  0  0  0  0
  7 19  1  0  0  0  0
  8 10  1  0  0  0  0
  8 11  1  0  0  0  0
  8 20  1  0  0  0  0
  8 21  1  0  0  0  0
  9 12  1  0  0  0  0
  9 22  1  0  0  0  0
  9 23  1  0  0  0  0
 10 12  1  0  0  0  0
 10 24  1  0  0  0  0
 10 25  1  0  0  0  0
 12 26  1  0  0  0  0
 12 27  1  0  0  0  0
M  CHG  1  12   1
M  END
$$$$
