18
0 1 C7H8N2O
C                     1.547979662551     0.093566098081     1.523592387919
C                     0.280177086440     0.014211397958     0.937953445275
C                     1.763776721451    -0.532330371289     2.748421318852
C                    -0.715201399712    -0.682055427311     1.627432884887
C                     0.686012651535    -1.202221231635     3.356492252793
C                     0.325390140781    -2.989257392328     5.084320336457
C                     0.687263361872    -3.304264335387     6.529597100749
N                    -0.532942565821    -1.266699061707     2.818158191420
N                     0.886186970397    -1.799117054158     4.620149630352
O                    -0.400978554401    -3.706179538743     4.419384374006
H                     2.359160562973     0.621036870999     1.028492321621
H                     0.066220156622     0.477934716482    -0.020204393370
H                     2.743223200528    -0.519103068315     3.220113405865
H                    -1.718343259510    -0.764787442228     1.211480848552
H                    -0.070869248298    -2.864823853080     7.186638982784
H                     1.664253072248    -2.911288983036     6.829256698175
H                     0.672328134159    -4.386120543257     6.666814095586
H                     1.629764534929    -1.403181521533     5.179489756818
