
  -OEChem-05262117483D

 18 18  0     0  0  0  0  0  0999 V2000
   -0.8274   -0.5459    1.8456 C   0  0  0  0  0  0  0  0  0  0  0  0
   -0.4220   -0.6601    0.5439 C   0  0  0  0  0  0  0  0  0  0  0  0
   -1.1451   -1.6889    2.6422 C   0  0  0  0  0  0  0  0  0  0  0  0
   -0.2931   -1.9555   -0.1002 C   0  0  0  0  0  0  0  0  0  0  0  0
   -1.0215   -2.9093    2.0513 C   0  0  0  0  0  0  0  0  0  0  0  0
   -0.3286   -4.7517    3.3715 C   0  0  0  0  0  0  0  0  0  0  0  0
   -0.8770   -5.9824    4.0404 C   0  0  0  0  0  0  0  0  0  0  0  0
   -0.6225   -3.0351    0.7563 N   0  0  0  0  0  0  0  0  0  0  0  0
    0.0534   -2.1811   -1.2597 O   0  0  0  0  0  0  0  0  0  0  0  0
    0.8066   -4.3505    3.3914 O   0  0  0  0  0  0  0  0  0  0  0  0
   -1.3496   -4.0952    2.6846 O   0  0  0  0  0  0  0  0  0  0  0  0
   -0.9131    0.4402    2.2953 H   0  0  0  0  0  0  0  0  0  0  0  0
   -0.1814    0.2052   -0.0637 H   0  0  0  0  0  0  0  0  0  0  0  0
   -1.4643   -1.6127    3.6739 H   0  0  0  0  0  0  0  0  0  0  0  0
   -1.6634   -5.7000    4.7462 H   0  0  0  0  0  0  0  0  0  0  0  0
   -0.0727   -6.4992    4.5621 H   0  0  0  0  0  0  0  0  0  0  0  0
   -1.3284   -6.6427    3.2946 H   0  0  0  0  0  0  0  0  0  0  0  0
   -0.5417   -3.9605    0.3457 H   0  0  0  0  0  0  0  0  0  0  0  0
  1  2  2  0  0  0  0
  1  3  1  0  0  0  0
  1 12  1  0  0  0  0
  2  4  1  0  0  0  0
  2 13  1  0  0  0  0
  3  5  2  0  0  0  0
  3 14  1  0  0  0  0
  4  8  1  0  0  0  0
  4  9  2  0  0  0  0
  5  8  1  0  0  0  0
  5 11  1  0  0  0  0
  6  7  1  0  0  0  0
  6 10  2  0  0  0  0
  6 11  1  0  0  0  0
  7 15  1  0  0  0  0
  7 16  1  0  0  0  0
  7 17  1  0  0  0  0
  8 18  1  0  0  0  0
M  END
$$$$
