
  -OEChem-05262117483D

 22 23  0     0  0  0  0  0  0999 V2000
    1.8913   -1.0138   -0.0982 C   0  0  0  0  0  0  0  0  0  0  0  0
    2.8636   -1.6863    0.6490 C   0  0  0  0  0  0  0  0  0  0  0  0
    0.8365   -0.3634    0.5532 C   0  0  0  0  0  0  0  0  0  0  0  0
    2.7908   -1.6968    2.0442 C   0  0  0  0  0  0  0  0  0  0  0  0
    0.7568   -0.3810    1.9454 C   0  0  0  0  0  0  0  0  0  0  0  0
    3.7616   -1.2573    8.2283 C   0  0  0  0  0  0  0  0  0  0  0  0
    2.4304   -1.4942    8.3537 C   0  0  0  0  0  0  0  0  0  0  0  0
    1.7403   -1.0364    2.7019 C   0  0  0  0  0  0  0  0  0  0  0  0
    2.9335   -1.2463    6.2723 C   0  0  0  0  0  0  0  0  0  0  0  0
    1.5849   -1.0138    4.1928 C   0  0  0  0  0  0  0  0  0  0  0  0
    4.0787   -1.0967    6.8790 N   0  0  0  0  0  0  0  0  0  0  0  0
    2.7701   -1.2279    4.8994 N   0  0  0  0  0  0  0  0  0  0  0  0
    0.5117   -0.8190    4.7437 O   0  0  0  0  0  0  0  0  0  0  0  0
    1.8815   -1.4939    7.0803 O   0  0  0  0  0  0  0  0  0  0  0  0
    1.9508   -1.0040   -1.1834 H   0  0  0  0  0  0  0  0  0  0  0  0
    3.6725   -2.2096    0.1465 H   0  0  0  0  0  0  0  0  0  0  0  0
    0.0759    0.1536   -0.0256 H   0  0  0  0  0  0  0  0  0  0  0  0
    3.5338   -2.2581    2.6049 H   0  0  0  0  0  0  0  0  0  0  0  0
   -0.0605    0.1060    2.4681 H   0  0  0  0  0  0  0  0  0  0  0  0
    4.5145   -1.1844    9.0011 H   0  0  0  0  0  0  0  0  0  0  0  0
    1.7432   -1.6598    9.1688 H   0  0  0  0  0  0  0  0  0  0  0  0
    3.6508   -1.1385    4.4083 H   0  0  0  0  0  0  0  0  0  0  0  0
  1  2  1  0  0  0  0
  1  3  2  0  0  0  0
  1 15  1  0  0  0  0
  2  4  2  0  0  0  0
  2 16  1  0  0  0  0
  3  5  1  0  0  0  0
  3 17  1  0  0  0  0
  4  8  1  0  0  0  0
  4 18  1  0  0  0  0
  5  8  2  0  0  0  0
  5 19  1  0  0  0  0
  6  7  2  0  0  0  0
  6 11  1  0  0  0  0
  6 20  1  0  0  0  0
  7 14  1  0  0  0  0
  7 21  1  0  0  0  0
  8 10  1  0  0  0  0
  9 11  2  0  0  0  0
  9 12  1  0  0  0  0
  9 14  1  0  0  0  0
 10 12  1  0  0  0  0
 10 13  2  0  0  0  0
 12 22  1  0  0  0  0
M  END
$$$$
