
  -OEChem-05262117483D

 17 17  0     0  0  0  0  0  0999 V2000
    1.9960   -0.3037   -0.3688 C   0  0  0  0  0  0  0  0  0  0  0  0
    0.7077    0.2751   -0.4696 C   0  0  0  0  0  0  0  0  0  0  0  0
    3.0192    0.2870   -1.0645 C   0  0  0  0  0  0  0  0  0  0  0  0
    0.4476    1.3974   -1.2324 C   0  0  0  0  0  0  0  0  0  0  0  0
    1.5290    2.0361   -1.9782 C   0  0  0  0  0  0  0  0  0  0  0  0
   -0.9654    1.9123   -1.2544 C   0  0  0  0  0  0  0  0  0  0  0  0
   -1.3079    3.1372   -2.0678 C   0  0  0  0  0  0  0  0  0  0  0  0
    2.7796    1.3908   -1.8190 N   0  0  0  0  0  0  0  0  0  0  0  0
    1.4774    3.0335   -2.7017 O   0  0  0  0  0  0  0  0  0  0  0  0
   -1.8275    1.3245   -0.6052 O   0  0  0  0  0  0  0  0  0  0  0  0
    2.1808   -1.1843    0.2348 H   0  0  0  0  0  0  0  0  0  0  0  0
   -0.1324   -0.1607    0.0651 H   0  0  0  0  0  0  0  0  0  0  0  0
    4.0408   -0.0799   -1.0527 H   0  0  0  0  0  0  0  0  0  0  0  0
   -1.0586    2.9832   -3.1217 H   0  0  0  0  0  0  0  0  0  0  0  0
   -0.7077    3.9940   -1.7481 H   0  0  0  0  0  0  0  0  0  0  0  0
   -2.3725    3.3456   -1.9494 H   0  0  0  0  0  0  0  0  0  0  0  0
    3.5331    1.8334   -2.3371 H   0  0  0  0  0  0  0  0  0  0  0  0
  1  2  1  0  0  0  0
  1  3  2  0  0  0  0
  1 11  1  0  0  0  0
  2  4  2  0  0  0  0
  2 12  1  0  0  0  0
  3  8  1  0  0  0  0
  3 13  1  0  0  0  0
  4  5  1  0  0  0  0
  4  6  1  0  0  0  0
  5  8  1  0  0  0  0
  5  9  2  0  0  0  0
  6  7  1  0  0  0  0
  6 10  2  0  0  0  0
  7 14  1  0  0  0  0
  7 15  1  0  0  0  0
  7 16  1  0  0  0  0
  8 17  1  0  0  0  0
M  END
$$$$
