24
0 1 C11H10N2O
C                     1.292618140318    -0.824454257689     1.652116075415
C                     0.258512333305    -0.935138286016     0.731997817760
C                    -2.007937223750    -3.670703736669    -0.516777165137
C                     1.692758769065    -1.983170751313     2.337615435639
C                    -1.474398894350    -4.687167569245     0.215032715337
C                    -0.341621461069    -2.182875991621     0.512204147977
C                    -1.467576932254    -2.323947121669    -0.444432761280
C                     0.156989510810    -3.282771474886     1.249513370319
C                     1.446989451626    -6.230309080977     1.565411019167
C                     0.216583389776    -7.022817487261     1.180891479425
C                     0.080140851079    -5.669068472769     1.839310259394
N                     1.148600715606    -3.185607723205     2.151861761987
N                    -0.398819839471    -4.546942112005     1.057920178521
O                    -1.898660013038    -1.365590788652    -1.100811970568
H                     1.781198817466     0.124514609197     1.851114313802
H                    -0.116703794814    -0.085449620357     0.168620450184
H                    -2.852371387253    -3.859755570788    -1.170303834088
H                     2.491931130422    -1.935353779963     3.076250040514
H                    -1.878560465549    -5.691994863750     0.166960378940
H                     2.037026095021    -6.540675457405     2.421354448329
H                     2.011848996943    -5.768749033598     0.762613661623
H                    -0.007612849188    -7.104924893149     0.121938405198
H                    -0.059770925786    -7.891461852117     1.770568896162
H                    -0.239577531316    -5.642502744897     2.877553242633
