18
0 1 C7H8N2O
C                     1.385117560020    -0.036157017189     1.565969692716
C                     0.197192378821    -0.447214169617     0.952278277660
C                     1.722336002108    -0.527763825966     2.825586828730
C                    -0.613741671015    -1.349548548672     1.642724651038
C                     0.829652227843    -1.432291671019     3.426337141014
C                     2.089018200478    -1.846602591238     5.566787365789
C                     1.986022471426    -2.690935851230     6.826764210012
N                    -0.313635664986    -1.837198964034     2.852762295750
N                     1.034445475281    -2.010283659004     4.691693362631
O                     3.046344860478    -1.110064226631     5.350395474662
H                     2.049770888923     0.665466563148     1.068383811178
H                    -0.094212398083    -0.082716928075    -0.028008720040
H                     2.628765143836    -0.238133105077     3.338965506693
H                    -1.548706926667    -1.700503674426     1.208907242814
H                     2.487951252122    -3.649490503990     6.656081958412
H                     0.952994021588    -2.892554374077     7.124956044484
H                     2.506110222111    -2.175505061086     7.635073995976
H                     0.282420781938    -2.638178783072     4.953108719779
