
  -OEChem-05262117483D

 36 38  0     0  0  0  0  0  0999 V2000
    1.6897   -4.7058   -1.0511 C   0  0  0  0  0  0  0  0  0  0  0  0
   -0.2120   -0.3389    3.8344 C   0  0  0  0  0  0  0  0  0  0  0  0
   -7.7593    2.5903    5.0306 C   0  0  0  0  0  0  0  0  0  0  0  0
   -8.7122    1.6587    4.6089 C   0  0  0  0  0  0  0  0  0  0  0  0
    1.4307   -3.1213    0.8174 C   0  0  0  0  0  0  0  0  0  0  0  0
   -0.5333   -3.8618   -0.4169 C   0  0  0  0  0  0  0  0  0  0  0  0
   -6.4078    2.2617    4.9642 C   0  0  0  0  0  0  0  0  0  0  0  0
    0.6293   -2.3318    1.6320 C   0  0  0  0  0  0  0  0  0  0  0  0
   -1.3287   -3.0707    0.4019 C   0  0  0  0  0  0  0  0  0  0  0  0
   -8.3015    0.4117    4.1331 C   0  0  0  0  0  0  0  0  0  0  0  0
    0.8571   -3.8910   -0.2117 C   0  0  0  0  0  0  0  0  0  0  0  0
   -5.9911    1.0083    4.4786 C   0  0  0  0  0  0  0  0  0  0  0  0
   -0.7705   -2.2901    1.4398 C   0  0  0  0  0  0  0  0  0  0  0  0
   -6.9470    0.0555    4.0558 C   0  0  0  0  0  0  0  0  0  0  0  0
   -4.5424    0.7425    4.4466 C   0  0  0  0  0  0  0  0  0  0  0  0
   -2.6494    0.0169    3.8831 C   0  0  0  0  0  0  0  0  0  0  0  0
   -1.7009   -1.5006    2.2317 C   0  0  0  0  0  0  0  0  0  0  0  0
   -1.4952   -0.6465    3.2749 C   0  0  0  0  0  0  0  0  0  0  0  0
   -6.5801   -1.3207    3.5484 C   0  0  0  0  0  0  0  0  0  0  0  0
    2.3636   -5.3680   -1.7332 N   0  0  0  0  0  0  0  0  0  0  0  0
    0.8311   -0.0900    4.2897 N   0  0  0  0  0  0  0  0  0  0  0  0
   -3.9088   -0.1090    3.5585 N   0  0  0  0  0  0  0  0  0  0  0  0
   -3.7125    1.3511    5.2784 N   0  0  0  0  0  0  0  0  0  0  0  0
   -2.4457    0.8733    4.8994 O   0  0  0  0  0  0  0  0  0  0  0  0
   -8.0652    3.5639    5.4032 H   0  0  0  0  0  0  0  0  0  0  0  0
   -9.7713    1.8994    4.6516 H   0  0  0  0  0  0  0  0  0  0  0  0
    2.5048   -3.1481    0.9716 H   0  0  0  0  0  0  0  0  0  0  0  0
   -0.9748   -4.4558   -1.2107 H   0  0  0  0  0  0  0  0  0  0  0  0
   -5.6551    2.9763    5.2817 H   0  0  0  0  0  0  0  0  0  0  0  0
    1.0983   -1.7509    2.4151 H   0  0  0  0  0  0  0  0  0  0  0  0
   -2.4033   -3.0505    0.2408 H   0  0  0  0  0  0  0  0  0  0  0  0
   -9.0502   -0.3107    3.8171 H   0  0  0  0  0  0  0  0  0  0  0  0
   -2.7461   -1.6013    1.9483 H   0  0  0  0  0  0  0  0  0  0  0  0
   -6.1016   -1.2677    2.5667 H   0  0  0  0  0  0  0  0  0  0  0  0
   -5.8738   -1.8248    4.2138 H   0  0  0  0  0  0  0  0  0  0  0  0
   -7.4757   -1.9417    3.4644 H   0  0  0  0  0  0  0  0  0  0  0  0
  1 11  1  0  0  0  0
  1 20  3  0  0  0  0
  2 18  1  0  0  0  0
  2 21  3  0  0  0  0
  3  4  1  0  0  0  0
  3  7  2  0  0  0  0
  3 25  1  0  0  0  0
  4 10  2  0  0  0  0
  4 26  1  0  0  0  0
  5  8  2  0  0  0  0
  5 11  1  0  0  0  0
  5 27  1  0  0  0  0
  6  9  1  0  0  0  0
  6 11  2  0  0  0  0
  6 28  1  0  0  0  0
  7 12  1  0  0  0  0
  7 29  1  0  0  0  0
  8 13  1  0  0  0  0
  8 30  1  0  0  0  0
  9 13  2  0  0  0  0
  9 31  1  0  0  0  0
 10 14  1  0  0  0  0
 10 32  1  0  0  0  0
 12 14  2  0  0  0  0
 12 15  1  0  0  0  0
 13 17  1  0  0  0  0
 14 19  1  0  0  0  0
 15 22  1  0  0  0  0
 15 23  2  0  0  0  0
 16 18  1  0  0  0  0
 16 22  2  0  0  0  0
 16 24  1  0  0  0  0
 17 18  2  0  0  0  0
 17 33  1  0  0  0  0
 19 34  1  0  0  0  0
 19 35  1  0  0  0  0
 19 36  1  0  0  0  0
 23 24  1  0  0  0  0
M  END
$$$$
