36
0 1 C19H12N4O
C                     4.727652404041    -2.967333220649     1.411375126834
C                    -1.961578479581    -1.878233730372     2.178484318199
C                    -7.933321536933     0.547861187953     3.729775883948
C                    -8.467862699481     1.649250459108     4.403701974530
C                     2.264928167283    -2.948328297388     1.464320433909
C                     3.507520762245    -1.145745068998     2.529445307236
C                    -6.551208470487     0.413692275017     3.628739872736
C                     1.067146780072    -2.354962409657     1.841997844612
C                     2.306091634810    -0.557972309212     2.903840935506
C                    -7.613885253618     2.600296298920     4.966735207583
C                     3.492292550277    -2.349793750628     1.804254121308
C                    -5.686770122520     1.370486064150     4.195094851684
C                     1.063804475642    -1.144375568960     2.571423818794
C                    -6.218768350442     2.490974272190     4.880556719702
C                    -4.244552023673     1.132607530354     4.030417824781
C                    -2.475724358664     0.161190299428     3.417116730836
C                    -0.128762759176    -0.438355446771     3.016928058090
C                    -1.452783688078    -0.726418469590     2.864986569780
C                    -5.361305738177     3.558684525447     5.514167005272
N                     5.731205148776    -3.467132703377     1.093328828006
N                    -2.366155375513    -2.816448509813     1.619204676688
N                    -3.767162359718     0.018711028822     3.349456995239
N                    -3.283512561111     1.916282799510     4.490807591467
O                    -2.094130544468     1.270531458318     4.083051150140
H                    -8.585817881980    -0.199497411250     3.287076770712
H                    -9.544612087971     1.769480770231     4.491909153208
H                     2.258919614061    -3.878089735477     0.904260726980
H                     4.454315880276    -0.684488308954     2.791413829198
H                    -6.118483823786    -0.434251989717     3.109584235957
H                     0.139048328993    -2.837941518484     1.566666095217
H                     2.322130085880     0.372941237625     3.464483478215
H                    -8.038232670525     3.454018400904     5.489265672023
H                     0.072140358417     0.478019903430     3.566333321643
H                    -4.693864989484     3.140209880182     6.273288843444
H                    -4.715381604750     4.045243486353     4.777342657425
H                    -5.989679767621     4.319797435209     5.983672383881
