34
0 1 C15H14N4O
C                     6.097351671639     0.744238221112     2.222208521874
C                     4.856422693408     0.715797126249     1.560799356195
C                     6.261963350447     0.163814478632     3.478465245014
C                     2.954933704294    -1.087710992778     4.358739464431
C                     3.682607445729    -1.417381558056     5.479582882674
C                     3.860500228959    -0.457488965387     3.427751113104
C                     3.733293896379     0.109814881217     2.133436213686
C                     5.135752942850    -0.425510479623     4.063407695197
C                     0.927805064649     0.434288688156    -0.093454521066
C                     0.497180627046    -0.667454470258     0.641828127188
C                     2.487277678326     0.066507171757     1.367533599280
C                     0.286704693713     1.182849826696    -1.210265556045
C                    -0.694186132227    -1.576647356388     0.602458909078
C                    -1.827047858146    -1.094623835768    -0.306826075053
C                    -1.346321255618    -0.722557513285    -1.715889422450
N                     2.155924625857     0.867123446051     0.374237383117
N                     4.996693739265    -1.030596261418     5.302192018736
N                     1.496946420908    -0.877384239792     1.568549362825
N                    -0.830860958553     0.638001546234    -1.811087862889
O                     0.715655216796     2.272058338062    -1.586999306195
H                     6.945424224804     1.219938952498     1.737629408708
H                     4.750454078537     1.161690316086     0.577161031594
H                     7.223965645653     0.177527709164     3.984733908558
H                     1.886068622318    -1.223846095391     4.265624098332
H                     3.362614986582    -1.888070954798     6.399726408540
H                    -0.367499814203    -2.570969737122     0.265453042767
H                    -1.082107392416    -1.713024319445     1.620170033506
H                    -2.569908186470    -1.896653399514    -0.379196678474
H                    -2.326979910348    -0.224746757892     0.131054466922
H                    -0.602274898287    -1.455756356934    -2.060863729159
H                    -2.189723216637    -0.777559250626    -2.408941866588
H                     5.732222322627    -1.129907070255     5.986795095643
H                     1.548209420712    -1.659902526479     2.208304988634
H                    -1.140324553368     1.200493796132    -2.594659794319
