
  -OEChem-05262117483D

 34 37  0     0  0  0  0  0  0999 V2000
    6.0974    0.7442    2.2222 C   0  0  0  0  0  0  0  0  0  0  0  0
    4.8564    0.7158    1.5608 C   0  0  0  0  0  0  0  0  0  0  0  0
    6.2620    0.1638    3.4785 C   0  0  0  0  0  0  0  0  0  0  0  0
    2.9549   -1.0877    4.3587 C   0  0  0  0  0  0  0  0  0  0  0  0
    3.6826   -1.4174    5.4796 C   0  0  0  0  0  0  0  0  0  0  0  0
    3.8605   -0.4575    3.4278 C   0  0  0  0  0  0  0  0  0  0  0  0
    3.7333    0.1098    2.1334 C   0  0  0  0  0  0  0  0  0  0  0  0
    5.1358   -0.4255    4.0634 C   0  0  0  0  0  0  0  0  0  0  0  0
    0.9278    0.4343   -0.0935 C   0  0  0  0  0  0  0  0  0  0  0  0
    0.4972   -0.6675    0.6418 C   0  0  0  0  0  0  0  0  0  0  0  0
    2.4873    0.0665    1.3675 C   0  0  0  0  0  0  0  0  0  0  0  0
    0.2867    1.1828   -1.2103 C   0  0  0  0  0  0  0  0  0  0  0  0
   -0.6942   -1.5766    0.6025 C   0  0  0  0  0  0  0  0  0  0  0  0
   -1.8270   -1.0946   -0.3068 C   0  0  0  0  0  0  0  0  0  0  0  0
   -1.3463   -0.7226   -1.7159 C   0  0  0  0  0  0  0  0  0  0  0  0
    2.1559    0.8671    0.3742 N   0  0  0  0  0  0  0  0  0  0  0  0
    4.9967   -1.0306    5.3022 N   0  0  0  0  0  0  0  0  0  0  0  0
    1.4969   -0.8774    1.5685 N   0  0  0  0  0  0  0  0  0  0  0  0
   -0.8309    0.6380   -1.8111 N   0  0  0  0  0  0  0  0  0  0  0  0
    0.7157    2.2721   -1.5870 O   0  0  0  0  0  0  0  0  0  0  0  0
    6.9454    1.2199    1.7376 H   0  0  0  0  0  0  0  0  0  0  0  0
    4.7505    1.1617    0.5772 H   0  0  0  0  0  0  0  0  0  0  0  0
    7.2240    0.1775    3.9847 H   0  0  0  0  0  0  0  0  0  0  0  0
    1.8861   -1.2238    4.2656 H   0  0  0  0  0  0  0  0  0  0  0  0
    3.3626   -1.8881    6.3997 H   0  0  0  0  0  0  0  0  0  0  0  0
   -0.3675   -2.5710    0.2655 H   0  0  0  0  0  0  0  0  0  0  0  0
   -1.0821   -1.7130    1.6202 H   0  0  0  0  0  0  0  0  0  0  0  0
   -2.5699   -1.8967   -0.3792 H   0  0  0  0  0  0  0  0  0  0  0  0
   -2.3270   -0.2247    0.1311 H   0  0  0  0  0  0  0  0  0  0  0  0
   -0.6023   -1.4558   -2.0609 H   0  0  0  0  0  0  0  0  0  0  0  0
   -2.1897   -0.7776   -2.4089 H   0  0  0  0  0  0  0  0  0  0  0  0
    5.7322   -1.1299    5.9868 H   0  0  0  0  0  0  0  0  0  0  0  0
    1.5482   -1.6599    2.2083 H   0  0  0  0  0  0  0  0  0  0  0  0
   -1.1403    1.2005   -2.5947 H   0  0  0  0  0  0  0  0  0  0  0  0
  1  2  1  0  0  0  0
  1  3  2  0  0  0  0
  1 21  1  0  0  0  0
  2  7  2  0  0  0  0
  2 22  1  0  0  0  0
  3  8  1  0  0  0  0
  3 23  1  0  0  0  0
  4  5  2  0  0  0  0
  4  6  1  0  0  0  0
  4 24  1  0  0  0  0
  5 17  1  0  0  0  0
  5 25  1  0  0  0  0
  6  7  1  0  0  0  0
  6  8  2  0  0  0  0
  7 11  1  0  0  0  0
  8 17  1  0  0  0  0
  9 10  2  0  0  0  0
  9 12  1  0  0  0  0
  9 16  1  0  0  0  0
 10 13  1  0  0  0  0
 10 18  1  0  0  0  0
 11 16  2  0  0  0  0
 11 18  1  0  0  0  0
 12 19  1  0  0  0  0
 12 20  2  0  0  0  0
 13 14  1  0  0  0  0
 13 26  1  0  0  0  0
 13 27  1  0  0  0  0
 14 15  1  0  0  0  0
 14 28  1  0  0  0  0
 14 29  1  0  0  0  0
 15 19  1  0  0  0  0
 15 30  1  0  0  0  0
 15 31  1  0  0  0  0
 17 32  1  0  0  0  0
 18 33  1  0  0  0  0
 19 34  1  0  0  0  0
M  END
$$$$
