25
0 1 BrC12H9N2O
C                     5.338240295300    -0.450443711675     4.175740623837
C                     5.965574793156    -1.663457570730     3.897786420355
C                     4.607022632918     0.170248093449     3.160331399108
C                     0.949811893808    -0.542373789616     1.533595710488
C                     1.200829950663     1.233483878218     3.124452353417
C                     5.836366202181    -2.198328744063     2.607709870554
C                    -0.049050684515    -1.065562037204     2.350659981972
C                     1.598875773212     0.639250335658     1.925124165344
C                     4.544445406299    -0.439439434536     1.899448307162
C                     0.189618053734     0.608449486151     3.862020835549
C                     3.787443377948     0.188361966956     0.750515363519
C                     2.705878841973     1.227069954086     1.077277385635
N                     5.151696639449    -1.607630205813     1.627657070812
N                    -0.429447695657    -0.501159573994     3.511272903841
O                     4.001085881251    -0.136747694028    -0.402961137988
Br                   -0.340377995168     1.413018751251     5.534280671209
H                     5.408702902662     0.002734925411     5.160812923427
H                     6.539521427744    -2.190651446382     4.654472773333
H                     4.104785855210     1.110851065517     3.354150442549
H                     1.222747751048    -1.049399869793     0.612351125600
H                     1.657334397725     2.150313431802     3.482833994479
H                     6.307594068486    -3.147874609903     2.357634442356
H                    -0.570179474943    -1.979834791718     2.074632327502
H                     2.311225135305     1.567236902799     0.116553058685
H                     3.148494541006     2.093433898545     1.579113184603
