25
0 1 BrC12H9N2O
C                     5.824986600814     3.359875658417     0.835910018240
C                     7.092677118359     2.795660910239     0.707004323008
C                     4.732294177196     2.510403177524     1.029384789570
C                     0.878930548519    -1.172126394487     1.046378537801
C                     1.040946406730    -0.543096063590     3.353233547779
C                     7.208004433288     1.399320988569     0.773530460477
C                    -0.046852699345    -2.139374042374     1.425881689257
C                     1.439728605827    -0.344468111665     2.030211816578
C                     4.948955149643     1.125097135165     1.071557144033
C                     0.102769754508    -1.549445853849     3.610470399962
C                     3.808750941757     0.142166516291     1.244975225937
C                     2.449342742128     0.716626442190     1.680766295820
N                     6.170881940458     0.579447336441     0.944637313287
N                    -0.439329339218    -2.330491461525     2.698757799501
O                     3.962577745590    -1.044399409741     1.033943847036
Br                   -0.454151259507    -1.827257242985     5.438705498930
H                     5.685745175056     4.436582257637     0.789051048145
H                     7.974880331587     3.411988998373     0.559503382927
H                     3.736232036422     2.926736523082     1.133611591193
H                     1.167559346445    -1.074667906974     0.004272222250
H                     1.441018406485     0.057840926538     4.163251665949
H                     8.183964893989     0.924310219597     0.682967522443
H                    -0.499174439773    -2.797105828613     0.686652119860
H                     2.071684381805     1.333765589651     0.855237861311
H                     2.601514713572     1.394310352439     2.526580071937
