
  -OEChem-05262117483D

 29 30  0     0  0  0  0  0  0999 V2000
    7.5202   -6.0499   -1.2804 C   0  0  0  0  0  0  0  0  0  0  0  0
    6.5771   -6.5350   -0.3678 C   0  0  0  0  0  0  0  0  0  0  0  0
    7.4364   -4.7206   -1.7042 C   0  0  0  0  0  0  0  0  0  0  0  0
    2.1698   -0.7221    0.1366 C   0  0  0  0  0  0  0  0  0  0  0  0
    5.5696   -5.6987    0.1104 C   0  0  0  0  0  0  0  0  0  0  0  0
    6.4317   -3.8694   -1.2356 C   0  0  0  0  0  0  0  0  0  0  0  0
    1.0906   -0.1781    0.8285 C   0  0  0  0  0  0  0  0  0  0  0  0
    2.6172   -2.1799    2.0105 C   0  0  0  0  0  0  0  0  0  0  0  0
    2.9340   -1.7422    0.7169 C   0  0  0  0  0  0  0  0  0  0  0  0
    1.5459   -1.6444    2.7404 C   0  0  0  0  0  0  0  0  0  0  0  0
    5.4884   -4.3615   -0.3179 C   0  0  0  0  0  0  0  0  0  0  0  0
    0.7894   -0.6439    2.1105 C   0  0  0  0  0  0  0  0  0  0  0  0
    4.0863   -2.2830   -0.0831 C   0  0  0  0  0  0  0  0  0  0  0  0
    1.2486   -2.1285    4.1369 C   0  0  0  0  0  0  0  0  0  0  0  0
    4.4460   -3.5771    0.2241 N   0  0  0  0  0  0  0  0  0  0  0  0
    4.6370   -1.6044   -0.9486 O   0  0  0  0  0  0  0  0  0  0  0  0
   -0.7056    0.1419    3.0247 Br  0  0  0  0  0  0  0  0  0  0  0  0
    8.3065   -6.6993   -1.6551 H   0  0  0  0  0  0  0  0  0  0  0  0
    6.6240   -7.5657   -0.0262 H   0  0  0  0  0  0  0  0  0  0  0  0
    8.1623   -4.3325   -2.4141 H   0  0  0  0  0  0  0  0  0  0  0  0
    2.4337   -0.3654   -0.8537 H   0  0  0  0  0  0  0  0  0  0  0  0
    4.8398   -6.0835    0.8212 H   0  0  0  0  0  0  0  0  0  0  0  0
    6.3670   -2.8445   -1.5729 H   0  0  0  0  0  0  0  0  0  0  0  0
    0.4869    0.6041    0.3800 H   0  0  0  0  0  0  0  0  0  0  0  0
    3.2358   -2.9264    2.5035 H   0  0  0  0  0  0  0  0  0  0  0  0
    1.3034   -1.3080    4.8593 H   0  0  0  0  0  0  0  0  0  0  0  0
    0.2384   -2.5451    4.2036 H   0  0  0  0  0  0  0  0  0  0  0  0
    1.9603   -2.9007    4.4395 H   0  0  0  0  0  0  0  0  0  0  0  0
    3.8310   -4.0708    0.8569 H   0  0  0  0  0  0  0  0  0  0  0  0
  1  2  1  0  0  0  0
  1  3  2  0  0  0  0
  1 18  1  0  0  0  0
  2  5  2  0  0  0  0
  2 19  1  0  0  0  0
  3  6  1  0  0  0  0
  3 20  1  0  0  0  0
  4  7  2  0  0  0  0
  4  9  1  0  0  0  0
  4 21  1  0  0  0  0
  5 11  1  0  0  0  0
  5 22  1  0  0  0  0
  6 11  2  0  0  0  0
  6 23  1  0  0  0  0
  7 12  1  0  0  0  0
  7 24  1  0  0  0  0
  8  9  2  0  0  0  0
  8 10  1  0  0  0  0
  8 25  1  0  0  0  0
  9 13  1  0  0  0  0
 10 12  2  0  0  0  0
 10 14  1  0  0  0  0
 11 15  1  0  0  0  0
 12 17  1  0  0  0  0
 13 15  1  0  0  0  0
 13 16  2  0  0  0  0
 14 26  1  0  0  0  0
 14 27  1  0  0  0  0
 14 28  1  0  0  0  0
 15 29  1  0  0  0  0
M  END
$$$$
