
  -OEChem-05262117483D

 25 26  0     0  0  0  0  0  0999 V2000
    6.9328    1.4643   -0.6734 C   0  0  0  0  0  0  0  0  0  0  0  0
    6.5675    2.7712   -1.0068 C   0  0  0  0  0  0  0  0  0  0  0  0
    5.9871    0.6419   -0.0618 C   0  0  0  0  0  0  0  0  0  0  0  0
    1.3178   -0.3415    3.0328 C   0  0  0  0  0  0  0  0  0  0  0  0
    0.3505   -0.6744    0.8670 C   0  0  0  0  0  0  0  0  0  0  0  0
    5.2672    3.1996   -0.7141 C   0  0  0  0  0  0  0  0  0  0  0  0
    0.3892   -1.2489    3.5347 C   0  0  0  0  0  0  0  0  0  0  0  0
    1.3042   -0.0376    1.6638 C   0  0  0  0  0  0  0  0  0  0  0  0
    4.7113    1.1647    0.1880 C   0  0  0  0  0  0  0  0  0  0  0  0
   -0.5296   -1.5680    1.4867 C   0  0  0  0  0  0  0  0  0  0  0  0
    3.6736    0.2950    0.8497 C   0  0  0  0  0  0  0  0  0  0  0  0
    2.2966    0.9216    1.0654 C   0  0  0  0  0  0  0  0  0  0  0  0
    4.3512    2.4198   -0.1306 N   0  0  0  0  0  0  0  0  0  0  0  0
   -0.5340   -1.8613    2.7716 N   0  0  0  0  0  0  0  0  0  0  0  0
    3.9446   -0.8447    1.1937 O   0  0  0  0  0  0  0  0  0  0  0  0
   -1.8526   -2.4500    0.3892 Br  0  0  0  0  0  0  0  0  0  0  0  0
    7.9330    1.0960   -0.8858 H   0  0  0  0  0  0  0  0  0  0  0  0
    7.2692    3.4491   -1.4841 H   0  0  0  0  0  0  0  0  0  0  0  0
    6.2048   -0.3817    0.2245 H   0  0  0  0  0  0  0  0  0  0  0  0
    2.0449    0.1163    3.6977 H   0  0  0  0  0  0  0  0  0  0  0  0
    0.2884   -0.4876   -0.1999 H   0  0  0  0  0  0  0  0  0  0  0  0
    4.9515    4.2119   -0.9609 H   0  0  0  0  0  0  0  0  0  0  0  0
    0.3749   -1.5039    4.5924 H   0  0  0  0  0  0  0  0  0  0  0  0
    1.9501    1.3197    0.1072 H   0  0  0  0  0  0  0  0  0  0  0  0
    2.4354    1.8022    1.7028 H   0  0  0  0  0  0  0  0  0  0  0  0
  1  2  1  0  0  0  0
  1  3  2  0  0  0  0
  1 17  1  0  0  0  0
  2  6  2  0  0  0  0
  2 18  1  0  0  0  0
  3  9  1  0  0  0  0
  3 19  1  0  0  0  0
  4  7  2  0  0  0  0
  4  8  1  0  0  0  0
  4 20  1  0  0  0  0
  5  8  2  0  0  0  0
  5 10  1  0  0  0  0
  5 21  1  0  0  0  0
  6 13  1  0  0  0  0
  6 22  1  0  0  0  0
  7 14  1  0  0  0  0
  7 23  1  0  0  0  0
  8 12  1  0  0  0  0
  9 11  1  0  0  0  0
  9 13  2  0  0  0  0
 10 14  2  0  0  0  0
 10 16  1  0  0  0  0
 11 12  1  0  0  0  0
 11 15  2  0  0  0  0
 12 24  1  0  0  0  0
 12 25  1  0  0  0  0
M  END
$$$$
