
  -OEChem-05262117483D

 36 38  0     0  0  0  0  0  0999 V2000
    1.9796   -4.7991   -0.8191 C   0  0  0  0  0  0  0  0  0  0  0  0
    0.0893    0.1650    3.4635 C   0  0  0  0  0  0  0  0  0  0  0  0
   -7.8344    0.5336    3.1878 C   0  0  0  0  0  0  0  0  0  0  0  0
   -8.5180    1.4684    3.9700 C   0  0  0  0  0  0  0  0  0  0  0  0
    1.7286   -2.9601    0.8008 C   0  0  0  0  0  0  0  0  0  0  0  0
   -0.2495   -3.9430   -0.2241 C   0  0  0  0  0  0  0  0  0  0  0  0
   -6.4445    0.4808    3.2470 C   0  0  0  0  0  0  0  0  0  0  0  0
    0.9278   -2.0836    1.5216 C   0  0  0  0  0  0  0  0  0  0  0  0
   -1.0442   -3.0635    0.4998 C   0  0  0  0  0  0  0  0  0  0  0  0
   -7.8022    2.3350    4.7985 C   0  0  0  0  0  0  0  0  0  0  0  0
    1.1476   -3.8950   -0.0760 C   0  0  0  0  0  0  0  0  0  0  0  0
   -5.7182    1.3526    4.0808 C   0  0  0  0  0  0  0  0  0  0  0  0
   -0.4787   -2.1178    1.3852 C   0  0  0  0  0  0  0  0  0  0  0  0
   -6.4023    2.3040    4.8780 C   0  0  0  0  0  0  0  0  0  0  0  0
   -4.2532    1.2127    4.0680 C   0  0  0  0  0  0  0  0  0  0  0  0
   -2.3556    0.4613    3.5423 C   0  0  0  0  0  0  0  0  0  0  0  0
   -1.4093   -1.2490    2.0892 C   0  0  0  0  0  0  0  0  0  0  0  0
   -1.1996   -0.2513    2.9946 C   0  0  0  0  0  0  0  0  0  0  0  0
   -5.7024    3.2741    5.7975 C   0  0  0  0  0  0  0  0  0  0  0  0
    2.6527   -5.5339   -1.4232 N   0  0  0  0  0  0  0  0  0  0  0  0
    1.1372    0.5031    3.8444 N   0  0  0  0  0  0  0  0  0  0  0  0
   -3.6167    0.2688    3.2740 N   0  0  0  0  0  0  0  0  0  0  0  0
   -3.4148    1.9441    4.7852 N   0  0  0  0  0  0  0  0  0  0  0  0
   -2.1451    1.4442    4.4359 O   0  0  0  0  0  0  0  0  0  0  0  0
   -8.3784   -0.1470    2.5385 H   0  0  0  0  0  0  0  0  0  0  0  0
   -9.6031    1.5241    3.9368 H   0  0  0  0  0  0  0  0  0  0  0  0
    2.8079   -2.9276    0.9111 H   0  0  0  0  0  0  0  0  0  0  0  0
   -0.6967   -4.6643   -0.9005 H   0  0  0  0  0  0  0  0  0  0  0  0
   -5.8975   -0.2379    2.6471 H   0  0  0  0  0  0  0  0  0  0  0  0
    1.4024   -1.3757    2.1882 H   0  0  0  0  0  0  0  0  0  0  0  0
   -2.1239   -3.1031    0.3832 H   0  0  0  0  0  0  0  0  0  0  0  0
   -8.3417    3.0592    5.4038 H   0  0  0  0  0  0  0  0  0  0  0  0
   -2.4589   -1.4177    1.8594 H   0  0  0  0  0  0  0  0  0  0  0  0
   -5.1053    2.7536    6.5519 H   0  0  0  0  0  0  0  0  0  0  0  0
   -5.0056    3.9155    5.2503 H   0  0  0  0  0  0  0  0  0  0  0  0
   -6.4336    3.9071    6.3066 H   0  0  0  0  0  0  0  0  0  0  0  0
  1 11  1  0  0  0  0
  1 20  3  0  0  0  0
  2 18  1  0  0  0  0
  2 21  3  0  0  0  0
  3  4  1  0  0  0  0
  3  7  2  0  0  0  0
  3 25  1  0  0  0  0
  4 10  2  0  0  0  0
  4 26  1  0  0  0  0
  5  8  2  0  0  0  0
  5 11  1  0  0  0  0
  5 27  1  0  0  0  0
  6  9  1  0  0  0  0
  6 11  2  0  0  0  0
  6 28  1  0  0  0  0
  7 12  1  0  0  0  0
  7 29  1  0  0  0  0
  8 13  1  0  0  0  0
  8 30  1  0  0  0  0
  9 13  2  0  0  0  0
  9 31  1  0  0  0  0
 10 14  1  0  0  0  0
 10 32  1  0  0  0  0
 12 14  2  0  0  0  0
 12 15  1  0  0  0  0
 13 17  1  0  0  0  0
 14 19  1  0  0  0  0
 15 22  1  0  0  0  0
 15 23  2  0  0  0  0
 16 18  1  0  0  0  0
 16 22  2  0  0  0  0
 16 24  1  0  0  0  0
 17 18  2  0  0  0  0
 17 33  1  0  0  0  0
 19 34  1  0  0  0  0
 19 35  1  0  0  0  0
 19 36  1  0  0  0  0
 23 24  1  0  0  0  0
M  END
$$$$
