35
0 1 C14H17NO3
C                     3.425682247173    -2.458609074304     7.574638317779
C                     5.403573027031    -0.194210809204     5.358637467928
C                     5.188683644634     0.635392713168     4.247904588849
C                     3.012541157847    -0.321537688353     5.702845145028
C                     4.318318014481    -0.674074408370     6.081945560876
C                     3.897060902524     0.991537765583     3.861491086827
C                     2.787515555316     0.505408168482     4.602764978916
C                    -0.947403708866     0.498269181611     2.735002464311
C                    -0.455817453331    -0.972689944451     2.866503990724
C                    -0.797342879321     1.106485956791     4.144600328316
C                     0.148827550305    -1.100774589490     4.289527297526
C                     0.376960148036     0.344511292525     4.756896678783
C                     4.668430039227     2.289816408688     2.015784519610
C                     4.552950315970    -1.521186875322     7.324178622258
N                     2.554507388646    -3.190990037532     7.812725797196
O                     5.780387524332    -2.231561813741     7.189631379366
O                     1.565804065541     0.908781524933     4.162247187060
O                     3.589791466928     1.786804391659     2.795479947508
H                     6.411867591165    -0.476215298014     5.639288411393
H                     6.044826975778     0.993204980719     3.687571217925
H                     2.171350326760    -0.714629602569     6.260597221269
H                    -0.314223517366     1.045302127853     2.031695306678
H                    -1.976009512540     0.564527941710     2.368832567690
H                    -1.270820272656    -1.688537665333     2.725682706404
H                     0.297285311576    -1.194280816461     2.105888692752
H                    -0.622014970405     2.185453873111     4.140243628216
H                    -1.688144851798     0.908577934585     4.752039366458
H                    -0.561216271349    -1.575076382711     4.976351368229
H                     1.063174749470    -1.697520215647     4.312624326991
H                     0.428362554285     0.454414022451     5.845990332236
H                     4.210610205790     2.888612046191     1.227314830840
H                     5.249803765927     1.476450376810     1.563538335104
H                     5.334003358586     2.924756707092     2.614097261741
H                     4.597082647569    -0.860562437113     8.203817506224
H                     5.979086941640    -2.664486383592     8.035853907836
