
  -OEChem-05262117483D

 59 61  0     0  0  0  0  0  0999 V2000
    2.0667    0.1986   -0.2929 C   0  0  0  0  0  0  0  0  0  0  0  0
   -2.0908    1.3833    3.3709 C   0  0  0  0  0  0  0  0  0  0  0  0
   -2.3284    3.3053    1.9264 C   0  0  0  0  0  0  0  0  0  0  0  0
    2.6692   -0.5203   -1.3295 C   0  0  0  0  0  0  0  0  0  0  0  0
   -2.7845    2.0469    4.3827 C   0  0  0  0  0  0  0  0  0  0  0  0
   -3.0195    3.9842    2.9284 C   0  0  0  0  0  0  0  0  0  0  0  0
    0.6076   -1.7628   -1.5949 C   0  0  0  0  0  0  0  0  0  0  0  0
   -1.8370    2.0019    2.1325 C   0  0  0  0  0  0  0  0  0  0  0  0
    0.7419   -0.0252    0.1014 C   0  0  0  0  0  0  0  0  0  0  0  0
    0.0069   -1.0407   -0.5662 C   0  0  0  0  0  0  0  0  0  0  0  0
    1.9308   -1.5110   -1.9882 C   0  0  0  0  0  0  0  0  0  0  0  0
   -3.2331    3.3494    4.1548 C   0  0  0  0  0  0  0  0  0  0  0  0
   -1.1120    1.2925    1.0480 C   0  0  0  0  0  0  0  0  0  0  0  0
    0.1264    0.7600    1.2068 C   0  0  0  0  0  0  0  0  0  0  0  0
   -1.4125   -1.3491   -0.1470 C   0  0  0  0  0  0  0  0  0  0  0  0
   -1.8284    1.1705   -0.2874 C   0  0  0  0  0  0  0  0  0  0  0  0
   -2.4143   -0.2367   -0.5214 C   0  0  0  0  0  0  0  0  0  0  0  0
    3.7441   -2.0645   -3.4463 C   0  0  0  0  0  0  0  0  0  0  0  0
   -2.7693    5.0841    6.3321 C   0  0  0  0  0  0  0  0  0  0  0  0
    0.9528    0.9059    2.4664 C   0  0  0  0  0  0  0  0  0  0  0  0
    1.1671   -0.4283    3.2023 C   0  0  0  0  0  0  0  0  0  0  0  0
    2.0272   -0.2804    4.4611 C   0  0  0  0  0  0  0  0  0  0  0  0
    2.2435   -1.6097    5.1926 C   0  0  0  0  0  0  0  0  0  0  0  0
    3.0980   -1.4599    6.4430 C   0  0  0  0  0  0  0  0  0  0  0  0
   -4.9528    5.2532    4.8373 O   0  0  0  0  0  0  0  0  0  0  0  0
   -4.6622    3.2294    6.3882 O   0  0  0  0  0  0  0  0  0  0  0  0
    3.2422   -2.7529    7.0436 O   0  0  0  0  0  0  0  0  0  0  0  0
    2.4055   -2.2848   -3.0128 O   0  0  0  0  0  0  0  0  0  0  0  0
   -4.1026    4.2249    5.4594 S   0  0  0  0  0  0  0  0  0  0  0  0
    2.6493    0.9700    0.2032 H   0  0  0  0  0  0  0  0  0  0  0  0
   -1.7572    0.3628    3.5312 H   0  0  0  0  0  0  0  0  0  0  0  0
   -2.1542    3.7974    0.9735 H   0  0  0  0  0  0  0  0  0  0  0  0
    3.6937   -0.2990   -1.6065 H   0  0  0  0  0  0  0  0  0  0  0  0
   -3.0035    1.5578    5.3273 H   0  0  0  0  0  0  0  0  0  0  0  0
   -3.4067    4.9853    2.7631 H   0  0  0  0  0  0  0  0  0  0  0  0
    0.0605   -2.5475   -2.1109 H   0  0  0  0  0  0  0  0  0  0  0  0
   -1.7350   -2.2983   -0.5854 H   0  0  0  0  0  0  0  0  0  0  0  0
   -1.4315   -1.4793    0.9407 H   0  0  0  0  0  0  0  0  0  0  0  0
   -2.6341    1.9066   -0.3579 H   0  0  0  0  0  0  0  0  0  0  0  0
   -1.1209    1.3887   -1.0942 H   0  0  0  0  0  0  0  0  0  0  0  0
   -2.6956   -0.3219   -1.5777 H   0  0  0  0  0  0  0  0  0  0  0  0
   -3.3295   -0.3728    0.0668 H   0  0  0  0  0  0  0  0  0  0  0  0
    3.9158   -2.7727   -4.2580 H   0  0  0  0  0  0  0  0  0  0  0  0
    4.4624   -2.2558   -2.6395 H   0  0  0  0  0  0  0  0  0  0  0  0
    3.8799   -1.0424   -3.8213 H   0  0  0  0  0  0  0  0  0  0  0  0
   -3.2445    5.6386    7.1442 H   0  0  0  0  0  0  0  0  0  0  0  0
   -2.0724    4.3442    6.7279 H   0  0  0  0  0  0  0  0  0  0  0  0
   -2.2743    5.7658    5.6392 H   0  0  0  0  0  0  0  0  0  0  0  0
    0.4968    1.6327    3.1429 H   0  0  0  0  0  0  0  0  0  0  0  0
    1.9381    1.3122    2.2038 H   0  0  0  0  0  0  0  0  0  0  0  0
    0.1927   -0.8541    3.4744 H   0  0  0  0  0  0  0  0  0  0  0  0
    1.6331   -1.1478    2.5192 H   0  0  0  0  0  0  0  0  0  0  0  0
    2.9995    0.1501    4.1838 H   0  0  0  0  0  0  0  0  0  0  0  0
    1.5545    0.4426    5.1405 H   0  0  0  0  0  0  0  0  0  0  0  0
    1.2779   -2.0431    5.4802 H   0  0  0  0  0  0  0  0  0  0  0  0
    2.7268   -2.3321    4.5239 H   0  0  0  0  0  0  0  0  0  0  0  0
    2.6174   -0.7588    7.1430 H   0  0  0  0  0  0  0  0  0  0  0  0
    4.0823   -1.0447    6.1761 H   0  0  0  0  0  0  0  0  0  0  0  0
    3.7813   -2.6585    7.8438 H   0  0  0  0  0  0  0  0  0  0  0  0
  1  4  1  0  0  0  0
  1  9  2  0  0  0  0
  1 30  1  0  0  0  0
  2  5  2  0  0  0  0
  2  8  1  0  0  0  0
  2 31  1  0  0  0  0
  3  6  1  0  0  0  0
  3  8  2  0  0  0  0
  3 32  1  0  0  0  0
  4 11  2  0  0  0  0
  4 33  1  0  0  0  0
  5 12  1  0  0  0  0
  5 34  1  0  0  0  0
  6 12  2  0  0  0  0
  6 35  1  0  0  0  0
  7 10  2  0  0  0  0
  7 11  1  0  0  0  0
  7 36  1  0  0  0  0
  8 13  1  0  0  0  0
  9 10  1  0  0  0  0
  9 14  1  0  0  0  0
 10 15  1  0  0  0  0
 11 28  1  0  0  0  0
 12 29  1  0  0  0  0
 13 14  2  0  0  0  0
 13 16  1  0  0  0  0
 14 20  1  0  0  0  0
 15 17  1  0  0  0  0
 15 37  1  0  0  0  0
 15 38  1  0  0  0  0
 16 17  1  0  0  0  0
 16 39  1  0  0  0  0
 16 40  1  0  0  0  0
 17 41  1  0  0  0  0
 17 42  1  0  0  0  0
 18 28  1  0  0  0  0
 18 43  1  0  0  0  0
 18 44  1  0  0  0  0
 18 45  1  0  0  0  0
 19 29  1  0  0  0  0
 19 46  1  0  0  0  0
 19 47  1  0  0  0  0
 19 48  1  0  0  0  0
 20 21  1  0  0  0  0
 20 49  1  0  0  0  0
 20 50  1  0  0  0  0
 21 22  1  0  0  0  0
 21 51  1  0  0  0  0
 21 52  1  0  0  0  0
 22 23  1  0  0  0  0
 22 53  1  0  0  0  0
 22 54  1  0  0  0  0
 23 24  1  0  0  0  0
 23 55  1  0  0  0  0
 23 56  1  0  0  0  0
 24 27  1  0  0  0  0
 24 57  1  0  0  0  0
 24 58  1  0  0  0  0
 25 29  2  0  0  0  0
 26 29  2  0  0  0  0
 27 59  1  0  0  0  0
M  END
$$$$
