
  -OEChem-05262117483D

 35 36  0     1  0  0  0  0  0999 V2000
    3.4257   -2.4586    7.5746 C   0  0  0  0  0  0  0  0  0  0  0  0
    5.4036   -0.1942    5.3586 C   0  0  0  0  0  0  0  0  0  0  0  0
    5.1887    0.6354    4.2479 C   0  0  0  0  0  0  0  0  0  0  0  0
    3.0125   -0.3215    5.7028 C   0  0  0  0  0  0  0  0  0  0  0  0
    4.3183   -0.6741    6.0819 C   0  0  0  0  0  0  0  0  0  0  0  0
    3.8971    0.9915    3.8615 C   0  0  0  0  0  0  0  0  0  0  0  0
    2.7875    0.5054    4.6028 C   0  0  0  0  0  0  0  0  0  0  0  0
   -0.9474    0.4983    2.7350 C   0  0  0  0  0  0  0  0  0  0  0  0
   -0.4558   -0.9727    2.8665 C   0  0  0  0  0  0  0  0  0  0  0  0
   -0.7973    1.1065    4.1446 C   0  0  0  0  0  0  0  0  0  0  0  0
    0.1488   -1.1008    4.2895 C   0  0  0  0  0  0  0  0  0  0  0  0
    0.3770    0.3445    4.7569 C   0  0  0  0  0  0  0  0  0  0  0  0
    4.6684    2.2898    2.0158 C   0  0  0  0  0  0  0  0  0  0  0  0
    4.5530   -1.5212    7.3242 C   0  0  2  0  0  0  0  0  0  0  0  0
    2.5545   -3.1910    7.8127 N   0  0  0  0  0  0  0  0  0  0  0  0
    5.7804   -2.2316    7.1896 O   0  0  0  0  0  0  0  0  0  0  0  0
    1.5658    0.9088    4.1622 O   0  0  0  0  0  0  0  0  0  0  0  0
    3.5898    1.7868    2.7955 O   0  0  0  0  0  0  0  0  0  0  0  0
    6.4119   -0.4762    5.6393 H   0  0  0  0  0  0  0  0  0  0  0  0
    6.0448    0.9932    3.6876 H   0  0  0  0  0  0  0  0  0  0  0  0
    2.1714   -0.7146    6.2606 H   0  0  0  0  0  0  0  0  0  0  0  0
   -0.3142    1.0453    2.0317 H   0  0  0  0  0  0  0  0  0  0  0  0
   -1.9760    0.5645    2.3688 H   0  0  0  0  0  0  0  0  0  0  0  0
   -1.2708   -1.6885    2.7257 H   0  0  0  0  0  0  0  0  0  0  0  0
    0.2973   -1.1943    2.1059 H   0  0  0  0  0  0  0  0  0  0  0  0
   -0.6220    2.1855    4.1402 H   0  0  0  0  0  0  0  0  0  0  0  0
   -1.6881    0.9086    4.7520 H   0  0  0  0  0  0  0  0  0  0  0  0
   -0.5612   -1.5751    4.9764 H   0  0  0  0  0  0  0  0  0  0  0  0
    1.0632   -1.6975    4.3126 H   0  0  0  0  0  0  0  0  0  0  0  0
    0.4284    0.4544    5.8460 H   0  0  0  0  0  0  0  0  0  0  0  0
    4.2106    2.8886    1.2273 H   0  0  0  0  0  0  0  0  0  0  0  0
    5.2498    1.4765    1.5635 H   0  0  0  0  0  0  0  0  0  0  0  0
    5.3340    2.9248    2.6141 H   0  0  0  0  0  0  0  0  0  0  0  0
    4.5971   -0.8606    8.2038 H   0  0  0  0  0  0  0  0  0  0  0  0
    5.9791   -2.6645    8.0359 H   0  0  0  0  0  0  0  0  0  0  0  0
  1 14  1  0  0  0  0
  1 15  3  0  0  0  0
  2  3  1  0  0  0  0
  2  5  2  0  0  0  0
  2 19  1  0  0  0  0
  3  6  2  0  0  0  0
  3 20  1  0  0  0  0
  4  5  1  0  0  0  0
  4  7  2  0  0  0  0
  4 21  1  0  0  0  0
  5 14  1  0  0  0  0
  6  7  1  0  0  0  0
  6 18  1  0  0  0  0
  7 17  1  0  0  0  0
  8  9  1  0  0  0  0
  8 10  1  0  0  0  0
  8 22  1  0  0  0  0
  8 23  1  0  0  0  0
  9 11  1  0  0  0  0
  9 24  1  0  0  0  0
  9 25  1  0  0  0  0
 10 12  1  0  0  0  0
 10 26  1  0  0  0  0
 10 27  1  0  0  0  0
 11 12  1  0  0  0  0
 11 28  1  0  0  0  0
 11 29  1  0  0  0  0
 12 17  1  0  0  0  0
 12 30  1  0  0  0  0
 13 18  1  0  0  0  0
 13 31  1  0  0  0  0
 13 32  1  0  0  0  0
 13 33  1  0  0  0  0
 14 16  1  0  0  0  0
 14 34  1  0  0  0  0
 16 35  1  0  0  0  0
M  END
$$$$
