
  -OEChem-05262117483D

 33 34  0     1  0  0  0  0  0999 V2000
   -7.7484   -1.7038    2.1092 C   0  0  0  0  0  0  0  0  0  0  0  0
   -6.8522   -2.6804    2.5552 C   0  0  0  0  0  0  0  0  0  0  0  0
   -7.3994   -0.9090    1.0087 C   0  0  0  0  0  0  0  0  0  0  0  0
   -5.6208   -2.8481    1.9119 C   0  0  0  0  0  0  0  0  0  0  0  0
   -6.1719   -1.0799    0.3662 C   0  0  0  0  0  0  0  0  0  0  0  0
   -5.2570   -2.0499    0.8164 C   0  0  0  0  0  0  0  0  0  0  0  0
   -4.2466   -2.9181   -1.3691 C   0  0  0  0  0  0  0  0  0  0  0  0
   -3.1119   -1.0552   -0.0663 C   0  0  0  0  0  0  0  0  0  0  0  0
    0.6111    0.0460   -2.7720 C   0  0  0  0  0  0  0  0  0  0  0  0
    0.1397   -1.3957   -2.8683 C   0  0  0  0  0  0  0  0  0  0  0  0
   -0.7592   -0.3510   -2.2542 C   0  0  0  0  0  0  0  0  0  0  0  0
   -1.9913    0.0848   -3.0288 C   0  0  0  0  0  0  0  0  0  0  0  0
   -0.9089   -0.3831   -0.7470 C   0  0  0  0  0  0  0  0  0  0  0  0
   -3.9529   -2.2846    0.1110 C   0  0  1  0  0  0  0  0  0  0  0  0
   -4.4411   -2.0644   -2.2679 O   0  5  0  0  0  0  0  0  0  0  0  0
   -4.2575   -4.1642   -1.3825 O   0  0  0  0  0  0  0  0  0  0  0  0
   -3.4657    0.1106   -0.0218 O   0  0  0  0  0  0  0  0  0  0  0  0
   -1.8156   -1.4214   -0.3313 O   0  0  0  0  0  0  0  0  0  0  0  0
   -8.7075   -1.5679    2.6058 H   0  0  0  0  0  0  0  0  0  0  0  0
   -7.1113   -3.3141    3.4017 H   0  0  0  0  0  0  0  0  0  0  0  0
   -8.0949   -0.1546    0.6445 H   0  0  0  0  0  0  0  0  0  0  0  0
   -4.9319   -3.6168    2.2559 H   0  0  0  0  0  0  0  0  0  0  0  0
   -5.9092   -0.4798   -0.4971 H   0  0  0  0  0  0  0  0  0  0  0  0
    1.3956    0.2802   -2.0550 H   0  0  0  0  0  0  0  0  0  0  0  0
    0.6511    0.6359   -3.6845 H   0  0  0  0  0  0  0  0  0  0  0  0
   -0.1390   -1.7828   -3.8442 H   0  0  0  0  0  0  0  0  0  0  0  0
    0.5946   -2.1305   -2.2093 H   0  0  0  0  0  0  0  0  0  0  0  0
   -2.3051    1.0888   -2.7191 H   0  0  0  0  0  0  0  0  0  0  0  0
   -2.8281   -0.6017   -2.8616 H   0  0  0  0  0  0  0  0  0  0  0  0
   -1.7753    0.1094   -4.1040 H   0  0  0  0  0  0  0  0  0  0  0  0
   -1.2648    0.5796   -0.3705 H   0  0  0  0  0  0  0  0  0  0  0  0
    0.0475   -0.6262   -0.2722 H   0  0  0  0  0  0  0  0  0  0  0  0
   -3.3633   -3.0366    0.6367 H   0  0  0  0  0  0  0  0  0  0  0  0
  1  2  1  0  0  0  0
  1  3  2  0  0  0  0
  1 19  1  0  0  0  0
  2  4  2  0  0  0  0
  2 20  1  0  0  0  0
  3  5  1  0  0  0  0
  3 21  1  0  0  0  0
  4  6  1  0  0  0  0
  4 22  1  0  0  0  0
  5  6  2  0  0  0  0
  5 23  1  0  0  0  0
  6 14  1  0  0  0  0
  7 14  1  0  0  0  0
  7 15  1  0  0  0  0
  7 16  2  0  0  0  0
  8 14  1  0  0  0  0
  8 17  2  0  0  0  0
  8 18  1  0  0  0  0
  9 10  1  0  0  0  0
  9 11  1  0  0  0  0
  9 24  1  0  0  0  0
  9 25  1  0  0  0  0
 10 11  1  0  0  0  0
 10 26  1  0  0  0  0
 10 27  1  0  0  0  0
 11 12  1  0  0  0  0
 11 13  1  0  0  0  0
 12 28  1  0  0  0  0
 12 29  1  0  0  0  0
 12 30  1  0  0  0  0
 13 18  1  0  0  0  0
 13 31  1  0  0  0  0
 13 32  1  0  0  0  0
 14 33  1  0  0  0  0
M  CHG  1  15  -1
M  END
$$$$
