33
1 1 C13H17N2O
C                    -0.023632318672    -1.459298182339    -0.032763631283
C                     0.956838927949     1.153725923894     0.052781230389
C                     1.233898615565    -1.219717142579     0.534210088118
C                     1.729483752154     0.102773030115     0.573227059417
C                    -0.771098039218    -0.405881381258    -0.551435695343
C                    -0.287678554409     0.904697800897    -0.502674566014
C                    -2.840426005488     0.391448247465    -1.469715601951
C                     2.044758178418    -2.388574534263     1.064253884680
C                     3.071047625271     0.423829204248     1.202916163023
C                     3.177933314832    -1.958113480123     2.001334780236
C                     3.969493361469    -0.804386571960     1.380058869307
C                    -2.440587854435     1.762933265895    -0.944487661971
C                    -2.934480126667     1.957408071026     0.493476116691
N                    -2.028015223143    -0.612158367509    -1.195655221972
N                    -3.979539489183     0.242320193297    -2.144338042116
O                    -1.030126680144     1.921943646263    -1.075692843855
H                    -0.414550648079    -2.474998549786    -0.069844819427
H                     1.324511365050     2.176167442784     0.073791206102
H                     1.378381732098    -3.097722400690     1.567097951447
H                     2.472744032614    -2.925617747207     0.207181196643
H                     3.575893109041     1.191628315693     0.607140582195
H                     2.882512178150     0.878035773357     2.185120390924
H                     2.763330272917    -1.640921977119     2.966465428233
H                     3.830477090031    -2.813212263080     2.201184290127
H                     4.369201202634    -1.116679640278     0.407189248026
H                     4.827368462078    -0.540964532494     2.005734417775
H                    -2.869417312356     2.524586809554    -1.599797483494
H                    -2.519450784884     1.201446547949     1.164558382484
H                    -4.026427907989     1.908136613779     0.539768290367
H                    -2.615420262977     2.943995156257     0.837252715452
H                    -2.252840600893    -1.558203593807    -1.496025096925
H                    -4.303148885149    -0.653500395302    -2.496299779343
H                    -4.560971446543     1.047950966715    -2.344482478341
