
  -OEChem-05262117483D

 33 35  0     1  0  0  0  0  0999 V2000
   -0.0236   -1.4593   -0.0328 C   0  0  0  0  0  0  0  0  0  0  0  0
    0.9568    1.1537    0.0528 C   0  0  0  0  0  0  0  0  0  0  0  0
    1.2339   -1.2197    0.5342 C   0  0  0  0  0  0  0  0  0  0  0  0
    1.7295    0.1028    0.5732 C   0  0  0  0  0  0  0  0  0  0  0  0
   -0.7711   -0.4059   -0.5514 C   0  0  0  0  0  0  0  0  0  0  0  0
   -0.2877    0.9047   -0.5027 C   0  0  0  0  0  0  0  0  0  0  0  0
   -2.8404    0.3914   -1.4697 C   0  0  0  0  0  0  0  0  0  0  0  0
    2.0448   -2.3886    1.0643 C   0  0  0  0  0  0  0  0  0  0  0  0
    3.0710    0.4238    1.2029 C   0  0  0  0  0  0  0  0  0  0  0  0
    3.1779   -1.9581    2.0013 C   0  0  0  0  0  0  0  0  0  0  0  0
    3.9695   -0.8044    1.3801 C   0  0  0  0  0  0  0  0  0  0  0  0
   -2.4406    1.7629   -0.9445 C   0  0  1  0  0  0  0  0  0  0  0  0
   -2.9345    1.9574    0.4935 C   0  0  0  0  0  0  0  0  0  0  0  0
   -2.0280   -0.6122   -1.1957 N   0  3  0  0  0  0  0  0  0  0  0  0
   -3.9795    0.2423   -2.1443 N   0  0  0  0  0  0  0  0  0  0  0  0
   -1.0301    1.9219   -1.0757 O   0  0  0  0  0  0  0  0  0  0  0  0
   -0.4146   -2.4750   -0.0698 H   0  0  0  0  0  0  0  0  0  0  0  0
    1.3245    2.1762    0.0738 H   0  0  0  0  0  0  0  0  0  0  0  0
    1.3784   -3.0977    1.5671 H   0  0  0  0  0  0  0  0  0  0  0  0
    2.4727   -2.9256    0.2072 H   0  0  0  0  0  0  0  0  0  0  0  0
    3.5759    1.1916    0.6071 H   0  0  0  0  0  0  0  0  0  0  0  0
    2.8825    0.8780    2.1851 H   0  0  0  0  0  0  0  0  0  0  0  0
    2.7633   -1.6409    2.9665 H   0  0  0  0  0  0  0  0  0  0  0  0
    3.8305   -2.8132    2.2012 H   0  0  0  0  0  0  0  0  0  0  0  0
    4.3692   -1.1167    0.4072 H   0  0  0  0  0  0  0  0  0  0  0  0
    4.8274   -0.5410    2.0057 H   0  0  0  0  0  0  0  0  0  0  0  0
   -2.8694    2.5246   -1.5998 H   0  0  0  0  0  0  0  0  0  0  0  0
   -2.5195    1.2014    1.1646 H   0  0  0  0  0  0  0  0  0  0  0  0
   -4.0264    1.9081    0.5398 H   0  0  0  0  0  0  0  0  0  0  0  0
   -2.6154    2.9440    0.8373 H   0  0  0  0  0  0  0  0  0  0  0  0
   -2.2528   -1.5582   -1.4960 H   0  0  0  0  0  0  0  0  0  0  0  0
   -4.3031   -0.6535   -2.4963 H   0  0  0  0  0  0  0  0  0  0  0  0
   -4.5610    1.0480   -2.3445 H   0  0  0  0  0  0  0  0  0  0  0  0
  1  3  1  0  0  0  0
  1  5  2  0  0  0  0
  1 17  1  0  0  0  0
  2  4  1  0  0  0  0
  2  6  2  0  0  0  0
  2 18  1  0  0  0  0
  3  4  2  0  0  0  0
  3  8  1  0  0  0  0
  4  9  1  0  0  0  0
  5  6  1  0  0  0  0
  5 14  1  0  0  0  0
  6 16  1  0  0  0  0
  7 12  1  0  0  0  0
  7 14  2  0  0  0  0
  7 15  1  0  0  0  0
  8 10  1  0  0  0  0
  8 19  1  0  0  0  0
  8 20  1  0  0  0  0
  9 11  1  0  0  0  0
  9 21  1  0  0  0  0
  9 22  1  0  0  0  0
 10 11  1  0  0  0  0
 10 23  1  0  0  0  0
 10 24  1  0  0  0  0
 11 25  1  0  0  0  0
 11 26  1  0  0  0  0
 12 13  1  0  0  0  0
 12 16  1  0  0  0  0
 12 27  1  0  0  0  0
 13 28  1  0  0  0  0
 13 29  1  0  0  0  0
 13 30  1  0  0  0  0
 14 31  1  0  0  0  0
 15 32  1  0  0  0  0
 15 33  1  0  0  0  0
M  CHG  1  14   1
M  END
$$$$
