14
0 1 BrC6H3INO2
C                     2.386097736204    -0.988466463386    -0.190549966553
C                     1.407870703674    -0.323026226804     0.545415410262
C                     2.343724373778    -1.246707498119     2.593574430693
C                     3.344907933931    -1.786317040615     0.443450423165
C                     1.384423316562    -0.470150673175     1.934630664597
C                     3.314880265246    -1.916253588928     1.843585048154
N                     4.265637941608    -2.533754979357    -0.439963325267
O                     4.459944971104    -2.064277070337    -1.567307071697
O                     4.746462875845    -3.586187537286    -0.020222321894
Br                    0.029618260152     0.400544015243     2.960266678138
I                     5.131962890999    -2.547452678538     2.999923318849
H                     2.411540147859    -0.912677279932    -1.272145872153
H                     0.668753219303     0.290892739744     0.042374505449
H                     2.325641721726    -1.342135188709     3.673114249991
