21
0 1 C9FH8NO2
C                    -0.581113969483    -0.269828761497     1.860788731567
C                    -0.422398129150    -0.884755212661     3.099479104985
C                     1.741416465417    -0.765319847419     1.435313944947
C                     0.531474231355    -0.215121209642     1.028263087345
C                     0.832117209376    -1.406469251917     3.460379656029
C                     0.469149268805    -1.552998014085     6.026005931013
C                     1.039086624007    -3.664321229788     4.716298584188
C                     2.307836252697    -2.929535775275     4.980515453116
C                     1.020577439248    -2.127499803193     4.764746392983
N                     1.885029826286    -1.348562818531     2.631624854525
O                     0.418206437088    -2.142069909215     7.092019658009
O                     0.048905388328    -0.263818927666     5.903593922795
F                     0.437578429414     0.371061065703    -0.190031552807
H                    -1.530199948577     0.150574528323     1.541597727181
H                    -1.260912387197    -0.954601127485     3.783678647226
H                     2.609257406972    -0.729941297534     0.779526869082
H                     0.890346118061    -4.094880393383     3.731120692577
H                     0.554360018569    -4.171897940020     5.543417762435
H                     2.692506973076    -2.937136109422     5.994209868510
H                     3.034332574838    -2.836936335788     4.182320826033
H                    -0.246730980600     0.000814726525     6.796053897434
