18
0 1 C7ClF3H3NO3
C                     2.374358712384    -1.251304375880    -0.328746161484
C                     1.226712627174    -0.657973551431     0.195585050670
C                     1.962744246393    -1.220963069154     2.445709289689
C                     3.122534387659    -1.778849122481     1.906702051403
C                     3.337251861548    -1.798097906477     0.521450212666
C                     1.042590084065    -0.653201516014     1.576002151782
C                     5.368495901776    -1.776103015556    -0.719126063662
N                     4.099886187541    -2.342049845412     2.859109554138
O                     3.644511750787    -2.792101579652     3.915675970351
O                     5.291754744396    -2.304415825836     2.556293964994
O                     4.440068022009    -2.467221798540     0.010450667816
F                    -0.072532997324    -0.089899873697     2.086443467592
F                     4.897514462715    -1.502129589976    -1.970256721247
F                     6.425212937699    -2.580702136834    -0.856703486389
Cl                    5.875443563183    -0.222639193231     0.015398718157
H                     2.528774231156    -1.298147782873    -1.400484384666
H                     0.474842061985    -0.217397782920    -0.451223057412
H                     1.794874587543    -1.230077797351     3.516283005502
