
  -OEChem-05262117483D

 36 38  0     0  0  0  0  0  0999 V2000
    3.4023    0.4455    3.7656 C   0  0  0  0  0  0  0  0  0  0  0  0
    2.1175   -0.0993    3.8112 C   0  0  0  0  0  0  0  0  0  0  0  0
    4.5028   -0.3418    3.4077 C   0  0  0  0  0  0  0  0  0  0  0  0
    3.0021   -2.2477    3.1451 C   0  0  0  0  0  0  0  0  0  0  0  0
    1.9055   -1.4511    3.4963 C   0  0  0  0  0  0  0  0  0  0  0  0
    4.2717   -1.6789    3.1076 C   0  0  0  0  0  0  0  0  0  0  0  0
   -0.4862   -1.1231    2.7699 C   0  0  0  0  0  0  0  0  0  0  0  0
    1.4726    1.1766   -1.7473 C   0  0  0  0  0  0  0  0  0  0  0  0
    0.4849    0.1241   -2.2230 C   0  0  0  0  0  0  0  0  0  0  0  0
    1.5143   -0.7651   -0.0042 C   0  0  0  0  0  0  0  0  0  0  0  0
   -0.3565    0.9357    0.1030 C   0  0  0  0  0  0  0  0  0  0  0  0
    0.5396   -1.8025    0.5744 C   0  0  0  0  0  0  0  0  0  0  0  0
   -1.2741   -0.1572    0.6702 C   0  0  0  0  0  0  0  0  0  0  0  0
    0.7472    0.3202   -0.7435 C   0  0  0  0  0  0  0  0  0  0  0  0
    0.5012   -2.0273    3.5148 C   0  0  0  0  0  0  0  0  0  0  0  0
   -0.4808   -1.1529    1.4000 N   0  0  0  0  0  0  0  0  0  0  0  0
   -1.2390   -0.3848    3.4128 O   0  0  0  0  0  0  0  0  0  0  0  0
    5.3239   -2.4660    2.7573 F   0  0  0  0  0  0  0  0  0  0  0  0
    3.5529    1.4941    4.0079 H   0  0  0  0  0  0  0  0  0  0  0  0
    1.2690    0.5230    4.0818 H   0  0  0  0  0  0  0  0  0  0  0  0
    5.5103    0.0597    3.3618 H   0  0  0  0  0  0  0  0  0  0  0  0
    2.8845   -3.2988    2.8953 H   0  0  0  0  0  0  0  0  0  0  0  0
    2.5312    0.9909   -1.9100 H   0  0  0  0  0  0  0  0  0  0  0  0
    1.1830    2.2208   -1.8335 H   0  0  0  0  0  0  0  0  0  0  0  0
   -0.4643    0.4649   -2.6283 H   0  0  0  0  0  0  0  0  0  0  0  0
    0.8838   -0.7645   -2.7057 H   0  0  0  0  0  0  0  0  0  0  0  0
    2.0927   -0.3238    0.8160 H   0  0  0  0  0  0  0  0  0  0  0  0
    2.2238   -1.2648   -0.6739 H   0  0  0  0  0  0  0  0  0  0  0  0
   -0.9490    1.6433   -0.4885 H   0  0  0  0  0  0  0  0  0  0  0  0
    0.0822    1.4951    0.9390 H   0  0  0  0  0  0  0  0  0  0  0  0
    0.0275   -2.3221   -0.2458 H   0  0  0  0  0  0  0  0  0  0  0  0
    1.0732   -2.5545    1.1512 H   0  0  0  0  0  0  0  0  0  0  0  0
   -2.0121    0.2546    1.3568 H   0  0  0  0  0  0  0  0  0  0  0  0
   -1.7968   -0.6697   -0.1472 H   0  0  0  0  0  0  0  0  0  0  0  0
    0.5011   -3.0465    3.1191 H   0  0  0  0  0  0  0  0  0  0  0  0
    0.1284   -2.0711    4.5409 H   0  0  0  0  0  0  0  0  0  0  0  0
  1  2  1  0  0  0  0
  1  3  2  0  0  0  0
  1 19  1  0  0  0  0
  2  5  2  0  0  0  0
  2 20  1  0  0  0  0
  3  6  1  0  0  0  0
  3 21  1  0  0  0  0
  4  5  1  0  0  0  0
  4  6  2  0  0  0  0
  4 22  1  0  0  0  0
  5 15  1  0  0  0  0
  6 18  1  0  0  0  0
  7 15  1  0  0  0  0
  7 16  1  0  0  0  0
  7 17  2  0  0  0  0
  8  9  1  0  0  0  0
  8 14  1  0  0  0  0
  8 23  1  0  0  0  0
  8 24  1  0  0  0  0
  9 14  1  0  0  0  0
  9 25  1  0  0  0  0
  9 26  1  0  0  0  0
 10 12  1  0  0  0  0
 10 14  1  0  0  0  0
 10 27  1  0  0  0  0
 10 28  1  0  0  0  0
 11 13  1  0  0  0  0
 11 14  1  0  0  0  0
 11 29  1  0  0  0  0
 11 30  1  0  0  0  0
 12 16  1  0  0  0  0
 12 31  1  0  0  0  0
 12 32  1  0  0  0  0
 13 16  1  0  0  0  0
 13 33  1  0  0  0  0
 13 34  1  0  0  0  0
 15 35  1  0  0  0  0
 15 36  1  0  0  0  0
M  END
$$$$
