
  -OEChem-05262117483D

 20 20  0     0  0  0  0  0  0999 V2000
    2.2809    1.2878    4.0690 C   0  0  0  0  0  0  0  0  0  0  0  0
    2.7331    1.0943    5.3651 C   0  0  0  0  0  0  0  0  0  0  0  0
    3.0227   -0.2958    5.4872 C   0  0  0  0  0  0  0  0  0  0  0  0
    0.5768   -0.8342    1.8813 C   0  0  0  0  0  0  0  0  0  0  0  0
    3.6206   -1.0448    6.6393 C   0  0  0  0  0  0  0  0  0  0  0  0
   -0.2242   -1.2639    3.0844 C   0  0  0  0  0  0  0  0  0  0  0  0
    1.9916   -0.2679    2.1010 C   0  0  0  0  0  0  0  0  0  0  0  0
    2.7923   -0.8979    4.3130 N   0  0  0  0  0  0  0  0  0  0  0  0
    2.3392    0.0691    3.4680 N   0  0  0  0  0  0  0  0  0  0  0  0
    0.1722   -0.9252    0.7354 O   0  0  0  0  0  0  0  0  0  0  0  0
    2.4443    2.5012    7.0034 I   0  0  0  0  0  0  0  0  0  0  0  0
    1.9510    2.1775    3.5504 H   0  0  0  0  0  0  0  0  0  0  0  0
    3.0570   -0.8612    7.5586 H   0  0  0  0  0  0  0  0  0  0  0  0
    3.6365   -2.1152    6.4278 H   0  0  0  0  0  0  0  0  0  0  0  0
    4.6457   -0.7071    6.8211 H   0  0  0  0  0  0  0  0  0  0  0  0
   -0.4217   -0.4008    3.7300 H   0  0  0  0  0  0  0  0  0  0  0  0
   -1.1673   -1.7037    2.7581 H   0  0  0  0  0  0  0  0  0  0  0  0
    0.3497   -1.9752    3.6869 H   0  0  0  0  0  0  0  0  0  0  0  0
    2.1047    0.6160    1.4701 H   0  0  0  0  0  0  0  0  0  0  0  0
    2.7013   -1.0204    1.7464 H   0  0  0  0  0  0  0  0  0  0  0  0
  1  2  2  0  0  0  0
  1  9  1  0  0  0  0
  1 12  1  0  0  0  0
  2  3  1  0  0  0  0
  2 11  1  0  0  0  0
  3  5  1  0  0  0  0
  3  8  2  0  0  0  0
  4  6  1  0  0  0  0
  4  7  1  0  0  0  0
  4 10  2  0  0  0  0
  5 13  1  0  0  0  0
  5 14  1  0  0  0  0
  5 15  1  0  0  0  0
  6 16  1  0  0  0  0
  6 17  1  0  0  0  0
  6 18  1  0  0  0  0
  7  9  1  0  0  0  0
  7 19  1  0  0  0  0
  7 20  1  0  0  0  0
  8  9  1  0  0  0  0
M  END
$$$$
