
  -OEChem-05262117483D

 36 38  0     0  0  0  0  0  0999 V2000
   -0.0056   -3.3468    5.2018 C   0  0  0  0  0  0  0  0  0  0  0  0
    1.9368   -4.3602    4.1914 C   0  0  0  0  0  0  0  0  0  0  0  0
   -2.5409    2.9650    3.4313 C   0  0  0  0  0  0  0  0  0  0  0  0
   -0.4050    2.7663    4.5106 C   0  0  0  0  0  0  0  0  0  0  0  0
   -2.1395    2.0611    2.4501 C   0  0  0  0  0  0  0  0  0  0  0  0
    0.0051    1.8455    3.5420 C   0  0  0  0  0  0  0  0  0  0  0  0
    0.1383   -4.1656    6.3225 C   0  0  0  0  0  0  0  0  0  0  0  0
    2.0907   -5.1809    5.3001 C   0  0  0  0  0  0  0  0  0  0  0  0
    0.2101   -1.2843    2.9688 C   0  0  0  0  0  0  0  0  0  0  0  0
    0.8874   -3.4210    4.1210 C   0  0  0  0  0  0  0  0  0  0  0  0
   -1.6845    3.3362    4.4821 C   0  0  0  0  0  0  0  0  0  0  0  0
   -0.8643    1.4686    2.5028 C   0  0  0  0  0  0  0  0  0  0  0  0
    1.1931   -5.0901    6.3776 C   0  0  0  0  0  0  0  0  0  0  0  0
    0.7201   -2.5426    2.9541 C   0  0  0  0  0  0  0  0  0  0  0  0
    0.0372   -0.5554    1.7243 C   0  0  0  0  0  0  0  0  0  0  0  0
   -2.1297    4.3341    5.5266 C   0  0  0  0  0  0  0  0  0  0  0  0
    0.5466   -5.8807    8.5415 C   0  0  0  0  0  0  0  0  0  0  0  0
   -0.4866    0.5878    1.4752 N   0  0  0  0  0  0  0  0  0  0  0  0
    1.4260   -5.9376    7.4196 O   0  0  0  0  0  0  0  0  0  0  0  0
    1.1722   -3.2129    1.3825 S   0  0  0  0  0  0  0  0  0  0  0  0
    0.6693   -1.4651    0.3017 S   0  0  0  0  0  0  0  0  0  0  0  0
   -0.8439   -2.6577    5.1589 H   0  0  0  0  0  0  0  0  0  0  0  0
    2.6563   -4.4296    3.3799 H   0  0  0  0  0  0  0  0  0  0  0  0
   -3.5374    3.3997    3.3759 H   0  0  0  0  0  0  0  0  0  0  0  0
    0.2904    3.0497    5.2982 H   0  0  0  0  0  0  0  0  0  0  0  0
   -2.8038    1.7934    1.6332 H   0  0  0  0  0  0  0  0  0  0  0  0
    1.0132    1.4402    3.5696 H   0  0  0  0  0  0  0  0  0  0  0  0
   -0.5786   -4.0827    7.1313 H   0  0  0  0  0  0  0  0  0  0  0  0
    2.9046   -5.8971    5.3600 H   0  0  0  0  0  0  0  0  0  0  0  0
   -0.0893   -0.8088    3.8956 H   0  0  0  0  0  0  0  0  0  0  0  0
   -2.3488    5.3099    5.0775 H   0  0  0  0  0  0  0  0  0  0  0  0
   -3.0416    3.9999    6.0347 H   0  0  0  0  0  0  0  0  0  0  0  0
   -1.3594    4.4847    6.2883 H   0  0  0  0  0  0  0  0  0  0  0  0
    0.9173   -6.6247    9.2472 H   0  0  0  0  0  0  0  0  0  0  0  0
   -0.4813   -6.1321    8.2542 H   0  0  0  0  0  0  0  0  0  0  0  0
    0.5661   -4.8905    9.0122 H   0  0  0  0  0  0  0  0  0  0  0  0
  1  7  1  0  0  0  0
  1 10  2  0  0  0  0
  1 22  1  0  0  0  0
  2  8  2  0  0  0  0
  2 10  1  0  0  0  0
  2 23  1  0  0  0  0
  3  5  2  0  0  0  0
  3 11  1  0  0  0  0
  3 24  1  0  0  0  0
  4  6  1  0  0  0  0
  4 11  2  0  0  0  0
  4 25  1  0  0  0  0
  5 12  1  0  0  0  0
  5 26  1  0  0  0  0
  6 12  2  0  0  0  0
  6 27  1  0  0  0  0
  7 13  2  0  0  0  0
  7 28  1  0  0  0  0
  8 13  1  0  0  0  0
  8 29  1  0  0  0  0
  9 14  2  0  0  0  0
  9 15  1  0  0  0  0
  9 30  1  0  0  0  0
 10 14  1  0  0  0  0
 11 16  1  0  0  0  0
 12 18  1  0  0  0  0
 13 19  1  0  0  0  0
 14 20  1  0  0  0  0
 15 18  2  0  0  0  0
 15 21  1  0  0  0  0
 16 31  1  0  0  0  0
 16 32  1  0  0  0  0
 16 33  1  0  0  0  0
 17 19  1  0  0  0  0
 17 34  1  0  0  0  0
 17 35  1  0  0  0  0
 17 36  1  0  0  0  0
 20 21  1  0  0  0  0
M  END
$$$$
