20
0 1 C7H9IN2O
C                     4.111254173468     1.710961528468     5.291377658007
C                     4.707045587278     0.896757391016     6.241875524234
C                     4.527698138230    -0.447049061035     5.799441195398
C                     1.819391404756     2.133425534890     3.156142384683
C                     5.007163520961    -1.726951189400     6.414035730740
C                     0.959117385098     2.187884262328     1.910740223865
C                     3.020055844662     1.187007619666     3.066304398261
N                     3.894847894013    -0.440408358009     4.621493454711
N                     3.639683903049     0.870816219256     4.332478114000
O                     1.589794552516     2.801375119221     4.146949658169
I                     5.131047562594     1.525540082853     8.291881087374
H                     3.981900259847     2.781153421757     5.237809668108
H                     4.657796868775    -1.817458966001     7.446970510920
H                     4.650494477273    -2.580325717209     5.834783962321
H                     6.101014392870    -1.751910308801     6.444630941983
H                     0.314786482542     1.300645176509     1.886196011148
H                     0.331018242047     3.079555778798     1.929359170561
H                     1.566987226407     2.170816455748     0.999959795519
H                     3.744181616945     1.646403919640     2.377955302338
H                     2.720328322050     0.235595853813     2.620256619885
