
  -OEChem-05262117483D

 18 18  0     0  0  0  0  0  0999 V2000
    1.8773   -1.2927   -0.1355 C   0  0  0  0  0  0  0  0  0  0  0  0
    0.8019   -0.7276    0.5491 C   0  0  0  0  0  0  0  0  0  0  0  0
    1.8400   -1.3253    2.6670 C   0  0  0  0  0  0  0  0  0  0  0  0
    2.9227   -1.8597    1.9668 C   0  0  0  0  0  0  0  0  0  0  0  0
    2.9527   -1.8409    0.5643 C   0  0  0  0  0  0  0  0  0  0  0  0
    0.8065   -0.7503    1.9413 C   0  0  0  0  0  0  0  0  0  0  0  0
    4.9604   -1.7161   -0.6975 C   0  0  0  0  0  0  0  0  0  0  0  0
    4.0064   -2.4592    2.7703 N   0  3  0  0  0  0  0  0  0  0  0  0
    3.6914   -2.9039    3.8786 O   0  5  0  0  0  0  0  0  0  0  0  0
    5.1439   -2.4644    2.3007 O   0  0  0  0  0  0  0  0  0  0  0  0
    3.9735   -2.4794   -0.1316 O   0  0  0  0  0  0  0  0  0  0  0  0
   -0.2348   -0.2114    2.6092 F   0  0  0  0  0  0  0  0  0  0  0  0
    6.0380   -2.4923   -0.8277 F   0  0  0  0  0  0  0  0  0  0  0  0
    5.2734   -0.6426    0.0512 F   0  0  0  0  0  0  0  0  0  0  0  0
    4.5053   -1.1107   -2.3476 Cl  0  0  0  0  0  0  0  0  0  0  0  0
    1.8893   -1.3187   -1.2190 H   0  0  0  0  0  0  0  0  0  0  0  0
   -0.0359   -0.2871    0.0182 H   0  0  0  0  0  0  0  0  0  0  0  0
    1.8142   -1.3631    3.7497 H   0  0  0  0  0  0  0  0  0  0  0  0
  1  2  1  0  0  0  0
  1  5  2  0  0  0  0
  1 16  1  0  0  0  0
  2  6  2  0  0  0  0
  2 17  1  0  0  0  0
  3  4  2  0  0  0  0
  3  6  1  0  0  0  0
  3 18  1  0  0  0  0
  4  5  1  0  0  0  0
  4  8  1  0  0  0  0
  5 11  1  0  0  0  0
  6 12  1  0  0  0  0
  7 11  1  0  0  0  0
  7 13  1  0  0  0  0
  7 14  1  0  0  0  0
  7 15  1  0  0  0  0
  8  9  1  0  0  0  0
  8 10  2  0  0  0  0
M  CHG  2   8   1   9  -1
M  END
$$$$
