
  -OEChem-05262117483D

 36 38  0     0  0  0  0  0  0999 V2000
    0.7270   -1.3292    6.6534 C   0  0  0  0  0  0  0  0  0  0  0  0
    0.8865   -1.2825    5.2661 C   0  0  0  0  0  0  0  0  0  0  0  0
   -0.2522   -2.1442    7.2295 C   0  0  0  0  0  0  0  0  0  0  0  0
   -0.9161   -2.8661    4.9956 C   0  0  0  0  0  0  0  0  0  0  0  0
    0.0678   -2.0484    4.4267 C   0  0  0  0  0  0  0  0  0  0  0  0
   -1.0549   -2.8960    6.3780 C   0  0  0  0  0  0  0  0  0  0  0  0
   -0.6797   -0.9165    2.2892 C   0  0  0  0  0  0  0  0  0  0  0  0
    1.3687    1.5469   -2.1099 C   0  0  0  0  0  0  0  0  0  0  0  0
    0.3214    0.5785   -2.6336 C   0  0  0  0  0  0  0  0  0  0  0  0
    1.3140   -0.4930   -0.4820 C   0  0  0  0  0  0  0  0  0  0  0  0
   -0.4575    1.3009   -0.2559 C   0  0  0  0  0  0  0  0  0  0  0  0
    0.2868   -1.5099    0.0412 C   0  0  0  0  0  0  0  0  0  0  0  0
   -1.4273    0.2286    0.2606 C   0  0  0  0  0  0  0  0  0  0  0  0
    0.6044    0.6756   -1.1480 C   0  0  0  0  0  0  0  0  0  0  0  0
    0.2259   -1.9863    2.9277 C   0  0  0  0  0  0  0  0  0  0  0  0
   -0.6869   -0.8555    0.9159 N   0  0  0  0  0  0  0  0  0  0  0  0
   -1.3739   -0.1752    2.9832 O   0  0  0  0  0  0  0  0  0  0  0  0
   -2.0132   -3.6968    6.9185 F   0  0  0  0  0  0  0  0  0  0  0  0
    1.3676   -0.7288    7.2938 H   0  0  0  0  0  0  0  0  0  0  0  0
    1.6465   -0.6378    4.8315 H   0  0  0  0  0  0  0  0  0  0  0  0
   -0.3969   -2.2017    8.3039 H   0  0  0  0  0  0  0  0  0  0  0  0
   -1.5789   -3.4677    4.3797 H   0  0  0  0  0  0  0  0  0  0  0  0
    2.4141    1.3135   -2.2955 H   0  0  0  0  0  0  0  0  0  0  0  0
    1.1365    2.6084   -2.1329 H   0  0  0  0  0  0  0  0  0  0  0  0
   -0.6113    0.9921   -3.0079 H   0  0  0  0  0  0  0  0  0  0  0  0
    0.6674   -0.3012   -3.1703 H   0  0  0  0  0  0  0  0  0  0  0  0
    1.9179   -0.1291    0.3604 H   0  0  0  0  0  0  0  0  0  0  0  0
    1.9960   -0.9851   -1.1852 H   0  0  0  0  0  0  0  0  0  0  0  0
   -1.0153    2.0706   -0.8016 H   0  0  0  0  0  0  0  0  0  0  0  0
    0.0169    1.7902    0.6043 H   0  0  0  0  0  0  0  0  0  0  0  0
   -0.2568   -1.9464   -0.8068 H   0  0  0  0  0  0  0  0  0  0  0  0
    0.7786   -2.3293    0.5628 H   0  0  0  0  0  0  0  0  0  0  0  0
   -2.1308    0.6395    0.9832 H   0  0  0  0  0  0  0  0  0  0  0  0
   -1.9909   -0.2015   -0.5772 H   0  0  0  0  0  0  0  0  0  0  0  0
    1.2684   -1.7634    2.6748 H   0  0  0  0  0  0  0  0  0  0  0  0
   -0.0008   -2.9619    2.4851 H   0  0  0  0  0  0  0  0  0  0  0  0
  1  2  1  0  0  0  0
  1  3  2  0  0  0  0
  1 19  1  0  0  0  0
  2  5  2  0  0  0  0
  2 20  1  0  0  0  0
  3  6  1  0  0  0  0
  3 21  1  0  0  0  0
  4  5  1  0  0  0  0
  4  6  2  0  0  0  0
  4 22  1  0  0  0  0
  5 15  1  0  0  0  0
  6 18  1  0  0  0  0
  7 15  1  0  0  0  0
  7 16  1  0  0  0  0
  7 17  2  0  0  0  0
  8  9  1  0  0  0  0
  8 14  1  0  0  0  0
  8 23  1  0  0  0  0
  8 24  1  0  0  0  0
  9 14  1  0  0  0  0
  9 25  1  0  0  0  0
  9 26  1  0  0  0  0
 10 12  1  0  0  0  0
 10 14  1  0  0  0  0
 10 27  1  0  0  0  0
 10 28  1  0  0  0  0
 11 13  1  0  0  0  0
 11 14  1  0  0  0  0
 11 29  1  0  0  0  0
 11 30  1  0  0  0  0
 12 16  1  0  0  0  0
 12 31  1  0  0  0  0
 12 32  1  0  0  0  0
 13 16  1  0  0  0  0
 13 33  1  0  0  0  0
 13 34  1  0  0  0  0
 15 35  1  0  0  0  0
 15 36  1  0  0  0  0
M  END
$$$$
