16
0 1 C7H5IO3
C                     1.973202830699    -0.897140816947    -0.163125627490
C                     0.857375954205    -0.416820178008     0.521784668538
C                     2.958566542888    -1.617444368696     0.524125796144
C                     0.671143163506    -0.634291961069     1.897566410123
C                     1.655565834569    -1.368424458530     2.596796564270
C                     2.754264276650    -1.866200076556     1.877118484109
C                    -0.566414606635    -0.026746082048     2.524097532305
O                    -1.364039590327     0.597989134392     1.855785636212
O                     1.492170707709    -1.607201646357     3.933729607617
O                    -0.759611993856    -0.189672389650     3.849104508855
I                     4.577272941022    -2.375354809106     3.174035395498
H                     2.083748251639    -0.711179996876    -1.227317418516
H                     0.094128936254     0.158304346842     0.007975123907
H                     3.844032117744    -1.987534611181     0.018056949915
H                     2.335071331530    -1.951006968857     4.300224561922
H                    -0.030174663530    -0.706324695425     4.246426200017
