23   
torsion grid (-90,)
C        3.2182440474   -0.6365338329   -2.8760194795
C        4.5487337865   -0.4867582615   -2.4748100739
C        2.1945888094   -0.0449964425   -2.1340533323
C        4.8451383052    0.2529956441   -1.3280751119
C        2.4597747379    0.7130581375   -0.9832305143
C        3.8053516644    0.8393987032   -0.6042741879
C       -0.0976668553    0.7598617581   -0.4274600001
C        1.3301870573    2.9255212348   -0.4289219729
C       -0.7884784974    1.6559106033   -1.1430059551
C        0.6163018059    3.3900459288   -1.4812279820
C        1.3346504819    1.3644952868   -0.1906989030
N        0.0560372711    2.2497127569   -2.1650916970
Cl       4.2415797257    1.7542270222    0.8448371844
H        2.9772546961   -1.2147983804   -3.7641905723
H        5.3543054375   -0.9447586326   -3.0425225050
H        1.1599991654   -0.1595827363   -2.4392107874
H        5.8701666078    0.3745435007   -0.9922058944
H       -0.5351742638    0.1183539650    0.3336600177
H        1.8660914979    3.5580051810    0.2697061416
H       -1.8684372159    1.6855572231   -1.2866850158
H        0.5128656505    4.4090911920   -1.8391941343
H        1.5518923594    1.2121493676    0.8710669970
H       -0.5424550802    2.5663718246   -2.9286331650
23   
torsion grid (-75,)
C        3.1934846121   -0.6220422411   -2.8667497967
C        4.5273193009   -0.4901615837   -2.4711570062
C        2.1796987849   -0.0267597218   -2.1137871386
C        4.8371676540    0.2378993138   -1.3202785136
C        2.4595060306    0.7181407402   -0.9580755557
C        3.8082459383    0.8302913657   -0.5861933212
C       -0.0653191802    0.8075832382   -0.4058920301
C        1.3399521497    2.9174991764   -0.4237283867
C       -0.7968570839    1.5800738678   -1.2213225642
C        0.6283378396    3.3677408009   -1.4748423072
C        1.3466998304    1.3860481939   -0.1545486196
N       -0.0118260378    2.2971328110   -2.1915851716
Cl       4.2623725202    1.7358741712    0.8634602920
H        2.9417634265   -1.1894308657   -3.7589436700
H        5.3250839366   -0.9520835542   -3.0466636543
H        1.1429291697   -0.1310635807   -2.4149556368
H        5.8652874189    0.3464180638   -0.9894364373
H       -0.5132544716    0.1437707187    0.3280805863
H        1.8908248739    3.5727362775    0.2409443539
H       -1.8596108347    1.4564352982   -1.4205497354
H        0.5632485548    4.3896400912   -1.8339794205
H        1.5767691028    1.2365219077    0.9043378961
H       -0.6232893862    2.6778630676   -2.9113096480
23   
torsion grid (-60,)
C        3.1940056204   -0.6029511422   -2.8595278765
C        4.5262172347   -0.5030332394   -2.4496334103
C        2.1836931669    0.0017662742   -2.1089891278
C        4.8390971729    0.2056852620   -1.2874056471
C        2.4669164742    0.7246131115   -0.9403937634
C        3.8142120541    0.8087402002   -0.5564835273
C       -0.0407085799    0.8535475234   -0.3974358087
C        1.3563114247    2.9225200076   -0.4532842864
C       -0.8075718375    1.5307250773   -1.2650964887
C        0.6180845784    3.3670398038   -1.4835544433
C        1.3597019224    1.4157303016   -0.1437686037
N       -0.1299396339    2.3758975009   -2.1927240759
Cl       4.2719251817    1.6966373204    0.9032712316
H        2.9404164449   -1.1532496630   -3.7618255955
H        5.3203420879   -0.9733600799   -3.0233557513
H        1.1484711652   -0.0798723556   -2.4226612295
H        5.8660638453    0.2916242038   -0.9463879417
H       -0.4723930778    0.1440206060    0.3016167912
H        1.9578919012    3.5912949538    0.1513048026
H       -1.8470599921    1.2935788487   -1.4773606457
H        0.5939032098    4.3897121930   -1.8461811444
H        1.5923455014    1.2829429154    0.9166257343
H       -0.7838353514    2.8079406292   -2.8394074782
23   
torsion grid (-45,)
C        3.2158318829   -0.5907744916   -2.8466975915
C        4.5411379841   -0.5305952793   -2.4071566324
C        2.2072546189    0.0338205621   -2.1104038897
C        4.8488511698    0.1595996298   -1.2324881451
C        2.4841337534    0.7349888875   -0.9272809042
C        3.8249698577    0.7822317821   -0.5163551308
C       -0.0149946218    0.8894761986   -0.4005499901
C        1.3728935551    2.9387244356   -0.5113593536
C       -0.8276730211    1.5024700784   -1.2753940995
C        0.5754493468    3.3883929988   -1.4927004787
C        1.3757603993    1.4534624775   -0.1539743769
N       -0.2931158861    2.4780706978   -2.1497477793
Cl       4.2769501806    1.6530142389    0.9557707173
H        2.9670619035   -1.1246067912   -3.7601723627
H        5.3344665476   -1.0162665298   -2.9690330264
H        1.1768709320   -0.0160249981   -2.4474308472
H        5.8709355547    0.2170835921   -0.8712859302
H       -0.3982607411    0.1073560327    0.2469776189
H        2.0486404189    3.6092522443    0.0074480704
H       -1.8447584409    1.1776963428   -1.4762216249
H        0.5786615359    4.4110603392   -1.8567694351
H        1.6062797476    1.3500601528    0.9105550871
H       -1.0075966066    2.9493090927   -2.6939934172
23   
torsion grid (-30,)
C        3.2551222418   -0.5972455218   -2.8244411408
C        4.5688954217   -0.5701419953   -2.3481999351
C        2.2430730893    0.0523678173   -2.1152251304
C        4.8614138029    0.1128757215   -1.1654557102
C        2.5038639692    0.7436983232   -0.9229591414
C        3.8336960224    0.7592418458   -0.4760071047
C        0.0075254315    0.9098027324   -0.4255938754
C        1.3863188490    2.9550525240   -0.5888828082
C       -0.8568362592    1.4939337953   -1.2716030102
C        0.5129545730    3.4259441002   -1.4929162911
C        1.3877677921    1.4884278575   -0.1832937500
N       -0.4759515406    2.5951959593   -2.0578619274
Cl       4.2680675766    1.6244309481    1.0048593916
H        3.0185808639   -1.1239105566   -3.7452980948
H        5.3653625203   -1.0745938970   -2.8886780991
H        1.2211780788    0.0300641100   -2.4816026525
H        5.8749638702    0.1470721510   -0.7781455250
H       -0.3076369654    0.0413514675    0.1442205170
H        2.1441190858    3.6117435468   -0.1754651309
H       -1.8511329034    1.0994785171   -1.4596470833
H        0.5345875774    4.4489371490   -1.8559400860
H        1.6126698183    1.4180098015    0.8859124104
H       -1.2485279862    3.0958839242   -2.4796478830
23   
torsion grid (-15,)
C        3.3196634643   -0.6312658653   -2.8113063503
C        4.6221173570   -0.6228311353   -2.3033832429
C        2.3029786266    0.0398309884   -2.1300172859
C        4.8977524285    0.0627452114   -1.1183492926
C        2.5458708518    0.7316594504   -0.9342326681
C        3.8644002440    0.7290173972   -0.4559820537
C        0.0507100059    0.8974538113   -0.4707118881
C        1.4226660988    2.9483327149   -0.6822729207
C       -0.8717944481    1.4870872216   -1.2505921153
C        0.4638362743    3.4563881181   -1.4736926979
C        1.4202329275    1.4976557918   -0.2293840250
N       -0.6365259616    2.7015251707   -1.9019406120
Cl       4.2793699342    1.5993554305    1.0275542114
H        3.0969508475   -1.1586800954   -3.7351853505
H        5.4228539171   -1.1429628443   -2.8222622970
H        1.2897417633    0.0358670996   -2.5216300016
H        5.9026766878    0.0844169779   -0.7083108899
H       -0.1860712199   -0.0555348270   -0.0072796054
H        2.2611456930    3.5745147010   -0.3956816005
H       -1.8457999801    1.0419484380   -1.4312059263
H        0.4949427946    4.4794342137   -1.8362137406
H        1.6387815230    1.4594145112    0.8438112803
H       -1.4512495871    3.2202387186   -2.1999536476
23   
torsion grid (0,)
C        3.6562095058    0.0443606437   -3.1856928418
C        4.5220860683   -0.7159383538   -2.3938427632
C        2.7211348868    0.8867136949   -2.5822598854
C        4.4418348388   -0.6302888874   -1.0022966301
C        2.6217505977    1.0029375696   -1.1880852630
C        3.4974457588    0.2197440212   -0.4222437268
C        0.3156564514    1.0796736444   -0.2388817252
C        1.1821511470    3.0818667587   -1.4296495074
C       -0.8728645250    1.2974615963   -0.8297267510
C       -0.0470564249    3.2490162107   -1.9508314437
C        1.5563489608    1.9032824665   -0.5522331449
N       -1.0902685233    2.3701461476   -1.6900801396
Cl       3.4250400237    0.2676088962    1.3446756665
H        3.7089653079   -0.0202545387   -4.2694089612
H        5.2555876603   -1.3751582928   -2.8503410041
H        2.0434420634    1.4777385413   -3.1923835405
H        5.1015709773   -1.2153195706   -0.3690434175
H        0.4184562977    0.2405848457    0.4412731540
H        1.9474917351    3.8178271673   -1.6570571863
H       -1.7383505370    0.6727325598   -0.6314122012
H       -0.2952931342    4.0991306624   -2.5792087105
H        1.9859638231    2.2792144824    0.3844634867
H       -2.0028124810    2.5288540392   -2.0850838640
23   
torsion grid (15,)
C        3.7362847943    0.0067826003   -3.1642539317
C        4.6234925212   -0.6981349673   -2.3451475333
C        2.7623976450    0.8252720095   -2.5904138141
C        4.5234426030   -0.5818535064   -0.9573490280
C        2.6441777006    0.9734644756   -1.2004608222
C        3.5403352530    0.2437054366   -0.4062455570
C        0.2973056479    1.0147628766   -0.3550754620
C        1.1948855842    3.0298075246   -1.4944892880
C       -0.9238849327    1.3826520147   -0.7738786124
C       -0.0656506541    3.3418588612   -1.8382316248
C        1.5430842311    1.8523297105   -0.6045033138
N       -1.1742704734    2.6199187910   -1.3830202304
Cl       3.4453700960    0.3277684118    1.3571250867
H        3.8023433620   -0.0827371381   -4.2453887786
H        5.3878092308   -1.3383192581   -2.7775151073
H        2.0650583142    1.3692038191   -3.2221044655
H        5.1980996018   -1.1255121419   -0.3033836991
H        0.4159401842    0.0661083387    0.1583528265
H        2.0035286023    3.6654532001   -1.8432280704
H       -1.8007239990    0.7658613844   -0.6004109573
H       -0.2960034207    4.2071218821   -2.4529714441
H        1.9248898750    2.2280740113    0.3539220886
H       -2.0145136560    2.6844527998   -1.9421905066
23   
torsion grid (30,)
C        3.7152307598   -0.0245353538   -3.1332971117
C        4.6019376742   -0.6798916934   -2.2735690702
C        2.7064660748    0.7827415924   -2.6059834566
C        4.4654666037   -0.5274619639   -0.8925822015
C        2.5519290538    0.9685419041   -1.2236481537
C        3.4470712310    0.2852135398   -0.3878802964
C        0.1703981782    0.9740093922   -0.4773408014
C        1.0730852191    2.9921063239   -1.5970002465
C       -1.0538907125    1.4352049122   -0.7724488664
C       -0.1904076232    3.4108983324   -1.7692992642
C        1.4162176812    1.8298943691   -0.6810121626
N       -1.2722711643    2.7827957712   -1.1231312936
Cl       3.3056854723    0.4126932492    1.3686868648
H        3.8082832219   -0.1440409865   -4.2094874625
H        5.3937025282   -1.3102425783   -2.6693827813
H        2.0080051665    1.2843315167   -3.2705014877
H        5.1385913258   -1.0336029137   -0.2077034857
H        0.2946591510   -0.0562097683   -0.1609129595
H        1.8815887282    3.5295314192   -2.0828874244
H       -1.9482283880    0.8321634195   -0.6465750986
H       -0.4398032656    4.2817174493   -2.3680735750
H        1.7463938171    2.2272710307    0.2881394960
H       -2.1700933062    2.9564252516   -1.5594614357
23   
torsion grid (45,)
C        3.7634860969   -0.0759680288   -3.1172021938
C        4.6745942533   -0.6651612595   -2.2351671377
C        2.7197365624    0.7032227014   -2.6172901206
C        4.5261706742   -0.4756941894   -0.8603592138
C        2.5512516968    0.9251477025   -1.2409962066
C        3.4714046516    0.3068295876   -0.3820768904
C        0.1294264887    0.8734224268   -0.6065113522
C        1.0479694320    2.9338946822   -1.6410339460
C       -1.0741587993    1.4307645581   -0.7948010488
C       -0.1929904341    3.4458074533   -1.6485900655
C        1.3782686818    1.7494447632   -0.7364933232
N       -1.1924152517    2.8423268116   -0.8451726876
Cl       3.3209229056    0.4804640196    1.3687884879
H        3.8649693006   -0.2248082696   -4.1889227113
H        5.4944704022   -1.2724680666   -2.6091105516
H        2.0035263198    1.1524850037   -3.3000731196
H        5.2182210855   -0.9303840938   -0.1585259126
H        0.2401119185   -0.2026060530   -0.5271725105
H        1.8347366600    3.3901969688   -2.2326039032
H       -2.0026006678    0.8690500436   -0.7484512691
H       -0.4753286542    4.3381539094   -2.1983015974
H        1.6412631692    2.1406391746    0.2550457296
H       -2.1270516921    3.1487557377   -1.0930258110
23   
torsion grid (60,)
C        3.7290891744   -0.1649464494   -3.0896900592
C        4.6940604425   -0.6396778660   -2.1953121745
C        2.6562386830    0.5876244449   -2.6128279036
C        4.5713200749   -0.3619928739   -0.8334955183
C        2.5088182776    0.8927318706   -1.2488153121
C        3.4858186657    0.3921841156   -0.3767007135
C        0.0369035644    0.8156301934   -0.7653849882
C        1.0342755975    2.9252299257   -1.6582240447
C       -1.1169589800    1.4809518930   -0.9042114260
C       -0.1680456125    3.5153378884   -1.5498790072
C        1.3048199691    1.6884254514   -0.7874972661
N       -1.0828573323    2.8858775052   -0.6525165415
Cl       3.3808322369    0.6863324578    1.3606777985
H        3.8125809783   -0.3809220766   -4.1514662032
H        5.5377219741   -1.2252002653   -2.5505618905
H        1.9008254961    0.9531546043   -3.3037870707
H        5.3076172124   -0.7256734584   -0.1237236208
H        0.1116383533   -0.2568632705   -0.9104472697
H        1.8091404617    3.3107976888   -2.3117950445
H       -2.0915265877    1.0050507728   -0.9712758012
H       -0.4662701845    4.4367432075   -2.0393332206
H        1.4837629415    2.0488428737    0.2334745807
H       -2.0076684561    3.3012450382   -0.7137494264
23   
torsion grid (75,)
C        3.7561196278   -0.1961183184   -3.0756534768
C        4.7238730438   -0.6304776142   -2.1639521486
C        2.6659533994    0.5476885085   -2.6249959063
C        4.5862776136   -0.3210377530   -0.8104698592
C        2.5026218554    0.8838278065   -1.2697556718
C        3.4836117920    0.4234965637   -0.3796752309
C        0.0127063828    0.7771228388   -0.8242588416
C        1.0179038755    2.9162209707   -1.7159357904
C       -1.0984990302    1.5074168546   -0.9793451002
C       -0.1646434261    3.5334215616   -1.5260205835
C        1.2830230853    1.6666908584   -0.8382178083
N       -0.9540202358    2.8687969649   -0.5223681827
Cl       3.3622730360    0.7609647420    1.3479760274
H        3.8509707179   -0.4366307577   -4.1311537891
H        5.5807851653   -1.2085372774   -2.4991197102
H        1.9096962092    0.8813712488   -3.3310790873
H        5.3245303438   -0.6524908214   -0.0870745581
H        0.0771399066   -0.2795790048   -1.0646848504
H        1.7608054181    3.2540536654   -2.4301671996
H       -2.1052434707    1.1169671306   -1.1079659339
H       -0.5112863607    4.4508188179   -1.9899088374
H        1.4253831963    2.0445159850    0.1823671850
H       -1.8714111859    3.3053598222   -0.4537696886
23   
torsion grid (90,)
C        3.7214972797   -0.2035740467   -3.0693621947
C        4.6966572189   -0.6320991173   -2.1629132638
C        2.6346278088    0.5427157979   -2.6146593832
C        4.5695213731   -0.3148570165   -0.8101163185
C        2.4815471177    0.8882297010   -1.2602918007
C        3.4699276180    0.4318360260   -0.3757333834
C       -0.0101347943    0.7409906256   -0.7807377166
C        0.9918902460    2.9273151757   -1.7233871918
C       -1.0582482200    1.5233635468   -1.0597720992
C       -0.1942652123    3.5512727105   -1.5184354480
C        1.2657040785    1.6698464453   -0.8213609400
N       -0.8753389087    2.8397359883   -0.4638942444
Cl       3.3602495941    0.7781360095    1.3505291482
H        3.8079269872   -0.4505926751   -4.1240873449
H        5.5511688337   -1.2117470111   -2.5014207728
H        1.8730492692    0.8714959399   -3.3171877208
H        5.3134476792   -0.6417873129   -0.0904581652
H        0.0747695078   -0.3095027726   -1.0450402092
H        1.7300122741    3.2389161015   -2.4549510912
H       -2.0725958246    1.2067410114   -1.2982191112
H       -0.5800776316    4.4555028109   -1.9767491093
H        1.4174493038    2.0689452677    0.1883599848
H       -1.7971208831    3.2500643198   -0.3100802321
