
  -OEChem-05262117483D

 50 53  0     1  0  0  0  0  0999 V2000
    2.0323   10.1037  -10.1671 C   0  0  0  0  0  0  0  0  0  0  0  0
    1.1356   10.2552   -9.0762 C   0  0  0  0  0  0  0  0  0  0  0  0
    2.6004    8.8746  -10.4321 C   0  0  0  0  0  0  0  0  0  0  0  0
    2.8439    6.4577   -9.8351 C   0  0  0  0  0  0  0  0  0  0  0  0
    1.9842   -0.1129   -6.2615 C   0  0  0  0  0  0  0  0  0  0  0  0
    0.4410    1.0167   -4.8086 C   0  0  0  0  0  0  0  0  0  0  0  0
    0.8224    9.1797   -8.2705 C   0  0  0  0  0  0  0  0  0  0  0  0
    2.2131    1.0759   -6.9554 C   0  0  0  0  0  0  0  0  0  0  0  0
    0.6587    2.2182   -5.4954 C   0  0  0  0  0  0  0  0  0  0  0  0
    2.4955    5.4217   -9.0003 C   0  0  0  0  0  0  0  0  0  0  0  0
    2.2959    7.7495   -9.6192 C   0  0  0  0  0  0  0  0  0  0  0  0
    1.0980   -0.1659   -5.1748 C   0  0  0  0  0  0  0  0  0  0  0  0
    1.3926    7.9008   -8.5194 C   0  0  0  0  0  0  0  0  0  0  0  0
    1.5514    2.2466   -6.5721 C   0  0  0  0  0  0  0  0  0  0  0  0
    1.5873    5.6758   -7.9334 C   0  0  0  0  0  0  0  0  0  0  0  0
   -0.6539   -1.8411   -4.3346 C   0  0  0  0  0  0  0  0  0  0  0  0
    3.3090   -1.3777   -1.4109 C   0  0  0  0  0  0  0  0  0  0  0  0
    2.2116   -2.3663   -0.9058 C   0  0  0  0  0  0  0  0  0  0  0  0
    2.9470   -1.0668   -2.8810 C   0  0  0  0  0  0  0  0  0  0  0  0
    1.2519   -2.5756   -2.0993 C   0  0  0  0  0  0  0  0  0  0  0  0
    1.4329   -1.3213   -2.9684 C   0  0  0  0  0  0  0  0  0  0  0  0
    1.1609    4.5739   -6.9888 C   0  0  0  0  0  0  0  0  0  0  0  0
    0.8891   -1.4661   -4.4073 C   0  0  2  0  0  0  0  0  0  0  0  0
    1.0568    6.8637   -7.6988 N   0  0  0  0  0  0  0  0  0  0  0  0
   -1.4005   -1.0686   -3.6903 O   0  5  0  0  0  0  0  0  0  0  0  0
   -0.9314   -2.9245   -4.9321 O   0  0  0  0  0  0  0  0  0  0  0  0
    1.5615   -2.5361   -5.0681 O   0  0  0  0  0  0  0  0  0  0  0  0
    1.8430    3.3819   -7.3207 O   0  0  0  0  0  0  0  0  0  0  0  0
    2.2683   10.9612  -10.7923 H   0  0  0  0  0  0  0  0  0  0  0  0
    0.6939   11.2287   -8.8776 H   0  0  0  0  0  0  0  0  0  0  0  0
    3.2880    8.7518  -11.2667 H   0  0  0  0  0  0  0  0  0  0  0  0
    3.5351    6.2991  -10.6607 H   0  0  0  0  0  0  0  0  0  0  0  0
    2.4873   -1.0280   -6.5548 H   0  0  0  0  0  0  0  0  0  0  0  0
   -0.2818    0.9758   -4.0000 H   0  0  0  0  0  0  0  0  0  0  0  0
    0.1388    9.2744   -7.4316 H   0  0  0  0  0  0  0  0  0  0  0  0
    2.8998    1.1128   -7.7981 H   0  0  0  0  0  0  0  0  0  0  0  0
    0.1193    3.1076   -5.1854 H   0  0  0  0  0  0  0  0  0  0  0  0
    2.8876    4.4198   -9.1261 H   0  0  0  0  0  0  0  0  0  0  0  0
    3.2930   -0.4585   -0.8130 H   0  0  0  0  0  0  0  0  0  0  0  0
    4.3183   -1.7955   -1.3169 H   0  0  0  0  0  0  0  0  0  0  0  0
    2.6405   -3.3124   -0.5554 H   0  0  0  0  0  0  0  0  0  0  0  0
    1.6748   -1.9311   -0.0547 H   0  0  0  0  0  0  0  0  0  0  0  0
    3.2253   -0.0518   -3.1822 H   0  0  0  0  0  0  0  0  0  0  0  0
    3.4523   -1.7643   -3.5585 H   0  0  0  0  0  0  0  0  0  0  0  0
    1.5525   -3.4483   -2.6884 H   0  0  0  0  0  0  0  0  0  0  0  0
    0.2114   -2.7184   -1.7963 H   0  0  0  0  0  0  0  0  0  0  0  0
    0.8934   -0.4907   -2.4989 H   0  0  0  0  0  0  0  0  0  0  0  0
    1.3803    4.8862   -5.9583 H   0  0  0  0  0  0  0  0  0  0  0  0
    0.0723    4.4426   -7.0663 H   0  0  0  0  0  0  0  0  0  0  0  0
    0.7803   -3.1103   -5.2937 H   0  0  0  0  0  0  0  0  0  0  0  0
  1  2  1  0  0  0  0
  1  3  2  0  0  0  0
  1 29  1  0  0  0  0
  2  7  2  0  0  0  0
  2 30  1  0  0  0  0
  3 11  1  0  0  0  0
  3 31  1  0  0  0  0
  4 10  1  0  0  0  0
  4 11  2  0  0  0  0
  4 32  1  0  0  0  0
  5  8  2  0  0  0  0
  5 12  1  0  0  0  0
  5 33  1  0  0  0  0
  6  9  1  0  0  0  0
  6 12  2  0  0  0  0
  6 34  1  0  0  0  0
  7 13  1  0  0  0  0
  7 35  1  0  0  0  0
  8 14  1  0  0  0  0
  8 36  1  0  0  0  0
  9 14  2  0  0  0  0
  9 37  1  0  0  0  0
 10 15  2  0  0  0  0
 10 38  1  0  0  0  0
 11 13  1  0  0  0  0
 12 23  1  0  0  0  0
 13 24  2  0  0  0  0
 14 28  1  0  0  0  0
 15 22  1  0  0  0  0
 15 24  1  0  0  0  0
 16 23  1  0  0  0  0
 16 25  1  0  0  0  0
 16 26  2  0  0  0  0
 17 18  1  0  0  0  0
 17 19  1  0  0  0  0
 17 39  1  0  0  0  0
 17 40  1  0  0  0  0
 18 20  1  0  0  0  0
 18 41  1  0  0  0  0
 18 42  1  0  0  0  0
 19 21  1  0  0  0  0
 19 43  1  0  0  0  0
 19 44  1  0  0  0  0
 20 21  1  0  0  0  0
 20 45  1  0  0  0  0
 20 46  1  0  0  0  0
 21 23  1  0  0  0  0
 21 47  1  0  0  0  0
 22 28  1  0  0  0  0
 22 48  1  0  0  0  0
 22 49  1  0  0  0  0
 23 27  1  0  0  0  0
 27 50  1  0  0  0  0
M  CHG  1  25  -1
M  END
$$$$
