
  -OEChem-05262117483D

 51 54  0     1  0  0  0  0  0999 V2000
   -5.4865   -9.2520  -12.7938 C   0  0  0  0  0  0  0  0  0  0  0  0
   -4.5861   -9.9039  -11.9094 C   0  0  0  0  0  0  0  0  0  0  0  0
   -5.6390   -7.8825  -12.7449 C   0  0  0  0  0  0  0  0  0  0  0  0
   -5.0068   -5.6993  -11.7056 C   0  0  0  0  0  0  0  0  0  0  0  0
   -1.7300   -0.7036   -7.1039 C   0  0  0  0  0  0  0  0  0  0  0  0
   -0.4606   -2.5411   -6.2153 C   0  0  0  0  0  0  0  0  0  0  0  0
   -3.8537   -9.1794  -10.9923 C   0  0  0  0  0  0  0  0  0  0  0  0
   -2.3859   -1.5685   -7.9691 C   0  0  0  0  0  0  0  0  0  0  0  0
   -1.1118   -3.4274   -7.0850 C   0  0  0  0  0  0  0  0  0  0  0  0
   -4.2533   -5.0231  -10.7721 C   0  0  0  0  0  0  0  0  0  0  0  0
   -4.8978   -7.1096  -11.8103 C   0  0  0  0  0  0  0  0  0  0  0  0
   -0.7505   -1.1724   -6.2102 C   0  0  0  0  0  0  0  0  0  0  0  0
   -3.9899   -7.7664  -10.9190 C   0  0  0  0  0  0  0  0  0  0  0  0
   -2.0791   -2.9397   -7.9701 C   0  0  0  0  0  0  0  0  0  0  0  0
   -3.3816   -5.7701   -9.9351 C   0  0  0  0  0  0  0  0  0  0  0  0
    1.1810    0.4367   -6.1363 C   0  0  0  0  0  0  0  0  0  0  0  0
   -0.2853   -0.7119   -1.7105 C   0  0  0  0  0  0  0  0  0  0  0  0
    1.2011   -0.3196   -1.7412 C   0  0  0  0  0  0  0  0  0  0  0  0
   -0.5518   -1.3347   -3.1005 C   0  0  0  0  0  0  0  0  0  0  0  0
    1.3852    0.2029   -3.1728 C   0  0  0  0  0  0  0  0  0  0  0  0
    0.5713   -0.7886   -4.0352 C   0  0  0  0  0  0  0  0  0  0  0  0
   -2.5120   -5.1068   -8.8891 C   0  0  0  0  0  0  0  0  0  0  0  0
   -0.0018   -0.1652   -5.3366 C   0  0  2  0  0  0  0  0  0  0  0  0
   -3.2500   -7.0823   -9.9987 N   0  0  0  0  0  0  0  0  0  0  0  0
    1.4091    1.6293   -6.1314 O   0  0  0  0  0  0  0  0  0  0  0  0
    1.9791   -0.4243   -6.7988 O   0  0  0  0  0  0  0  0  0  0  0  0
   -0.8781    0.9040   -5.0137 O   0  0  0  0  0  0  0  0  0  0  0  0
   -2.7788   -3.7069   -8.8583 O   0  0  0  0  0  0  0  0  0  0  0  0
   -6.0550   -9.8394  -13.5098 H   0  0  0  0  0  0  0  0  0  0  0  0
   -4.4764  -10.9841  -11.9593 H   0  0  0  0  0  0  0  0  0  0  0  0
   -6.3273   -7.3783  -13.4198 H   0  0  0  0  0  0  0  0  0  0  0  0
   -5.6860   -5.1629  -12.3648 H   0  0  0  0  0  0  0  0  0  0  0  0
   -1.9820    0.3512   -7.0976 H   0  0  0  0  0  0  0  0  0  0  0  0
    0.2608   -2.9577   -5.5188 H   0  0  0  0  0  0  0  0  0  0  0  0
   -3.1607   -9.6601  -10.3081 H   0  0  0  0  0  0  0  0  0  0  0  0
   -3.1456   -1.2050   -8.6551 H   0  0  0  0  0  0  0  0  0  0  0  0
   -0.8622   -4.4813   -7.0468 H   0  0  0  0  0  0  0  0  0  0  0  0
   -4.3099   -3.9469  -10.6615 H   0  0  0  0  0  0  0  0  0  0  0  0
   -0.5350   -1.3907   -0.8892 H   0  0  0  0  0  0  0  0  0  0  0  0
   -0.8950    0.1901   -1.5884 H   0  0  0  0  0  0  0  0  0  0  0  0
    1.4686    0.4205   -0.9805 H   0  0  0  0  0  0  0  0  0  0  0  0
    1.8307   -1.2039   -1.5773 H   0  0  0  0  0  0  0  0  0  0  0  0
   -0.5053   -2.4271   -3.0551 H   0  0  0  0  0  0  0  0  0  0  0  0
   -1.5425   -1.0712   -3.4760 H   0  0  0  0  0  0  0  0  0  0  0  0
    0.9543    1.2063   -3.2480 H   0  0  0  0  0  0  0  0  0  0  0  0
    2.4318    0.2695   -3.4844 H   0  0  0  0  0  0  0  0  0  0  0  0
    1.2430   -1.6090   -4.3093 H   0  0  0  0  0  0  0  0  0  0  0  0
   -2.7201   -5.5596   -7.9119 H   0  0  0  0  0  0  0  0  0  0  0  0
   -1.4573   -5.2899   -9.1314 H   0  0  0  0  0  0  0  0  0  0  0  0
    1.5456   -1.2990   -6.8311 H   0  0  0  0  0  0  0  0  0  0  0  0
   -0.3648    1.7236   -5.1521 H   0  0  0  0  0  0  0  0  0  0  0  0
  1  2  1  0  0  0  0
  1  3  2  0  0  0  0
  1 29  1  0  0  0  0
  2  7  2  0  0  0  0
  2 30  1  0  0  0  0
  3 11  1  0  0  0  0
  3 31  1  0  0  0  0
  4 10  1  0  0  0  0
  4 11  2  0  0  0  0
  4 32  1  0  0  0  0
  5  8  2  0  0  0  0
  5 12  1  0  0  0  0
  5 33  1  0  0  0  0
  6  9  1  0  0  0  0
  6 12  2  0  0  0  0
  6 34  1  0  0  0  0
  7 13  1  0  0  0  0
  7 35  1  0  0  0  0
  8 14  1  0  0  0  0
  8 36  1  0  0  0  0
  9 14  2  0  0  0  0
  9 37  1  0  0  0  0
 10 15  2  0  0  0  0
 10 38  1  0  0  0  0
 11 13  1  0  0  0  0
 12 23  1  0  0  0  0
 13 24  2  0  0  0  0
 14 28  1  0  0  0  0
 15 22  1  0  0  0  0
 15 24  1  0  0  0  0
 16 23  1  0  0  0  0
 16 25  2  0  0  0  0
 16 26  1  0  0  0  0
 17 18  1  0  0  0  0
 17 19  1  0  0  0  0
 17 39  1  0  0  0  0
 17 40  1  0  0  0  0
 18 20  1  0  0  0  0
 18 41  1  0  0  0  0
 18 42  1  0  0  0  0
 19 21  1  0  0  0  0
 19 43  1  0  0  0  0
 19 44  1  0  0  0  0
 20 21  1  0  0  0  0
 20 45  1  0  0  0  0
 20 46  1  0  0  0  0
 21 23  1  0  0  0  0
 21 47  1  0  0  0  0
 22 28  1  0  0  0  0
 22 48  1  0  0  0  0
 22 49  1  0  0  0  0
 23 27  1  0  0  0  0
 26 50  1  0  0  0  0
 27 51  1  0  0  0  0
M  END
$$$$
