
  -OEChem-05262117483D

 32 32  0     0  0  0  0  0  0999 V2000
    1.2643   -1.0574   -5.5223 C   0  0  0  0  0  0  0  0  0  0  0  0
    0.0002   -0.6922   -5.9929 C   0  0  0  0  0  0  0  0  0  0  0  0
    1.5703   -0.9416   -4.1642 C   0  0  0  0  0  0  0  0  0  0  0  0
   -0.6681   -0.1117   -3.7516 C   0  0  0  0  0  0  0  0  0  0  0  0
   -0.9795   -0.2087   -5.1133 C   0  0  0  0  0  0  0  0  0  0  0  0
    0.5960   -0.4714   -3.2784 C   0  0  0  0  0  0  0  0  0  0  0  0
    0.7688    0.8002   -1.2201 C   0  0  0  0  0  0  0  0  0  0  0  0
   -2.3402    1.7696   -5.9074 C   0  0  0  0  0  0  0  0  0  0  0  0
   -0.1767   -2.4186   -0.8826 C   0  0  0  0  0  0  0  0  0  0  0  0
   -2.3254    0.2564   -5.6230 C   0  0  0  0  0  0  0  0  0  0  0  0
    1.0414    0.8381    0.2918 C   0  0  0  0  0  0  0  0  0  0  0  0
    1.1255   -1.6670   -1.1710 C   0  0  0  0  0  0  0  0  0  0  0  0
    0.8983   -0.3936   -1.8741 N   0  0  0  0  0  0  0  0  0  0  0  0
    0.4632    1.8548   -1.7842 O   0  0  0  0  0  0  0  0  0  0  0  0
    0.8181    2.1364    0.7851 O   0  0  0  0  0  0  0  0  0  0  0  0
    2.0175   -1.4239   -6.2149 H   0  0  0  0  0  0  0  0  0  0  0  0
   -0.2277   -0.7794   -7.0531 H   0  0  0  0  0  0  0  0  0  0  0  0
    2.5591   -1.2017   -3.7960 H   0  0  0  0  0  0  0  0  0  0  0  0
   -1.4081    0.2644   -3.0509 H   0  0  0  0  0  0  0  0  0  0  0  0
   -2.1037    2.3378   -5.0022 H   0  0  0  0  0  0  0  0  0  0  0  0
   -3.3234    2.0901   -6.2687 H   0  0  0  0  0  0  0  0  0  0  0  0
   -1.5945    2.0301   -6.6657 H   0  0  0  0  0  0  0  0  0  0  0  0
   -0.8340   -1.8312   -0.2337 H   0  0  0  0  0  0  0  0  0  0  0  0
   -0.7136   -2.6295   -1.8119 H   0  0  0  0  0  0  0  0  0  0  0  0
    0.0362   -3.3706   -0.3851 H   0  0  0  0  0  0  0  0  0  0  0  0
   -2.5827   -0.2899   -6.5372 H   0  0  0  0  0  0  0  0  0  0  0  0
   -3.1008    0.0199   -4.8855 H   0  0  0  0  0  0  0  0  0  0  0  0
    0.3867    0.1247    0.8099 H   0  0  0  0  0  0  0  0  0  0  0  0
    2.0815    0.5340    0.4799 H   0  0  0  0  0  0  0  0  0  0  0  0
    1.7784   -2.2804   -1.7971 H   0  0  0  0  0  0  0  0  0  0  0  0
    1.6750   -1.4747   -0.2486 H   0  0  0  0  0  0  0  0  0  0  0  0
    0.5994    2.6740   -0.0052 H   0  0  0  0  0  0  0  0  0  0  0  0
  1  2  1  0  0  0  0
  1  3  2  0  0  0  0
  1 16  1  0  0  0  0
  2  5  2  0  0  0  0
  2 17  1  0  0  0  0
  3  6  1  0  0  0  0
  3 18  1  0  0  0  0
  4  5  1  0  0  0  0
  4  6  2  0  0  0  0
  4 19  1  0  0  0  0
  5 10  1  0  0  0  0
  6 13  1  0  0  0  0
  7 11  1  0  0  0  0
  7 13  1  0  0  0  0
  7 14  2  0  0  0  0
  8 10  1  0  0  0  0
  8 20  1  0  0  0  0
  8 21  1  0  0  0  0
  8 22  1  0  0  0  0
  9 12  1  0  0  0  0
  9 23  1  0  0  0  0
  9 24  1  0  0  0  0
  9 25  1  0  0  0  0
 10 26  1  0  0  0  0
 10 27  1  0  0  0  0
 11 15  1  0  0  0  0
 11 28  1  0  0  0  0
 11 29  1  0  0  0  0
 12 13  1  0  0  0  0
 12 30  1  0  0  0  0
 12 31  1  0  0  0  0
 15 32  1  0  0  0  0
M  END
$$$$
