50
0 1 C22H25NO2
C                    -5.757768172551     1.478342994979     8.412228754126
C                    -8.631860717938    -0.312972129682     2.580282568099
C                    -6.564724884139     0.428288935151     8.801318628100
C                    -9.002848921231     0.862530214321     3.234290539598
C                    -7.314893795338    -0.777634960010     2.667972222048
C                    -6.169911508831     2.364626942392     7.397611956396
C                    -9.928590808604    -0.908786123483     7.920387879685
C                    -6.729733821571     1.155569635505     3.989750037548
C                   -10.275124669346     0.048247091878     6.935354897962
C                    -7.830640112686     0.242632545438     8.188187262454
C                    -8.049180420954     1.609465540549     3.938696782422
C                    -6.361434034304    -0.053690817221     3.389415997225
C                    -8.713900405018    -0.818971823033     8.567925003459
C                    -8.273115595633     1.151539342492     7.166467393109
C                    -7.398378527795     2.217523112766     6.771705152195
C                    -8.339529970874    -1.789373996817     9.658451695257
C                    -6.779772088347    -3.902107983089     7.146185290066
C                    -8.466016114438     2.874480744496     4.650212738034
C                    -5.716386340049    -2.847745992132     6.819376414600
C                    -5.915198964237    -2.232354632330     5.430646151179
C                    -4.877280197292    -1.158581288847     5.089269000644
C                    -4.985496217193    -0.622238611278     3.648562962175
N                    -9.495723416351     1.044093497687     6.570269296029
O                    -4.019068010800     0.415756584732     3.417955582550
O                    -7.691421346296     3.167177814484     5.834109838180
H                    -4.787344662343     1.623219210803     8.879817653965
H                    -9.373018857803    -0.883018273135     2.025574843060
H                    -6.234341040899    -0.250189428844     9.580299015877
H                   -10.038842239853     1.193321143006     3.214768276820
H                    -7.036496675823    -1.715077712235     2.191394464103
H                    -5.528606298687     3.179563254725     7.075255202264
H                   -10.632906953716    -1.698956820646     8.167801414218
H                    -5.978136036651     1.725320492783     4.524611003051
H                   -11.242353161018    -0.019491596959     6.437082980505
H                    -7.391194894242    -2.290382257880     9.444800127149
H                    -8.225912226426    -1.272516402035    10.618261302356
H                    -9.107183939594    -2.557797283365     9.776004221524
H                    -6.756761177182    -4.721851087198     6.418630587044
H                    -6.627038670467    -4.337434329546     8.139994231319
H                    -7.784372085366    -3.465345656061     7.120227211094
H                    -8.281760933060     3.749676614268     4.018904246328
H                    -9.525552675332     2.830750709288     4.902455295079
H                    -5.740778620697    -2.047452002635     7.569014206508
H                    -4.717797314592    -3.300509971247     6.883191661886
H                    -6.918051686899    -1.795020936792     5.372561871917
H                    -5.884210251528    -3.029833351440     4.674570495161
H                    -3.866403639961    -1.571755509958     5.229088737716
H                    -4.978217993214    -0.312473142031     5.779347505901
H                    -4.807602433818    -1.453089975848     2.948912546071
H                    -3.164823690285     0.101059289718     3.754284705294
