
  -OEChem-05262117483D

 50 53  0     1  0  0  0  0  0999 V2000
    4.4141    8.7611  -10.9699 C   0  0  0  0  0  0  0  0  0  0  0  0
    5.0778    7.6031  -11.4551 C   0  0  0  0  0  0  0  0  0  0  0  0
    3.5138    8.6588   -9.9294 C   0  0  0  0  0  0  0  0  0  0  0  0
    2.3282    7.2223   -8.2597 C   0  0  0  0  0  0  0  0  0  0  0  0
    1.6362   -0.1179   -5.7493 C   0  0  0  0  0  0  0  0  0  0  0  0
    0.2503    1.1772   -4.2749 C   0  0  0  0  0  0  0  0  0  0  0  0
    4.8319    6.3665  -10.8944 C   0  0  0  0  0  0  0  0  0  0  0  0
    1.9943    1.0419   -6.4541 C   0  0  0  0  0  0  0  0  0  0  0  0
    0.5942    2.3369   -4.9652 C   0  0  0  0  0  0  0  0  0  0  0  0
    2.1232    5.9658   -7.7390 C   0  0  0  0  0  0  0  0  0  0  0  0
    3.2411    7.3983   -9.3327 C   0  0  0  0  0  0  0  0  0  0  0  0
    0.7708   -0.0753   -4.6537 C   0  0  0  0  0  0  0  0  0  0  0  0
    3.9093    6.2305   -9.8208 C   0  0  0  0  0  0  0  0  0  0  0  0
    1.4721    2.2742   -6.0549 C   0  0  0  0  0  0  0  0  0  0  0  0
    2.8380    4.8674   -8.2958 C   0  0  0  0  0  0  0  0  0  0  0  0
   -1.1337   -1.5483   -3.7610 C   0  0  0  0  0  0  0  0  0  0  0  0
    2.9289   -1.4928   -0.9375 C   0  0  0  0  0  0  0  0  0  0  0  0
    1.7443   -2.3541   -0.3974 C   0  0  0  0  0  0  0  0  0  0  0  0
    2.5637   -1.1493   -2.3998 C   0  0  0  0  0  0  0  0  0  0  0  0
    0.7426   -2.4731   -1.5683 C   0  0  0  0  0  0  0  0  0  0  0  0
    1.0296   -1.2475   -2.4494 C   0  0  0  0  0  0  0  0  0  0  0  0
    2.6495    3.4621   -7.7689 C   0  0  0  0  0  0  0  0  0  0  0  0
    0.4385   -1.3417   -3.8743 C   0  0  2  0  0  0  0  0  0  0  0  0
    3.6958    4.9899   -9.2941 N   0  0  0  0  0  0  0  0  0  0  0  0
   -1.7776   -0.6925   -3.1111 O   0  5  0  0  0  0  0  0  0  0  0  0
   -1.5403   -2.6023   -4.3365 O   0  0  0  0  0  0  0  0  0  0  0  0
    0.9763   -2.4812   -4.5416 O   0  0  0  0  0  0  0  0  0  0  0  0
    1.7576    3.4863   -6.6737 O   0  0  0  0  0  0  0  0  0  0  0  0
    4.6189    9.7280  -11.4227 H   0  0  0  0  0  0  0  0  0  0  0  0
    5.7851    7.6960  -12.2757 H   0  0  0  0  0  0  0  0  0  0  0  0
    3.0018    9.5422   -9.5529 H   0  0  0  0  0  0  0  0  0  0  0  0
    1.7985    8.0844   -7.8587 H   0  0  0  0  0  0  0  0  0  0  0  0
    2.0317   -1.0822   -6.0500 H   0  0  0  0  0  0  0  0  0  0  0  0
   -0.4599    1.2137   -3.4552 H   0  0  0  0  0  0  0  0  0  0  0  0
    5.3291    5.4689  -11.2510 H   0  0  0  0  0  0  0  0  0  0  0  0
    2.6717    0.9610   -7.2983 H   0  0  0  0  0  0  0  0  0  0  0  0
    0.1830    3.3022   -4.6787 H   0  0  0  0  0  0  0  0  0  0  0  0
    1.4377    5.7830   -6.9205 H   0  0  0  0  0  0  0  0  0  0  0  0
    3.0303   -0.5758   -0.3447 H   0  0  0  0  0  0  0  0  0  0  0  0
    3.8884   -2.0186   -0.8682 H   0  0  0  0  0  0  0  0  0  0  0  0
    2.0778   -3.3362   -0.0422 H   0  0  0  0  0  0  0  0  0  0  0  0
    1.2743   -1.8542    0.4578 H   0  0  0  0  0  0  0  0  0  0  0  0
    2.9370   -0.1689   -2.7125 H   0  0  0  0  0  0  0  0  0  0  0  0
    2.9781   -1.8961   -3.0863 H   0  0  0  0  0  0  0  0  0  0  0  0
    0.9418   -3.3742   -2.1575 H   0  0  0  0  0  0  0  0  0  0  0  0
   -0.3000   -2.5096   -1.2421 H   0  0  0  0  0  0  0  0  0  0  0  0
    0.5898   -0.3642   -1.9722 H   0  0  0  0  0  0  0  0  0  0  0  0
    2.2644    2.8286   -8.5807 H   0  0  0  0  0  0  0  0  0  0  0  0
    3.6293    3.0596   -7.4763 H   0  0  0  0  0  0  0  0  0  0  0  0
    0.1334   -2.9719   -4.7403 H   0  0  0  0  0  0  0  0  0  0  0  0
  1  2  1  0  0  0  0
  1  3  2  0  0  0  0
  1 29  1  0  0  0  0
  2  7  2  0  0  0  0
  2 30  1  0  0  0  0
  3 11  1  0  0  0  0
  3 31  1  0  0  0  0
  4 10  1  0  0  0  0
  4 11  2  0  0  0  0
  4 32  1  0  0  0  0
  5  8  2  0  0  0  0
  5 12  1  0  0  0  0
  5 33  1  0  0  0  0
  6  9  1  0  0  0  0
  6 12  2  0  0  0  0
  6 34  1  0  0  0  0
  7 13  1  0  0  0  0
  7 35  1  0  0  0  0
  8 14  1  0  0  0  0
  8 36  1  0  0  0  0
  9 14  2  0  0  0  0
  9 37  1  0  0  0  0
 10 15  2  0  0  0  0
 10 38  1  0  0  0  0
 11 13  1  0  0  0  0
 12 23  1  0  0  0  0
 13 24  2  0  0  0  0
 14 28  1  0  0  0  0
 15 22  1  0  0  0  0
 15 24  1  0  0  0  0
 16 23  1  0  0  0  0
 16 25  1  0  0  0  0
 16 26  2  0  0  0  0
 17 18  1  0  0  0  0
 17 19  1  0  0  0  0
 17 39  1  0  0  0  0
 17 40  1  0  0  0  0
 18 20  1  0  0  0  0
 18 41  1  0  0  0  0
 18 42  1  0  0  0  0
 19 21  1  0  0  0  0
 19 43  1  0  0  0  0
 19 44  1  0  0  0  0
 20 21  1  0  0  0  0
 20 45  1  0  0  0  0
 20 46  1  0  0  0  0
 21 23  1  0  0  0  0
 21 47  1  0  0  0  0
 22 28  1  0  0  0  0
 22 48  1  0  0  0  0
 22 49  1  0  0  0  0
 23 27  1  0  0  0  0
 27 50  1  0  0  0  0
M  CHG  1  25  -1
M  END
$$$$
