
  -OEChem-05262117483D

 42 44  0     1  0  0  0  0  0999 V2000
    2.0895   -4.0334   -0.3062 C   0  0  0  0  0  0  0  0  0  0  0  0
    1.8417   -2.8464   -0.2266 C   0  0  0  0  0  0  0  0  0  0  0  0
    2.8281   -8.1957   -0.6378 C   0  0  0  0  0  0  0  0  0  0  0  0
   -1.5332   -4.7008   -2.7052 C   0  0  0  0  0  0  0  0  0  0  0  0
    3.7466   -7.3718    0.0235 C   0  0  0  0  0  0  0  0  0  0  0  0
    1.6671   -7.6414   -1.1890 C   0  0  0  0  0  0  0  0  0  0  0  0
   -0.8358   -3.5913   -3.1951 C   0  0  0  0  0  0  0  0  0  0  0  0
   -2.0269   -4.6770   -1.3974 C   0  0  0  0  0  0  0  0  0  0  0  0
    3.5078   -6.0018    0.1336 C   0  0  0  0  0  0  0  0  0  0  0  0
    1.4197   -6.2726   -1.0821 C   0  0  0  0  0  0  0  0  0  0  0  0
   -0.6427   -2.4658   -2.3914 C   0  0  0  0  0  0  0  0  0  0  0  0
   -1.8304   -3.5476   -0.5981 C   0  0  0  0  0  0  0  0  0  0  0  0
    2.3403   -5.4378   -0.4184 C   0  0  0  0  0  0  0  0  0  0  0  0
   -1.1409   -2.4252   -1.0802 C   0  0  0  0  0  0  0  0  0  0  0  0
   -0.5056    1.1343    0.0894 C   0  0  0  0  0  0  0  0  0  0  0  0
   -1.2099    0.1649   -0.8485 C   0  0  0  0  0  0  0  0  0  0  0  0
   -1.0033   -1.2095   -0.1891 C   0  0  2  0  0  0  0  0  0  0  0  0
    0.3216   -1.0288    0.6190 C   0  0  1  0  0  0  0  0  0  0  0  0
    1.1934    1.0139    1.8787 C   0  0  0  0  0  0  0  0  0  0  0  0
    1.6501   -1.3995   -0.0763 C   0  0  2  0  0  0  0  0  0  0  0  0
    0.2807    0.3919    0.9407 N   0  0  0  0  0  0  0  0  0  0  0  0
   -0.6073    2.3558    0.1061 O   0  0  0  0  0  0  0  0  0  0  0  0
    1.7217   -0.6811   -1.3159 O   0  0  0  0  0  0  0  0  0  0  0  0
    3.0167   -9.2628   -0.7225 H   0  0  0  0  0  0  0  0  0  0  0  0
   -1.6916   -5.5717   -3.3365 H   0  0  0  0  0  0  0  0  0  0  0  0
    4.6491   -7.7990    0.4527 H   0  0  0  0  0  0  0  0  0  0  0  0
    0.9522   -8.2789   -1.7030 H   0  0  0  0  0  0  0  0  0  0  0  0
   -0.4427   -3.6022   -4.2087 H   0  0  0  0  0  0  0  0  0  0  0  0
   -2.5697   -5.5319   -1.0019 H   0  0  0  0  0  0  0  0  0  0  0  0
    4.2177   -5.3582    0.6452 H   0  0  0  0  0  0  0  0  0  0  0  0
    0.5221   -5.8345   -1.5042 H   0  0  0  0  0  0  0  0  0  0  0  0
   -0.0910   -1.6184   -2.7818 H   0  0  0  0  0  0  0  0  0  0  0  0
   -2.2274   -3.5347    0.4151 H   0  0  0  0  0  0  0  0  0  0  0  0
   -2.2616    0.4340   -0.9645 H   0  0  0  0  0  0  0  0  0  0  0  0
   -0.7283    0.2398   -1.8256 H   0  0  0  0  0  0  0  0  0  0  0  0
   -1.7715   -1.3005    0.5861 H   0  0  0  0  0  0  0  0  0  0  0  0
    0.2855   -1.6241    1.5391 H   0  0  0  0  0  0  0  0  0  0  0  0
    1.2154    0.4473    2.8158 H   0  0  0  0  0  0  0  0  0  0  0  0
    0.8366    2.0265    2.0736 H   0  0  0  0  0  0  0  0  0  0  0  0
    2.2136    1.0811    1.4790 H   0  0  0  0  0  0  0  0  0  0  0  0
    2.4544   -1.0470    0.5867 H   0  0  0  0  0  0  0  0  0  0  0  0
    2.5093   -0.9905   -1.7908 H   0  0  0  0  0  0  0  0  0  0  0  0
  1  2  3  0  0  0  0
  1 13  1  0  0  0  0
  2 20  1  0  0  0  0
  3  5  1  0  0  0  0
  3  6  2  0  0  0  0
  3 24  1  0  0  0  0
  4  7  1  0  0  0  0
  4  8  2  0  0  0  0
  4 25  1  0  0  0  0
  5  9  2  0  0  0  0
  5 26  1  0  0  0  0
  6 10  1  0  0  0  0
  6 27  1  0  0  0  0
  7 11  2  0  0  0  0
  7 28  1  0  0  0  0
  8 12  1  0  0  0  0
  8 29  1  0  0  0  0
  9 13  1  0  0  0  0
  9 30  1  0  0  0  0
 10 13  2  0  0  0  0
 10 31  1  0  0  0  0
 11 14  1  0  0  0  0
 11 32  1  0  0  0  0
 12 14  2  0  0  0  0
 12 33  1  0  0  0  0
 14 17  1  0  0  0  0
 15 16  1  0  0  0  0
 15 21  1  0  0  0  0
 15 22  2  0  0  0  0
 16 17  1  0  0  0  0
 16 34  1  0  0  0  0
 16 35  1  0  0  0  0
 17 18  1  0  0  0  0
 17 36  1  0  0  0  0
 18 20  1  0  0  0  0
 18 21  1  0  0  0  0
 18 37  1  0  0  0  0
 19 21  1  0  0  0  0
 19 38  1  0  0  0  0
 19 39  1  0  0  0  0
 19 40  1  0  0  0  0
 20 23  1  0  0  0  0
 20 41  1  0  0  0  0
 23 42  1  0  0  0  0
M  END
$$$$
