50
-1 1 C23H22NO4
C                     2.032291864023    10.103749412563   -10.167128120402
C                     1.135602292359    10.255166676761    -9.076167392164
C                     2.600428191048     8.874644454596   -10.432091795960
C                     2.843866308245     6.457736650618    -9.835101647598
C                     1.984203911607    -0.112905895265    -6.261549475659
C                     0.440979461930     1.016711577470    -4.808628540180
C                     0.822412078165     9.179674602740    -8.270469127485
C                     2.213083162507     1.075896074362    -6.955411534471
C                     0.658727671291     2.218249038063    -5.495384108893
C                     2.495457202222     5.421676200575    -9.000304367322
C                     2.295940862303     7.749549621352    -9.619201753691
C                     1.098028546066    -0.165885265477    -5.174829002076
C                     1.392558479532     7.900842423070    -8.519411650775
C                     1.551429162408     2.246607718868    -6.572141360956
C                     1.587261344166     5.675812439436    -7.933434992527
C                    -0.653949539752    -1.841117685324    -4.334562341945
C                     3.308978304189    -1.377682218035    -1.410938513301
C                     2.211598587593    -2.366337269596    -0.905801177716
C                     2.947016742255    -1.066830580813    -2.880982988305
C                     1.251890545476    -2.575608107667    -2.099311173485
C                     1.432856292519    -1.321285887073    -2.968352378915
C                     1.160870043784     4.573908591069    -6.988795969998
C                     0.889094275284    -1.466113270424    -4.407270698013
N                     1.056763995109     6.863712310088    -7.698822302346
O                    -1.400512812066    -1.068632101126    -3.690306524344
O                    -0.931351144639    -2.924483371187    -4.932070486003
O                     1.561534827850    -2.536125740887    -5.068116030665
O                     1.842976356776     3.381864130418    -7.320707235631
H                     2.268312170877    10.961236509858   -10.792342871938
H                     0.693932354712    11.228706982531    -8.877621706127
H                     3.287964169144     8.751822027117   -11.266672409920
H                     3.535081845991     6.299126783314   -10.660710056659
H                     2.487268073759    -1.028007642922    -6.554809018687
H                    -0.281787785450     0.975762765387    -4.000014117479
H                     0.138778221070     9.274409171728    -7.431590440968
H                     2.899821781673     1.112786541748    -7.798113478708
H                     0.119300456803     3.107604695139    -5.185368703958
H                     2.887621643416     4.419757025890    -9.126102088376
H                     3.293048800123    -0.458523475083    -0.813014832839
H                     4.318259640943    -1.795473965402    -1.316850958706
H                     2.640483265156    -3.312440303212    -0.555380436277
H                     1.674761256335    -1.931096506969    -0.054651406153
H                     3.225273105923    -0.051844359180    -3.182183380432
H                     3.452260024409    -1.764342628852    -3.558473558369
H                     1.552510943505    -3.448290147558    -2.688375908847
H                     0.211397929371    -2.718431036537    -1.796261201171
H                     0.893448652297    -0.490685765259    -2.498868876492
H                     1.380315144539     4.886221619952    -5.958319953518
H                     0.072313865041     4.442614861964    -7.066332956986
H                     0.780257493473    -3.110304112759    -5.293654363579
