51
0 1 C23H23NO4
C                    -7.831661652248    -6.393904099237   -11.827223230343
C                    -7.783662045968    -5.010497527892   -12.146358311281
C                    -6.986261592167    -6.915628896666   -10.870901022773
C                    -5.162310357347    -6.546361482409    -9.202289604684
C                    -0.563125929024    -1.025279131139    -6.181834262978
C                    -0.025555724372    -3.021945525898    -4.950179152407
C                    -6.894492770397    -4.172061191190   -11.506999414919
C                    -1.510534940246    -1.730148255853    -6.933365736702
C                    -0.962479930556    -3.733501439681    -5.689979026667
C                    -4.294322420945    -5.667177944849    -8.594384895888
C                    -6.059385461068    -6.076000175538   -10.195431994323
C                     0.184437879809    -1.650412558722    -5.180298334304
C                    -6.010789345069    -4.681709243903   -10.516954405330
C                    -1.715989775616    -3.092153763067    -6.684774798750
C                    -4.326503899087    -4.301765652962    -8.986296734341
C                     2.467209590422    -1.679671174166    -4.141854935780
C                    -0.701546929018    -0.646383559789    -0.972557581356
C                    -1.369109690100     0.500549348002    -1.768458468653
C                     0.033183718612    -1.473255358273    -2.036916264291
C                    -0.552515835990     0.633372822588    -3.086036236382
C                     0.606349700395    -0.390298049047    -2.967821190831
C                    -3.401368078373    -3.272076702915    -8.374709063286
C                     1.171780137962    -0.844109248695    -4.338652659530
N                    -5.145226315609    -3.822441698132    -9.904849331257
O                     2.576582677461    -2.581412821828    -3.339105537566
O                     3.478203789138    -1.331636794401    -4.962141033917
O                     1.531756274629     0.331026973471    -5.110569595189
O                    -2.613518569419    -3.878848845477    -7.355229867837
H                    -8.538823490145    -7.039167168617   -12.341581616410
H                    -8.455962514742    -4.613222944086   -12.902427400210
H                    -7.018630314372    -7.974259707263   -10.622658738518
H                    -5.167837354016    -7.599531909165    -8.929330982241
H                    -0.398814103190     0.025929461068    -6.388822876159
H                     0.553911482674    -3.538968636728    -4.193246382769
H                    -6.843217578350    -3.111959484910   -11.737635079065
H                    -2.068100709066    -1.207020905978    -7.701708731192
H                    -1.122741280558    -4.793100877412    -5.513579401605
H                    -3.594737919154    -5.987705603244    -7.831791813967
H                     0.022888062676    -0.240893346325    -0.256181683408
H                    -1.421626321300    -1.240340310918    -0.401856427643
H                    -2.410265926178     0.253603119279    -1.997203615463
H                    -1.383596778801     1.434375782545    -1.198963235718
H                     0.802396505807    -2.133099101344    -1.635070092102
H                    -0.685904551214    -2.087526127123    -2.588770940982
H                    -1.176856111603     0.384106321134    -3.947875715690
H                    -0.192343395746     1.655676623110    -3.240911853571
H                     1.443174867120     0.083545291497    -2.430891708653
H                    -2.758020921543    -2.857199959963    -9.161281000868
H                    -4.002767685803    -2.452585603576    -7.962011371545
H                     3.154657121839    -0.567412872985    -5.487656973302
H                     1.685246331253     1.062167217228    -4.490840971966
