51
0 1 C23H23NO4
C                    -7.968437487920    -8.549734023540   -11.757293155175
C                    -7.363708514443    -9.475198854893   -10.865230063444
C                    -7.580480984529    -7.226489244145   -11.752992944742
C                    -6.126609879617    -5.430201933370   -10.800598692604
C                    -1.065538562903    -1.957719936323    -6.419632261294
C                    -0.540862845801    -4.131026869361    -5.524951340486
C                    -6.383688433729    -9.065871715061    -9.985186443580
C                    -2.037352618527    -2.526866986529    -7.237895944676
C                    -1.514484972952    -4.714497354923    -6.340901201806
C                    -5.144440064110    -5.073981563163    -9.903872702964
C                    -6.572901185345    -6.775528356998   -10.857640175255
C                    -0.305675765508    -2.752439382580    -5.549252682031
C                    -5.963299521654    -7.708162745790    -9.958587171165
C                    -2.269807768552    -3.908772213334    -7.203629995168
C                    -4.604151915343    -6.077199603312    -9.054681098752
C                     2.071148420543    -2.872936293181    -4.786185864795
C                    -0.990538213333    -0.925992294029    -1.442268227805
C                     0.330879105483    -1.468656686602    -0.860115409372
C                    -1.105126071903    -1.546681257472    -2.862384425515
C                     1.229448341059    -1.628031040347    -2.094468577578
C                     0.264627023600    -2.223503529636    -3.140977504643
C                    -3.512229973744    -5.772054343249    -8.052268556277
C                     0.722609092187    -2.124723289745    -4.608997003674
N                    -4.991567700169    -7.339400976234    -9.074238022637
O                     2.313538301187    -3.942969517974    -4.271178305293
O                     2.955947009859    -2.242595068623    -5.584157327265
O                     0.908592084784    -0.753682732547    -5.018712474911
O                    -3.245698150315    -4.373039356694    -8.045089267270
H                    -8.738900662655    -8.890784624110   -12.443654989584
H                    -7.679345839855   -10.515192753228   -10.879876561488
H                    -8.040066206059    -6.513399033957   -12.433946344636
H                    -6.564954711093    -4.690568300130   -11.467356903239
H                    -0.893509602928    -0.888206686349    -6.453068238682
H                     0.049373789537    -4.768413670429    -4.873803296638
H                    -5.909809765314    -9.758798701866    -9.296045243458
H                    -2.627903833841    -1.914383254411    -7.913203410032
H                    -1.665243189268    -5.786800781701    -6.295034306687
H                    -4.777478274960    -4.057345885580    -9.829777066505
H                    -1.851506174818    -1.162060771885    -0.810470178386
H                    -0.939017954028     0.166532692627    -1.512414344860
H                     0.762527379279    -0.817267840664    -0.094107308781
H                     0.170303307799    -2.452149487470    -0.402557767367
H                    -1.912778868485    -2.279270610685    -2.928502080511
H                    -1.322738552601    -0.778590632885    -3.609632553684
H                     1.597191068769    -0.632610505774    -2.392292538637
H                     2.105905134288    -2.259498253465    -1.929349936418
H                     0.187438796145    -3.291965696084    -2.926503129473
H                    -3.833856839040    -6.110480108435    -7.059657582269
H                    -2.609211723104    -6.333223972919    -8.325337819092
H                     2.535653074511    -1.395424873729    -5.846471592450
H                     1.168608345013    -0.242115830350    -4.235184782695
