23
0 1 C11H9NO2
C                     1.835905205131    -1.609457671684    -0.213584045097
C                     1.151403539745    -0.450411426573     0.169840949795
C                     3.562684385479     1.317252154408     6.436588178646
C                     4.853516219329     0.811816955554     6.210208506884
C                     2.571480604801    -2.332527253880     0.724676280627
C                     1.199703612845    -0.039677305081     1.502810439958
C                     2.521050667512     0.928335204963     5.605368972413
C                     5.029938694263    -0.078748305374     5.158862709610
C                     2.631793947811    -1.930356309762     2.067875676457
C                     1.926461729537    -0.770688868815     2.443852528567
C                     2.812652515302     0.031780652863     4.562142087077
N                     4.026942426991    -0.469112173482     4.347849203815
O                     3.342866008411    -2.693444362879     2.942600271588
O                     1.771355433417    -0.346101231913     3.777282545782
H                     1.803553141424    -1.947660071169    -1.245907059379
H                     0.581656307331     0.123389477903    -0.555207072531
H                     3.377594252423     2.013606500295     7.250178317073
H                     5.693163969670     1.096580230375     6.835769297982
H                     3.117346805253    -3.229193250700     0.445811056243
H                     0.659991489348     0.839988170040     1.841986705432
H                     1.507366015438     1.294235861510     5.727866156995
H                     6.004102582458    -0.513543146240     4.946655218483
H                     3.759717550753    -2.064134128989     3.583623287401
