
  -OEChem-05262117483D

 17 17  0     0  0  0  0  0  0999 V2000
    1.8225   -1.0453    0.6711 C   0  0  0  0  0  0  0  0  0  0  0  0
    2.9535   -1.4834    1.3634 C   0  0  0  0  0  0  0  0  0  0  0  0
    0.7170   -0.5426    1.3614 C   0  0  0  0  0  0  0  0  0  0  0  0
    1.8744   -0.9230    3.5006 C   0  0  0  0  0  0  0  0  0  0  0  0
    2.9554   -1.4220    2.7531 C   0  0  0  0  0  0  0  0  0  0  0  0
    0.7751   -0.4874    2.7483 C   0  0  0  0  0  0  0  0  0  0  0  0
    1.9137   -0.8928    5.0096 C   0  0  0  0  0  0  0  0  0  0  0  0
    1.2972    0.2943    5.7234 C   0  0  0  0  0  0  0  0  0  0  0  0
    2.4456   -1.8016    5.6258 O   0  0  0  0  0  0  0  0  0  0  0  0
    4.0677   -1.8238    3.3949 F   0  0  0  0  0  0  0  0  0  0  0  0
   -0.3131   -0.0090    3.4041 F   0  0  0  0  0  0  0  0  0  0  0  0
    1.8025   -1.0944   -0.4136 H   0  0  0  0  0  0  0  0  0  0  0  0
    3.8286   -1.8674    0.8495 H   0  0  0  0  0  0  0  0  0  0  0  0
   -0.1775   -0.2030    0.8498 H   0  0  0  0  0  0  0  0  0  0  0  0
    0.2185    0.1392    5.8250 H   0  0  0  0  0  0  0  0  0  0  0  0
    1.4429    1.2266    5.1710 H   0  0  0  0  0  0  0  0  0  0  0  0
    1.7374    0.3656    6.7196 H   0  0  0  0  0  0  0  0  0  0  0  0
  1  2  1  0  0  0  0
  1  3  2  0  0  0  0
  1 12  1  0  0  0  0
  2  5  2  0  0  0  0
  2 13  1  0  0  0  0
  3  6  1  0  0  0  0
  3 14  1  0  0  0  0
  4  5  1  0  0  0  0
  4  6  2  0  0  0  0
  4  7  1  0  0  0  0
  5 10  1  0  0  0  0
  6 11  1  0  0  0  0
  7  8  1  0  0  0  0
  7  9  2  0  0  0  0
  8 15  1  0  0  0  0
  8 16  1  0  0  0  0
  8 17  1  0  0  0  0
M  END
$$$$
