
  -OEChem-05262117483D

 15 15  0     0  0  0  0  0  0999 V2000
    1.4019   -0.0597    1.6498 C   0  0  0  0  0  0  0  0  0  0  0  0
    0.2304   -0.4064    0.9548 C   0  0  0  0  0  0  0  0  0  0  0  0
    1.6464   -0.6235    2.8935 C   0  0  0  0  0  0  0  0  0  0  0  0
   -0.6388   -1.3104    1.5558 C   0  0  0  0  0  0  0  0  0  0  0  0
    0.6928   -1.5285    3.4030 C   0  0  0  0  0  0  0  0  0  0  0  0
   -0.0129   -2.9884    5.1435 C   0  0  0  0  0  0  0  0  0  0  0  0
   -0.4207   -1.8691    2.7615 N   0  0  0  0  0  0  0  0  0  0  0  0
    0.9552   -2.0658    4.6209 O   0  0  0  0  0  0  0  0  0  0  0  0
    2.1122    0.6427    1.2212 H   0  0  0  0  0  0  0  0  0  0  0  0
    0.0029    0.0127   -0.0203 H   0  0  0  0  0  0  0  0  0  0  0  0
    2.5332   -0.3933    3.4751 H   0  0  0  0  0  0  0  0  0  0  0  0
   -1.5592   -1.6101    1.0569 H   0  0  0  0  0  0  0  0  0  0  0  0
    0.3822   -3.2980    6.1120 H   0  0  0  0  0  0  0  0  0  0  0  0
   -0.1260   -3.8519    4.4823 H   0  0  0  0  0  0  0  0  0  0  0  0
   -0.9868   -2.5059    5.2639 H   0  0  0  0  0  0  0  0  0  0  0  0
  1  2  1  0  0  0  0
  1  3  2  0  0  0  0
  1  9  1  0  0  0  0
  2  4  2  0  0  0  0
  2 10  1  0  0  0  0
  3  5  1  0  0  0  0
  3 11  1  0  0  0  0
  4  7  1  0  0  0  0
  4 12  1  0  0  0  0
  5  7  2  0  0  0  0
  5  8  1  0  0  0  0
  6  8  1  0  0  0  0
  6 13  1  0  0  0  0
  6 14  1  0  0  0  0
  6 15  1  0  0  0  0
M  END
$$$$
