22
0 1 C7H10N2O2S
C                    -0.986471163671     3.956509575264     2.976662921796
C                    -1.939727524861     3.698146020131     1.988805149788
C                    -0.145953768795     2.919790664726     3.391634429802
C                    -2.014408478942     2.410354902035     1.446638707679
C                    -0.328054346949     1.675049059944     2.789359087007
C                     0.536289267713    -1.194650118653     1.042876453604
C                     2.261761068136     0.581906168934     1.150563677302
N                    -1.220788493592     1.405489623189     1.839335765736
N                     1.383339736263    -0.335532711041     1.882692942681
O                     1.812979475621     0.858690663234     4.074959490828
O                    -0.141876204381    -0.770407986844     3.853346107620
S                     0.719692145691     0.269920303862     3.296274479187
H                    -0.896323089987     4.946306167903     3.416067409470
H                    -2.612111074457     4.475399755587     1.637862290362
H                     0.621205588569     3.053238541962     4.146475615932
H                    -2.738106829500     2.175631587357     0.668451762921
H                    -0.111861638124    -1.795175551790     1.679249525765
H                     1.196049003901    -1.862704458905     0.480372059089
H                    -0.077496018088    -0.609345483712     0.348256491316
H                     2.900793668539     1.117738608545     1.852561936271
H                     1.694583483215     1.299682719582     0.539649410707
H                     2.897896216931    -0.014131333446     0.490241716786
