
  -OEChem-05262117483D

 21 21  0     0  0  0  0  0  0999 V2000
    1.8489   -1.0091   -0.1988 C   0  0  0  0  0  0  0  0  0  0  0  0
    2.9433   -1.5824    0.4564 C   0  0  0  0  0  0  0  0  0  0  0  0
    0.7497   -0.5625    0.5439 C   0  0  0  0  0  0  0  0  0  0  0  0
    2.9346   -1.7094    1.8484 C   0  0  0  0  0  0  0  0  0  0  0  0
    0.7420   -0.6876    1.9346 C   0  0  0  0  0  0  0  0  0  0  0  0
    1.8369   -1.2627    2.5985 C   0  0  0  0  0  0  0  0  0  0  0  0
    1.1970   -4.2089    3.7022 C   0  0  0  0  0  0  0  0  0  0  0  0
    1.8230   -1.4326    4.0901 C   0  0  0  0  0  0  0  0  0  0  0  0
    0.9843   -3.0154    6.0750 O   0  0  0  0  0  0  0  0  0  0  0  0
   -0.6780   -2.4014    4.2317 O   0  0  0  0  0  0  0  0  0  0  0  0
    0.6867   -2.7604    4.6551 S   0  0  0  0  0  0  0  0  0  0  0  0
    1.8531   -0.9086   -1.2810 H   0  0  0  0  0  0  0  0  0  0  0  0
    3.8021   -1.9275   -0.1133 H   0  0  0  0  0  0  0  0  0  0  0  0
   -0.1035   -0.1177    0.0387 H   0  0  0  0  0  0  0  0  0  0  0  0
    3.7890   -2.1537    2.3548 H   0  0  0  0  0  0  0  0  0  0  0  0
   -0.1206   -0.3617    2.5083 H   0  0  0  0  0  0  0  0  0  0  0  0
    0.5498   -5.0210    4.0389 H   0  0  0  0  0  0  0  0  0  0  0  0
    1.0490   -4.0123    2.6405 H   0  0  0  0  0  0  0  0  0  0  0  0
    2.2398   -4.4370    3.9286 H   0  0  0  0  0  0  0  0  0  0  0  0
    1.4352   -0.5552    4.6163 H   0  0  0  0  0  0  0  0  0  0  0  0
    2.8038   -1.6829    4.5002 H   0  0  0  0  0  0  0  0  0  0  0  0
  1  2  1  0  0  0  0
  1  3  2  0  0  0  0
  1 12  1  0  0  0  0
  2  4  2  0  0  0  0
  2 13  1  0  0  0  0
  3  5  1  0  0  0  0
  3 14  1  0  0  0  0
  4  6  1  0  0  0  0
  4 15  1  0  0  0  0
  5  6  2  0  0  0  0
  5 16  1  0  0  0  0
  6  8  1  0  0  0  0
  7 11  1  0  0  0  0
  7 17  1  0  0  0  0
  7 18  1  0  0  0  0
  7 19  1  0  0  0  0
  8 11  1  0  0  0  0
  8 20  1  0  0  0  0
  8 21  1  0  0  0  0
  9 11  2  0  0  0  0
 10 11  2  0  0  0  0
M  END
$$$$
