23
0 1 C11H9NO2
C                     1.921244825422    -0.915063758025    -0.134598991131
C                     0.776794573682    -0.532696673046     0.576722126724
C                     0.375854172957    -3.252689401492     6.675168089209
C                    -0.245841306707    -4.250388282087     5.909253473063
C                     3.032096864625    -1.439009199993     0.529740424559
C                     0.745346640989    -0.679058458637     1.965924881893
C                     1.096660310762    -2.252589744436     6.032187826814
C                    -0.109052183395    -4.192209904533     4.524288702379
C                     3.000249583059    -1.590433031280     1.919735469139
C                     1.851542883841    -1.207169398395     2.622182084083
C                     1.162806694789    -2.304993734976     4.630518312742
N                     0.586915439787    -3.234527568655     3.886542462983
O                     4.088987909890    -2.106235176823     2.567353387690
O                     1.901070166519    -1.312756000237     4.020399066113
H                     1.951816414194    -0.801577715201    -1.214902243807
H                    -0.083159854692    -0.122597484831     0.055469821043
H                     0.294770963102    -3.254450032282     7.758984480594
H                    -0.819189425994    -5.046989254958     6.372945638925
H                     3.927701189082    -1.736282398702    -0.007866769581
H                    -0.129337874260    -0.395454489374     2.543877260963
H                     1.592869749457    -1.451523912935     6.570401823170
H                    -0.571783659782    -4.943360910427     3.886615457687
H                     3.895870655975    -2.087069431315     3.521061454547
