25
0 1 C12H10O2S
C                     1.861085959823    -0.987404330640     0.019311644957
C                     0.399741057619     2.891386104257     5.780747560630
C                     0.702600875393    -1.421968746582     0.673503415577
C                     3.008288340525    -0.663858711111     0.752931020444
C                     1.767933281438     2.627009683108     5.650176624093
C                    -0.539940373504     1.876852842441     5.564717923055
C                     0.682225621286    -1.526183398296     2.066647604321
C                     2.999806645858    -0.764211395792     2.146458127109
C                     2.203525645279     1.348327308214     5.293284309956
C                    -0.116414303129     0.594260393012     5.207432292664
C                     1.831688049061    -1.187783488709     2.783663330434
C                     1.251778026526     0.351285618089     5.069747145332
O                     0.747699182948    -2.245060335911     4.954870625886
O                     3.193231949703    -1.447986305072     5.038937474441
S                     1.803834187440    -1.291412388877     4.581005841734
H                     1.872636533055    -0.908968377406    -1.064578376146
H                     0.065711670240     3.887254084620     6.059641641048
H                    -0.181355867066    -1.686420845363     0.099720614253
H                     3.910477635065    -0.341017474077     0.240709922921
H                     2.495301931044     3.413150150759     5.833081022431
H                    -1.600566399148     2.081782210132     5.681395264300
H                    -0.198091731366    -1.881967154970     2.592858998980
H                     3.884938585067    -0.539555465876     2.733409990164
H                     3.260455256979     1.115807286354     5.207986563458
H                    -0.826790278735    -0.212652137570     5.056762290189
