23
0 1 C11H9NO2
C                     2.154591093994    -1.284583346389    -0.134532494722
C                     0.951094603492    -0.668770803861     0.232715796260
C                    -0.961322784041    -3.488451162945     4.724036149861
C                    -1.167547143619    -3.166510458520     6.069406823288
C                     3.066758485225    -1.707048866258     0.835417719389
C                     0.655189751213    -0.481762419292     1.586294172270
C                    -0.123336168591    -2.689989280202     3.947153124209
C                    -0.508552237837    -2.046365427193     6.578743185332
C                     2.772347404961    -1.523087574028     2.190542652839
C                     1.558864679021    -0.919286729753     2.550738376881
C                     0.475873788209    -1.586203254333     4.573324887439
N                     0.301656458214    -1.265817261970     5.849451029483
O                     3.661944663184    -1.936543238038     3.140198158906
O                     1.333995517149    -0.724818867426     3.914355085824
H                     2.390115519468    -1.430571686331    -1.185190065284
H                     0.251927585477    -0.331375637752    -0.526590312000
H                    -1.444452004567    -4.354932267239     4.279965483380
H                    -1.813783041799    -3.763496796805     6.705290940998
H                     4.008278595484    -2.175237847762     0.563848414670
H                    -0.267544081224    -0.004831488477     1.904781053460
H                     0.060881859255    -2.913478040987     2.903185073271
H                    -0.631406066692    -1.756618536030     7.621034231355
H                     3.334164525282    -1.628776275321     4.004892840314
