19
0 1 C7H9NOS
C                     5.859178634850    -1.017633160749     6.318711425502
C                     4.686654759485    -0.887787138781     7.070609619033
C                     5.796128339680    -1.130243526417     4.924673429990
C                     3.443161060402    -0.878675797318     6.431853418471
C                     4.560031151558    -1.122571398798     4.273290600797
C                     3.400307628410    -1.003662988223     5.042213060208
C                     1.358711881796    -2.803877661752     4.332903810607
N                     2.079840664238    -0.550680850511     2.824479408997
O                     0.792400634053    -0.376736787627     5.169717689982
S                     1.779849383828    -1.025032756813     4.268721383129
H                     6.824298143667    -1.022282294759     6.818469182606
H                     4.738683695676    -0.784401845342     8.150903833363
H                     6.709815284439    -1.216083938853     4.342885352242
H                     2.520737727985    -0.752303765529     6.991063102755
H                     4.481887314728    -1.181447501796     3.193063459679
H                     0.382046689345    -2.907675877460     3.853690300353
H                     2.118514067233    -3.363746071119     3.785822984411
H                     1.301246776913    -3.121887113970     5.375182066417
H                     1.219939603386    -0.506796030969     2.273345016574
