
  -OEChem-05262117483D

 18 18  0     1  0  0  0  0  0999 V2000
    1.2934   -0.9041   -1.4876 C   0  0  0  0  0  0  0  0  0  0  0  0
    0.8299    0.0997    1.9734 C   0  0  0  0  0  0  0  0  0  0  0  0
    0.7052    0.4329    4.2147 C   0  0  0  0  0  0  0  0  0  0  0  0
   -0.5216    1.0410    0.0569 C   0  0  0  0  0  0  0  0  0  0  0  0
    0.7862    0.3714    0.4964 C   0  0  2  0  0  0  0  0  0  0  0  0
    1.5256   -0.8640   -2.6330 N   0  0  0  0  0  0  0  0  0  0  0  0
    1.1879   -1.0389    2.4948 N   0  0  0  0  0  0  0  0  0  0  0  0
    0.5360    1.0270    2.9475 N   0  0  0  0  0  0  0  0  0  0  0  0
    1.1239   -0.8358    3.8588 N   0  0  0  0  0  0  0  0  0  0  0  0
    0.9640   -0.9214   -0.1879 N   0  0  0  0  0  0  0  0  0  0  0  0
    0.5257    0.9250    5.3165 O   0  0  0  0  0  0  0  0  0  0  0  0
   -1.3804    0.4269    0.3392 H   0  0  0  0  0  0  0  0  0  0  0  0
   -0.6249    2.0341    0.5063 H   0  0  0  0  0  0  0  0  0  0  0  0
   -0.5213    1.1686   -1.0287 H   0  0  0  0  0  0  0  0  0  0  0  0
    1.6242    1.0421    0.2553 H   0  0  0  0  0  0  0  0  0  0  0  0
    0.2058    1.9749    2.8292 H   0  0  0  0  0  0  0  0  0  0  0  0
    1.3130   -1.5930    4.5003 H   0  0  0  0  0  0  0  0  0  0  0  0
    1.4012   -1.6452    0.3781 H   0  0  0  0  0  0  0  0  0  0  0  0
  1  6  3  0  0  0  0
  1 10  1  0  0  0  0
  2  5  1  0  0  0  0
  2  7  2  0  0  0  0
  2  8  1  0  0  0  0
  3  8  1  0  0  0  0
  3  9  1  0  0  0  0
  3 11  2  0  0  0  0
  4  5  1  0  0  0  0
  4 12  1  0  0  0  0
  4 13  1  0  0  0  0
  4 14  1  0  0  0  0
  5 10  1  0  0  0  0
  5 15  1  0  0  0  0
  7  9  1  0  0  0  0
  8 16  1  0  0  0  0
  9 17  1  0  0  0  0
 10 18  1  0  0  0  0
M  END
$$$$
