28
0 1 C13H10N4O
C                     1.486707154096    -2.925420639279     2.964958458540
C                     1.907326940896    -0.910191178938    -0.148693747848
C                     2.045212138380     0.375153828086     0.386650589287
C                    -1.241153952630    -1.428166861664     9.123221983198
C                    -2.426776165191    -0.732805696733     8.867415311804
C                     1.688933468720    -1.991203529077     0.703522659760
C                     1.938034724007     0.583117429111     1.763338927853
C                    -0.207268897182    -1.363958964887     8.191312715354
C                    -2.509697572632     0.008557155337     7.685987447774
C                     1.609108123678    -1.793922444279     2.091517848409
C                     1.713526254613    -0.492202619983     2.628417934793
C                    -0.397574061066    -0.579519331001     7.042652721317
C                     0.453526883316    -0.631632665665     4.729206618676
N                     1.435429919424    -3.849166681885     3.673384368498
N                    -1.515505242489     0.105558185026     6.794991473640
N                     1.631580321859    -0.294920820796     4.023917560095
N                     0.651228193028    -0.447349284434     6.103712863262
O                    -0.559576689846    -1.037810851837     4.201602503684
H                     1.975009372904    -1.068351441408    -1.220861281918
H                     2.217519815992     1.222981038821    -0.270617690633
H                    -1.128506597475    -2.025982150759    10.023839489127
H                    -3.263171804066    -0.761980702178     9.559102928539
H                     1.596536381307    -2.998294559021     0.309029807088
H                     2.008408323762     1.588393497641     2.171481165825
H                     0.714511490215    -1.921700357040     8.334743155537
H                    -3.414364628333     0.565522382108     7.446886890337
H                     2.114988503443     0.522035323908     4.379402162308
H                     1.573009273648    -0.708782596566     6.432690703821
