
  -OEChem-05262117483D

 28 29  0     0  0  0  0  0  0999 V2000
    4.1127   -0.6365    2.8614 C   0  0  0  0  0  0  0  0  0  0  0  0
    1.9869   -1.0630   -0.1759 C   0  0  0  0  0  0  0  0  0  0  0  0
    0.7453   -1.2963    0.4292 C   0  0  0  0  0  0  0  0  0  0  0  0
   -2.0375   -1.7748    8.4270 C   0  0  0  0  0  0  0  0  0  0  0  0
   -1.3651   -1.6379    9.6460 C   0  0  0  0  0  0  0  0  0  0  0  0
    3.0998   -0.8450    0.6292 C   0  0  0  0  0  0  0  0  0  0  0  0
    0.5959   -1.3156    1.8159 C   0  0  0  0  0  0  0  0  0  0  0  0
   -1.3382   -1.6492    7.2283 C   0  0  0  0  0  0  0  0  0  0  0  0
    0.0052   -1.3761    9.6065 C   0  0  0  0  0  0  0  0  0  0  0  0
    2.9705   -0.8604    2.0277 C   0  0  0  0  0  0  0  0  0  0  0  0
    1.7113   -1.0969    2.6420 C   0  0  0  0  0  0  0  0  0  0  0  0
    0.0396   -1.3852    7.3108 C   0  0  0  0  0  0  0  0  0  0  0  0
    0.5546   -1.3032    4.8568 C   0  0  0  0  0  0  0  0  0  0  0  0
    4.9931   -0.4633    3.6080 N   0  0  0  0  0  0  0  0  0  0  0  0
    0.7005   -1.2509    8.4696 N   0  0  0  0  0  0  0  0  0  0  0  0
    1.6650   -1.0965    4.0399 N   0  0  0  0  0  0  0  0  0  0  0  0
    0.8850   -1.2311    6.1979 N   0  0  0  0  0  0  0  0  0  0  0  0
   -0.5757   -1.5221    4.4349 O   0  0  0  0  0  0  0  0  0  0  0  0
    2.0823   -1.0520   -1.2572 H   0  0  0  0  0  0  0  0  0  0  0  0
   -0.1311   -1.4679   -0.1901 H   0  0  0  0  0  0  0  0  0  0  0  0
   -3.1048   -1.9790    8.4052 H   0  0  0  0  0  0  0  0  0  0  0  0
   -1.8819   -1.7302   10.5962 H   0  0  0  0  0  0  0  0  0  0  0  0
    4.0773   -0.6611    0.1945 H   0  0  0  0  0  0  0  0  0  0  0  0
   -0.3682   -1.4968    2.2687 H   0  0  0  0  0  0  0  0  0  0  0  0
   -1.8185   -1.7477    6.2650 H   0  0  0  0  0  0  0  0  0  0  0  0
    0.5765   -1.2606   10.5260 H   0  0  0  0  0  0  0  0  0  0  0  0
    2.5539   -0.9236    4.4967 H   0  0  0  0  0  0  0  0  0  0  0  0
    1.8423   -1.0461    6.4790 H   0  0  0  0  0  0  0  0  0  0  0  0
  1 10  1  0  0  0  0
  1 14  3  0  0  0  0
  2  3  1  0  0  0  0
  2  6  2  0  0  0  0
  2 19  1  0  0  0  0
  3  7  2  0  0  0  0
  3 20  1  0  0  0  0
  4  5  1  0  0  0  0
  4  8  2  0  0  0  0
  4 21  1  0  0  0  0
  5  9  2  0  0  0  0
  5 22  1  0  0  0  0
  6 10  1  0  0  0  0
  6 23  1  0  0  0  0
  7 11  1  0  0  0  0
  7 24  1  0  0  0  0
  8 12  1  0  0  0  0
  8 25  1  0  0  0  0
  9 15  1  0  0  0  0
  9 26  1  0  0  0  0
 10 11  2  0  0  0  0
 11 16  1  0  0  0  0
 12 15  2  0  0  0  0
 12 17  1  0  0  0  0
 13 16  1  0  0  0  0
 13 17  1  0  0  0  0
 13 18  2  0  0  0  0
 16 27  1  0  0  0  0
 17 28  1  0  0  0  0
M  END
$$$$
