28
0 1 C13H10N4O
C                     4.112698525622    -0.636548367404     2.861388180623
C                     1.986862370911    -1.063024616603    -0.175850354992
C                     0.745277376984    -1.296259826755     0.429213921040
C                    -2.037454225843    -1.774771563359     8.426959068549
C                    -1.365104104371    -1.637872651652     9.645951963322
C                     3.099751234365    -0.844992572462     0.629191925741
C                     0.595877156393    -1.315576784651     1.815866264308
C                    -1.338158078006    -1.649230429751     7.228250240066
C                     0.005182205965    -1.376098147222     9.606531679611
C                     2.970460197580    -0.860385908887     2.027661044836
C                     1.711297095613    -1.096921195127     2.641973925608
C                     0.039569850357    -1.385195740661     7.310777860285
C                     0.554614028922    -1.303232995947     4.856838076352
N                     4.993147368227    -0.463299468746     3.607972387188
N                     0.700537385903    -1.250884981773     8.469604565647
N                     1.664983437342    -1.096458725996     4.039878994714
N                     0.884997877454    -1.231148296389     6.197881350221
O                    -0.575698544537    -1.522094112608     4.434919392338
H                     2.082279102241    -1.051991753312    -1.257164674815
H                    -0.131108771087    -1.467860174356    -0.190102637181
H                    -3.104838151390    -1.979040353847     8.405150231043
H                    -1.881874316120    -1.730207312029    10.596154972006
H                     4.077342121803    -0.661071254279     0.194490235939
H                    -0.368234719638    -1.496805209969     2.268673440159
H                    -1.818540752389    -1.747665392095     6.264965139926
H                     0.576539703464    -1.260558013095    10.525969706420
H                     2.553881451383    -0.923583526992     4.496657740783
H                     1.842307630243    -1.046122061482     6.478990719903
