18
0 1 C5H7N5O
C                     0.306870420104    -0.548402933123    -0.698231670836
C                    -1.115827866056     0.687682020422     2.408458886548
C                    -1.636827098028    -0.210902212035     4.319433832256
C                    -1.510282311046     1.757486582451     0.137840672514
C                    -0.595370903139     0.889879637766     1.009694888744
N                     0.897623336603    -0.601079571636    -1.705837965922
N                    -1.037336158712    -0.434478720985     3.054639887884
N                    -1.667225291303     1.730498735211     3.131701139268
N                    -2.187036292891     1.106402659006     4.290852314928
N                    -0.422716725582    -0.448823656811     0.423272483364
O                    -1.690912522695    -0.959077432218     5.270816874369
H                    -2.515534815315     1.330016723662     0.084289711538
H                    -1.561587200518     2.782430728541     0.519671140051
H                    -1.105276612236     1.808866392833    -0.875748637702
H                     0.377891484051     1.393116978452     1.108414781265
H                    -2.341674214261     2.323317781796     2.652279477157
H                    -2.056648107703     1.646808840750     5.142221303442
H                    -0.302829353043    -1.188928215434     1.114185686294
