73
0 1 C33H35NO3S
C                     8.118458528631     3.959846942470     7.423569416230
C                     5.494731686309    -4.960964508933     5.929951096636
C                     7.759296007218     3.688783589374     6.097739156360
C                     7.986633024054     2.957797992366     8.389847928974
C                     4.844991539598    -3.993859664808     6.705736968594
C                     6.735943885475    -4.661856472914     5.359017808756
C                    -8.295369497631    -2.182272417386    -2.943165300555
C                    -8.317593924459    -1.630201534761    -4.226064418761
C                     7.275131102222     2.428038543886     5.744223278582
C                     7.510528292327     1.693728174089     8.030634521880
C                     5.426482965893    -2.740290733265     6.898718446220
C                     7.319414090573    -3.408191125283     5.562096823662
C                     4.270387963253     0.932167268192     6.088599641502
C                     5.065524559905    -0.621098647147     4.436482428357
C                     3.032113427871     0.980301999874     5.458932165369
C                     3.830262746802    -0.577412279642     3.784396354402
C                    -7.062241506963    -2.435548240560    -2.342583716425
C                    -7.098155044425    -1.353359836405    -4.850563288783
C                     7.159716832894     1.405061656412     6.701519256888
C                     5.309137623088     0.113223285172     5.604685397168
C                     6.668489957478    -2.421656846646     6.321908132114
C                     2.799975207369     0.219352362449     4.302167631847
C                    -5.895447901108    -2.118607890352    -3.052432562736
C                     6.621675480604     0.069825726714     6.308601923526
C                     7.291449382202    -1.086783286918     6.555863885831
C                     8.801504935521    -1.770217919377     8.497236802560
C                    -4.533736806927    -2.351697502686    -2.452388739070
C                     8.705852757375    -1.131834852250     7.100991201436
C                    -0.627385579332    -0.985531355528     0.983397035668
C                    -0.197785263676    -0.181623323812     2.215622144180
C                    -2.090953809004    -0.725831807859     0.603192957246
C                     1.251901091978    -0.448774681461     2.593446560312
C                    -2.503099230241    -1.545447406720    -0.619968975513
N                    -5.906798942781    -1.585826411366    -4.284177416470
O                    -5.078955252140    -1.687033166897     0.086264357466
O                    -4.353740734789     0.172429944006    -1.506394218533
O                     1.550095815758     0.329931116261     3.752997095429
S                    -4.244090639355    -1.217872118608    -1.038043467555
H                     8.487898264154     4.943782071985     7.701027018650
H                     5.041988202228    -5.937370277548     5.777205317175
H                     7.852137381233     4.463037271053     5.340138109989
H                     8.247481066191     3.161386176292     9.425523180342
H                     3.883837160912    -4.217333661548     7.162169267634
H                     7.251174821262    -5.404916581510     4.755099460681
H                    -9.219732915413    -2.409090755888    -2.418583194902
H                    -9.253349606819    -1.415933046569    -4.734343490030
H                     6.982491786636     2.226858835949     4.717066272151
H                     7.394337730614     0.924122785029     8.788269562594
H                     4.915032535601    -1.991426307391     7.496003986593
H                     8.280704631847    -3.188660938124     5.104593321777
H                     4.436887841601     1.533893774844     6.977966411300
H                     5.853054006607    -1.244300435033     4.025383788435
H                     2.228846621348     1.602371687202     5.843334619362
H                     3.688951804226    -1.162764185984     2.882964651124
H                    -6.994118503176    -2.843802552975    -1.339252786902
H                    -7.074717383590    -0.923367003553    -5.850529286259
H                     8.407871556600    -2.791114002682     8.493425620663
H                     8.228388019048    -1.196396858541     9.232969362570
H                     9.842886251834    -1.807800487053     8.834377175135
H                    -3.764641444154    -2.145026750381    -3.198363333489
H                    -4.421286131066    -3.359430445754    -2.043880971939
H                     9.139475047378    -0.130538487391     7.116489542495
H                     9.322607267088    -1.723627718387     6.412017528235
H                     0.021420738939    -0.733392877057     0.133953648939
H                    -0.484823614204    -2.057356840033     1.176319171362
H                    -0.836620422770    -0.432984081120     3.069867586550
H                    -0.323868084245     0.890843073671     2.028844443832
H                    -2.744792660758    -0.980235339421     1.443360100310
H                    -2.236836980267     0.337839463295     0.389625321935
H                     1.405380797896    -1.515068284991     2.810851846964
H                     1.924966962670    -0.168589736739     1.770945776171
H                    -1.916535889095    -1.279730336275    -1.504387462131
H                    -2.421070375418    -2.620757237401    -0.433802612430
