
  -OEChem-05262117483D

 33 35  0     1  0  0  0  0  0999 V2000
   -1.6936    1.8590    0.0386 C   0  0  0  0  0  0  0  0  0  0  0  0
   -1.0534    0.6160    0.1287 C   0  0  0  0  0  0  0  0  0  0  0  0
   -3.0690    1.9157   -0.1781 C   0  0  0  0  0  0  0  0  0  0  0  0
   -1.8055   -0.5504    0.0167 C   0  0  0  0  0  0  0  0  0  0  0  0
   -3.8422    0.7483   -0.2968 C   0  0  0  0  0  0  0  0  0  0  0  0
   -3.1971   -0.4974   -0.1773 C   0  0  0  0  0  0  0  0  0  0  0  0
   -3.5157   -2.5652    2.0529 C   0  0  0  0  0  0  0  0  0  0  0  0
   -5.3308    0.8573   -0.5678 C   0  0  0  0  0  0  0  0  0  0  0  0
   -5.9182   -0.4370   -1.1344 C   0  0  0  0  0  0  0  0  0  0  0  0
   -5.5049   -1.6205   -0.2583 C   0  0  0  0  0  0  0  0  0  0  0  0
   -3.6585   -1.3567    4.0974 C   0  0  0  0  0  0  0  0  0  0  0  0
   -3.0003   -2.6638    4.5517 C   0  0  0  0  0  0  0  0  0  0  0  0
   -3.9800   -1.8006   -0.2947 C   0  0  2  0  0  0  0  0  0  0  0  0
   -3.5867   -1.3670    2.6291 N   0  3  0  0  0  0  0  0  0  0  0  0
   -3.5594   -2.7865    0.7452 N   0  0  0  0  0  0  0  0  0  0  0  0
   -3.3622   -3.8763    3.2056 S   0  0  0  0  0  0  0  0  0  0  0  0
   -1.1184    2.7769    0.1206 H   0  0  0  0  0  0  0  0  0  0  0  0
    0.0212    0.5603    0.2768 H   0  0  0  0  0  0  0  0  0  0  0  0
   -3.5590    2.8819   -0.2730 H   0  0  0  0  0  0  0  0  0  0  0  0
   -1.3095   -1.5160    0.0843 H   0  0  0  0  0  0  0  0  0  0  0  0
   -5.8540    1.1163    0.3631 H   0  0  0  0  0  0  0  0  0  0  0  0
   -5.5096    1.6904   -1.2540 H   0  0  0  0  0  0  0  0  0  0  0  0
   -7.0087   -0.3709   -1.1806 H   0  0  0  0  0  0  0  0  0  0  0  0
   -5.5640   -0.5922   -2.1606 H   0  0  0  0  0  0  0  0  0  0  0  0
   -5.8279   -1.4370    0.7743 H   0  0  0  0  0  0  0  0  0  0  0  0
   -5.9851   -2.5482   -0.5841 H   0  0  0  0  0  0  0  0  0  0  0  0
   -4.7055   -1.3036    4.4128 H   0  0  0  0  0  0  0  0  0  0  0  0
   -3.1241   -0.4870    4.4839 H   0  0  0  0  0  0  0  0  0  0  0  0
   -1.9177   -2.5709    4.6493 H   0  0  0  0  0  0  0  0  0  0  0  0
   -3.4263   -3.0399    5.4815 H   0  0  0  0  0  0  0  0  0  0  0  0
   -3.7033   -2.2805   -1.2388 H   0  0  0  0  0  0  0  0  0  0  0  0
   -3.5993   -0.5182    2.0667 H   0  0  0  0  0  0  0  0  0  0  0  0
   -3.4496   -3.7499    0.4480 H   0  0  0  0  0  0  0  0  0  0  0  0
  1  2  1  0  0  0  0
  1  3  2  0  0  0  0
  1 17  1  0  0  0  0
  2  4  2  0  0  0  0
  2 18  1  0  0  0  0
  3  5  1  0  0  0  0
  3 19  1  0  0  0  0
  4  6  1  0  0  0  0
  4 20  1  0  0  0  0
  5  6  2  0  0  0  0
  5  8  1  0  0  0  0
  6 13  1  0  0  0  0
  7 14  2  0  0  0  0
  7 15  1  0  0  0  0
  7 16  1  0  0  0  0
  8  9  1  0  0  0  0
  8 21  1  0  0  0  0
  8 22  1  0  0  0  0
  9 10  1  0  0  0  0
  9 23  1  0  0  0  0
  9 24  1  0  0  0  0
 10 13  1  0  0  0  0
 10 25  1  0  0  0  0
 10 26  1  0  0  0  0
 11 12  1  0  0  0  0
 11 14  1  0  0  0  0
 11 27  1  0  0  0  0
 11 28  1  0  0  0  0
 12 16  1  0  0  0  0
 12 29  1  0  0  0  0
 12 30  1  0  0  0  0
 13 15  1  0  0  0  0
 13 31  1  0  0  0  0
 14 32  1  0  0  0  0
 15 33  1  0  0  0  0
M  CHG  1  14   1
M  END
$$$$
