
  -OEChem-05262117483D

 31 32  0     0  0  0  0  0  0999 V2000
    1.7364   -0.8086   -0.1792 C   0  0  0  0  0  0  0  0  0  0  0  0
    0.6632   -0.1793    1.8738 C   0  0  0  0  0  0  0  0  0  0  0  0
    0.6794   -0.1687    0.4756 C   0  0  0  0  0  0  0  0  0  0  0  0
    2.7588   -1.4529    0.5271 C   0  0  0  0  0  0  0  0  0  0  0  0
    1.6660   -0.8126    2.6180 C   0  0  0  0  0  0  0  0  0  0  0  0
    2.7213   -1.4557    1.9379 C   0  0  0  0  0  0  0  0  0  0  0  0
    3.5229   -3.6480    2.8492 C   0  0  0  0  0  0  0  0  0  0  0  0
   -0.7941    1.9297   -0.0584 C   0  0  0  0  0  0  0  0  0  0  0  0
   -0.1215    1.5244   -1.3550 C   0  0  0  0  0  0  0  0  0  0  0  0
   -0.4256    0.4818   -0.3010 C   0  0  0  0  0  0  0  0  0  0  0  0
    3.8851   -2.1128   -0.2392 C   0  0  0  0  0  0  0  0  0  0  0  0
    1.5952   -0.7753    4.1295 C   0  0  0  0  0  0  0  0  0  0  0  0
    3.8213   -2.1663    2.7185 C   0  0  0  0  0  0  0  0  0  0  0  0
    3.9445   -4.5261    2.1218 O   0  0  0  0  0  0  0  0  0  0  0  0
    2.6838   -3.9157    3.8885 O   0  0  0  0  0  0  0  0  0  0  0  0
    1.7646   -0.8008   -1.2667 H   0  0  0  0  0  0  0  0  0  0  0  0
   -0.1491    0.3230    2.3947 H   0  0  0  0  0  0  0  0  0  0  0  0
   -0.1975    2.4825    0.6616 H   0  0  0  0  0  0  0  0  0  0  0  0
   -1.8441    2.2065   -0.0858 H   0  0  0  0  0  0  0  0  0  0  0  0
   -0.7131    1.5249   -2.2660 H   0  0  0  0  0  0  0  0  0  0  0  0
    0.9178    1.8106   -1.4886 H   0  0  0  0  0  0  0  0  0  0  0  0
   -1.2614   -0.1786   -0.5282 H   0  0  0  0  0  0  0  0  0  0  0  0
    4.8453   -1.6215   -0.0377 H   0  0  0  0  0  0  0  0  0  0  0  0
    4.0019   -3.1664    0.0275 H   0  0  0  0  0  0  0  0  0  0  0  0
    3.7058   -2.0489   -1.3154 H   0  0  0  0  0  0  0  0  0  0  0  0
    1.5869   -1.7801    4.5608 H   0  0  0  0  0  0  0  0  0  0  0  0
    2.4521   -0.2423    4.5598 H   0  0  0  0  0  0  0  0  0  0  0  0
    0.6913   -0.2566    4.4587 H   0  0  0  0  0  0  0  0  0  0  0  0
    3.9247   -1.7401    3.7175 H   0  0  0  0  0  0  0  0  0  0  0  0
    4.7801   -2.0806    2.2063 H   0  0  0  0  0  0  0  0  0  0  0  0
    2.5162   -4.8778    3.8610 H   0  0  0  0  0  0  0  0  0  0  0  0
  1  3  1  0  0  0  0
  1  4  2  0  0  0  0
  1 16  1  0  0  0  0
  2  3  2  0  0  0  0
  2  5  1  0  0  0  0
  2 17  1  0  0  0  0
  3 10  1  0  0  0  0
  4  6  1  0  0  0  0
  4 11  1  0  0  0  0
  5  6  2  0  0  0  0
  5 12  1  0  0  0  0
  6 13  1  0  0  0  0
  7 13  1  0  0  0  0
  7 14  2  0  0  0  0
  7 15  1  0  0  0  0
  8  9  1  0  0  0  0
  8 10  1  0  0  0  0
  8 18  1  0  0  0  0
  8 19  1  0  0  0  0
  9 10  1  0  0  0  0
  9 20  1  0  0  0  0
  9 21  1  0  0  0  0
 10 22  1  0  0  0  0
 11 23  1  0  0  0  0
 11 24  1  0  0  0  0
 11 25  1  0  0  0  0
 12 26  1  0  0  0  0
 12 27  1  0  0  0  0
 12 28  1  0  0  0  0
 13 29  1  0  0  0  0
 13 30  1  0  0  0  0
 15 31  1  0  0  0  0
M  END
$$$$
