
  -OEChem-05262117483D

 31 32  0     0  0  0  0  0  0999 V2000
    1.8775   -1.1119   -0.0306 C   0  0  0  0  0  0  0  0  0  0  0  0
    0.7770   -0.5739    2.0368 C   0  0  0  0  0  0  0  0  0  0  0  0
    0.8339   -0.4676    0.6427 C   0  0  0  0  0  0  0  0  0  0  0  0
    2.8454   -1.8557    0.6543 C   0  0  0  0  0  0  0  0  0  0  0  0
    1.7257   -1.3085    2.7571 C   0  0  0  0  0  0  0  0  0  0  0  0
    2.7660   -1.9640    2.0608 C   0  0  0  0  0  0  0  0  0  0  0  0
    5.0460   -1.9272    3.2736 C   0  0  0  0  0  0  0  0  0  0  0  0
   -0.5154    1.7376    0.2204 C   0  0  0  0  0  0  0  0  0  0  0  0
    0.1684    1.3856   -1.0854 C   0  0  0  0  0  0  0  0  0  0  0  0
   -0.2147    0.2920   -0.1121 C   0  0  0  0  0  0  0  0  0  0  0  0
    3.9614   -2.5213   -0.1213 C   0  0  0  0  0  0  0  0  0  0  0  0
    1.6264   -1.3798    4.2654 C   0  0  0  0  0  0  0  0  0  0  0  0
    3.8189   -2.7363    2.8230 C   0  0  0  0  0  0  0  0  0  0  0  0
    5.9586   -2.4183    3.8974 O   0  0  0  0  0  0  0  0  0  0  0  0
    5.0638   -0.6116    2.9345 O   0  0  0  0  0  0  0  0  0  0  0  0
    1.9388   -1.0248   -1.1130 H   0  0  0  0  0  0  0  0  0  0  0  0
   -0.0223   -0.0655    2.5714 H   0  0  0  0  0  0  0  0  0  0  0  0
    0.0897    2.2107    0.9884 H   0  0  0  0  0  0  0  0  0  0  0  0
   -1.5493    2.0687    0.1898 H   0  0  0  0  0  0  0  0  0  0  0  0
   -0.3989    1.4767   -2.0070 H   0  0  0  0  0  0  0  0  0  0  0  0
    1.2234    1.6277   -1.1767 H   0  0  0  0  0  0  0  0  0  0  0  0
   -1.0761   -0.3085   -0.4010 H   0  0  0  0  0  0  0  0  0  0  0  0
    4.9506   -2.2173    0.2383 H   0  0  0  0  0  0  0  0  0  0  0  0
    3.9121   -3.6135   -0.0420 H   0  0  0  0  0  0  0  0  0  0  0  0
    3.9022   -2.2655   -1.1818 H   0  0  0  0  0  0  0  0  0  0  0  0
    1.4371   -2.4034    4.6092 H   0  0  0  0  0  0  0  0  0  0  0  0
    2.5463   -1.0414    4.7547 H   0  0  0  0  0  0  0  0  0  0  0  0
    0.8085   -0.7539    4.6298 H   0  0  0  0  0  0  0  0  0  0  0  0
    4.2144   -3.5678    2.2355 H   0  0  0  0  0  0  0  0  0  0  0  0
    3.4124   -3.1854    3.7317 H   0  0  0  0  0  0  0  0  0  0  0  0
    4.2469   -0.4044    2.4397 H   0  0  0  0  0  0  0  0  0  0  0  0
  1  3  1  0  0  0  0
  1  4  2  0  0  0  0
  1 16  1  0  0  0  0
  2  3  2  0  0  0  0
  2  5  1  0  0  0  0
  2 17  1  0  0  0  0
  3 10  1  0  0  0  0
  4  6  1  0  0  0  0
  4 11  1  0  0  0  0
  5  6  2  0  0  0  0
  5 12  1  0  0  0  0
  6 13  1  0  0  0  0
  7 13  1  0  0  0  0
  7 14  2  0  0  0  0
  7 15  1  0  0  0  0
  8  9  1  0  0  0  0
  8 10  1  0  0  0  0
  8 18  1  0  0  0  0
  8 19  1  0  0  0  0
  9 10  1  0  0  0  0
  9 20  1  0  0  0  0
  9 21  1  0  0  0  0
 10 22  1  0  0  0  0
 11 23  1  0  0  0  0
 11 24  1  0  0  0  0
 11 25  1  0  0  0  0
 12 26  1  0  0  0  0
 12 27  1  0  0  0  0
 12 28  1  0  0  0  0
 13 29  1  0  0  0  0
 13 30  1  0  0  0  0
 15 31  1  0  0  0  0
M  END
$$$$
