
  -OEChem-05262117483D

 73 76  0     0  0  0  0  0  0999 V2000
    8.1185    3.9598    7.4236 C   0  0  0  0  0  0  0  0  0  0  0  0
    5.4947   -4.9610    5.9300 C   0  0  0  0  0  0  0  0  0  0  0  0
    7.7593    3.6888    6.0977 C   0  0  0  0  0  0  0  0  0  0  0  0
    7.9866    2.9578    8.3898 C   0  0  0  0  0  0  0  0  0  0  0  0
    4.8450   -3.9939    6.7057 C   0  0  0  0  0  0  0  0  0  0  0  0
    6.7359   -4.6619    5.3590 C   0  0  0  0  0  0  0  0  0  0  0  0
   -8.2954   -2.1823   -2.9432 C   0  0  0  0  0  0  0  0  0  0  0  0
   -8.3176   -1.6302   -4.2261 C   0  0  0  0  0  0  0  0  0  0  0  0
    7.2751    2.4280    5.7442 C   0  0  0  0  0  0  0  0  0  0  0  0
    7.5105    1.6937    8.0306 C   0  0  0  0  0  0  0  0  0  0  0  0
    5.4265   -2.7403    6.8987 C   0  0  0  0  0  0  0  0  0  0  0  0
    7.3194   -3.4082    5.5621 C   0  0  0  0  0  0  0  0  0  0  0  0
    4.2704    0.9322    6.0886 C   0  0  0  0  0  0  0  0  0  0  0  0
    5.0655   -0.6211    4.4365 C   0  0  0  0  0  0  0  0  0  0  0  0
    3.0321    0.9803    5.4589 C   0  0  0  0  0  0  0  0  0  0  0  0
    3.8303   -0.5774    3.7844 C   0  0  0  0  0  0  0  0  0  0  0  0
   -7.0622   -2.4355   -2.3426 C   0  0  0  0  0  0  0  0  0  0  0  0
   -7.0982   -1.3534   -4.8506 C   0  0  0  0  0  0  0  0  0  0  0  0
    7.1597    1.4051    6.7015 C   0  0  0  0  0  0  0  0  0  0  0  0
    5.3091    0.1132    5.6047 C   0  0  0  0  0  0  0  0  0  0  0  0
    6.6685   -2.4217    6.3219 C   0  0  0  0  0  0  0  0  0  0  0  0
    2.8000    0.2194    4.3022 C   0  0  0  0  0  0  0  0  0  0  0  0
   -5.8954   -2.1186   -3.0524 C   0  0  0  0  0  0  0  0  0  0  0  0
    6.6217    0.0698    6.3086 C   0  0  0  0  0  0  0  0  0  0  0  0
    7.2914   -1.0868    6.5559 C   0  0  0  0  0  0  0  0  0  0  0  0
    8.8015   -1.7702    8.4972 C   0  0  0  0  0  0  0  0  0  0  0  0
   -4.5337   -2.3517   -2.4524 C   0  0  0  0  0  0  0  0  0  0  0  0
    8.7059   -1.1318    7.1010 C   0  0  0  0  0  0  0  0  0  0  0  0
   -0.6274   -0.9855    0.9834 C   0  0  0  0  0  0  0  0  0  0  0  0
   -0.1978   -0.1816    2.2156 C   0  0  0  0  0  0  0  0  0  0  0  0
   -2.0910   -0.7258    0.6032 C   0  0  0  0  0  0  0  0  0  0  0  0
    1.2519   -0.4488    2.5934 C   0  0  0  0  0  0  0  0  0  0  0  0
   -2.5031   -1.5454   -0.6200 C   0  0  0  0  0  0  0  0  0  0  0  0
   -5.9068   -1.5858   -4.2842 N   0  0  0  0  0  0  0  0  0  0  0  0
   -5.0790   -1.6870    0.0863 O   0  0  0  0  0  0  0  0  0  0  0  0
   -4.3537    0.1724   -1.5064 O   0  0  0  0  0  0  0  0  0  0  0  0
    1.5501    0.3299    3.7530 O   0  0  0  0  0  0  0  0  0  0  0  0
   -4.2441   -1.2179   -1.0380 S   0  0  0  0  0  0  0  0  0  0  0  0
    8.4879    4.9438    7.7010 H   0  0  0  0  0  0  0  0  0  0  0  0
    5.0420   -5.9374    5.7772 H   0  0  0  0  0  0  0  0  0  0  0  0
    7.8521    4.4630    5.3401 H   0  0  0  0  0  0  0  0  0  0  0  0
    8.2475    3.1614    9.4255 H   0  0  0  0  0  0  0  0  0  0  0  0
    3.8838   -4.2173    7.1622 H   0  0  0  0  0  0  0  0  0  0  0  0
    7.2512   -5.4049    4.7551 H   0  0  0  0  0  0  0  0  0  0  0  0
   -9.2197   -2.4091   -2.4186 H   0  0  0  0  0  0  0  0  0  0  0  0
   -9.2533   -1.4159   -4.7343 H   0  0  0  0  0  0  0  0  0  0  0  0
    6.9825    2.2269    4.7171 H   0  0  0  0  0  0  0  0  0  0  0  0
    7.3943    0.9241    8.7883 H   0  0  0  0  0  0  0  0  0  0  0  0
    4.9150   -1.9914    7.4960 H   0  0  0  0  0  0  0  0  0  0  0  0
    8.2807   -3.1887    5.1046 H   0  0  0  0  0  0  0  0  0  0  0  0
    4.4369    1.5339    6.9780 H   0  0  0  0  0  0  0  0  0  0  0  0
    5.8531   -1.2443    4.0254 H   0  0  0  0  0  0  0  0  0  0  0  0
    2.2288    1.6024    5.8433 H   0  0  0  0  0  0  0  0  0  0  0  0
    3.6890   -1.1628    2.8830 H   0  0  0  0  0  0  0  0  0  0  0  0
   -6.9941   -2.8438   -1.3393 H   0  0  0  0  0  0  0  0  0  0  0  0
   -7.0747   -0.9234   -5.8505 H   0  0  0  0  0  0  0  0  0  0  0  0
    8.4079   -2.7911    8.4934 H   0  0  0  0  0  0  0  0  0  0  0  0
    8.2284   -1.1964    9.2330 H   0  0  0  0  0  0  0  0  0  0  0  0
    9.8429   -1.8078    8.8344 H   0  0  0  0  0  0  0  0  0  0  0  0
   -3.7646   -2.1450   -3.1984 H   0  0  0  0  0  0  0  0  0  0  0  0
   -4.4213   -3.3594   -2.0439 H   0  0  0  0  0  0  0  0  0  0  0  0
    9.1395   -0.1305    7.1165 H   0  0  0  0  0  0  0  0  0  0  0  0
    9.3226   -1.7236    6.4120 H   0  0  0  0  0  0  0  0  0  0  0  0
    0.0214   -0.7334    0.1340 H   0  0  0  0  0  0  0  0  0  0  0  0
   -0.4848   -2.0574    1.1763 H   0  0  0  0  0  0  0  0  0  0  0  0
   -0.8366   -0.4330    3.0699 H   0  0  0  0  0  0  0  0  0  0  0  0
   -0.3239    0.8908    2.0288 H   0  0  0  0  0  0  0  0  0  0  0  0
   -2.7448   -0.9802    1.4434 H   0  0  0  0  0  0  0  0  0  0  0  0
   -2.2368    0.3378    0.3896 H   0  0  0  0  0  0  0  0  0  0  0  0
    1.4054   -1.5151    2.8109 H   0  0  0  0  0  0  0  0  0  0  0  0
    1.9250   -0.1686    1.7709 H   0  0  0  0  0  0  0  0  0  0  0  0
   -1.9165   -1.2797   -1.5044 H   0  0  0  0  0  0  0  0  0  0  0  0
   -2.4211   -2.6208   -0.4338 H   0  0  0  0  0  0  0  0  0  0  0  0
  1  3  1  0  0  0  0
  1  4  2  0  0  0  0
  1 39  1  0  0  0  0
  2  5  1  0  0  0  0
  2  6  2  0  0  0  0
  2 40  1  0  0  0  0
  3  9  2  0  0  0  0
  3 41  1  0  0  0  0
  4 10  1  0  0  0  0
  4 42  1  0  0  0  0
  5 11  2  0  0  0  0
  5 43  1  0  0  0  0
  6 12  1  0  0  0  0
  6 44  1  0  0  0  0
  7  8  1  0  0  0  0
  7 17  2  0  0  0  0
  7 45  1  0  0  0  0
  8 18  2  0  0  0  0
  8 46  1  0  0  0  0
  9 19  1  0  0  0  0
  9 47  1  0  0  0  0
 10 19  2  0  0  0  0
 10 48  1  0  0  0  0
 11 21  1  0  0  0  0
 11 49  1  0  0  0  0
 12 21  2  0  0  0  0
 12 50  1  0  0  0  0
 13 15  2  0  0  0  0
 13 20  1  0  0  0  0
 13 51  1  0  0  0  0
 14 16  1  0  0  0  0
 14 20  2  0  0  0  0
 14 52  1  0  0  0  0
 15 22  1  0  0  0  0
 15 53  1  0  0  0  0
 16 22  2  0  0  0  0
 16 54  1  0  0  0  0
 17 23  1  0  0  0  0
 17 55  1  0  0  0  0
 18 34  1  0  0  0  0
 18 56  1  0  0  0  0
 19 24  1  0  0  0  0
 20 24  1  0  0  0  0
 21 25  1  0  0  0  0
 22 37  1  0  0  0  0
 23 27  1  0  0  0  0
 23 34  2  0  0  0  0
 24 25  2  0  0  0  0
 25 28  1  0  0  0  0
 26 28  1  0  0  0  0
 26 57  1  0  0  0  0
 26 58  1  0  0  0  0
 26 59  1  0  0  0  0
 27 38  1  0  0  0  0
 27 60  1  0  0  0  0
 27 61  1  0  0  0  0
 28 62  1  0  0  0  0
 28 63  1  0  0  0  0
 29 30  1  0  0  0  0
 29 31  1  0  0  0  0
 29 64  1  0  0  0  0
 29 65  1  0  0  0  0
 30 32  1  0  0  0  0
 30 66  1  0  0  0  0
 30 67  1  0  0  0  0
 31 33  1  0  0  0  0
 31 68  1  0  0  0  0
 31 69  1  0  0  0  0
 32 37  1  0  0  0  0
 32 70  1  0  0  0  0
 32 71  1  0  0  0  0
 33 38  1  0  0  0  0
 33 72  1  0  0  0  0
 33 73  1  0  0  0  0
 35 38  2  0  0  0  0
 36 38  2  0  0  0  0
M  END
$$$$
