
  -OEChem-05262117483D

 40 41  0     0  0  0  0  0  0999 V2000
    2.5467   -3.6410    0.5567 C   0  0  0  0  0  0  0  0  0  0  0  0
    2.3013   -2.9570   -0.6346 C   0  0  0  0  0  0  0  0  0  0  0  0
    2.6539   -2.9173    1.7487 C   0  0  0  0  0  0  0  0  0  0  0  0
    2.1735   -1.5631   -0.6459 C   0  0  0  0  0  0  0  0  0  0  0  0
    0.2997    1.7304    4.1028 C   0  0  0  0  0  0  0  0  0  0  0  0
    1.5971    1.2802    4.0530 C   0  0  0  0  0  0  0  0  0  0  0  0
    0.2316   -0.1261    3.0231 C   0  0  0  0  0  0  0  0  0  0  0  0
    2.5257   -1.5247    1.7664 C   0  0  0  0  0  0  0  0  0  0  0  0
    2.2922   -0.8406    0.5487 C   0  0  0  0  0  0  0  0  0  0  0  0
    3.6903   -0.8974    3.8684 C   0  0  0  0  0  0  0  0  0  0  0  0
    2.6391   -0.7763    3.0436 C   0  0  0  0  0  0  0  0  0  0  0  0
    2.6433    3.6199   -0.2186 C   0  0  0  0  0  0  0  0  0  0  0  0
    1.6543    2.7087   -0.1114 C   0  0  0  0  0  0  0  0  0  0  0  0
    4.0460    3.2938   -0.6848 C   0  0  0  0  0  0  0  0  0  0  0  0
    2.4765    5.0780    0.1474 C   0  0  0  0  0  0  0  0  0  0  0  0
    0.2793    2.9752    0.4585 C   0  0  0  0  0  0  0  0  0  0  0  0
    1.8503    1.2743   -0.5332 C   0  0  0  0  0  0  0  0  0  0  0  0
   -0.5467    0.8432    3.4595 N   0  0  0  0  0  0  0  0  0  0  0  0
    1.5510    0.0799    3.3590 N   0  0  0  0  0  0  0  0  0  0  0  0
    2.2279    0.5150    0.6359 O   0  0  0  0  0  0  0  0  0  0  0  0
    2.6403   -4.7229    0.5632 H   0  0  0  0  0  0  0  0  0  0  0  0
    2.2070   -3.5049   -1.5687 H   0  0  0  0  0  0  0  0  0  0  0  0
    2.8168   -3.4336    2.6908 H   0  0  0  0  0  0  0  0  0  0  0  0
    1.9973   -1.0512   -1.5847 H   0  0  0  0  0  0  0  0  0  0  0  0
   -0.0722    2.6438    4.5489 H   0  0  0  0  0  0  0  0  0  0  0  0
    2.5309    1.7053    4.3888 H   0  0  0  0  0  0  0  0  0  0  0  0
   -0.0866   -1.0008    2.4720 H   0  0  0  0  0  0  0  0  0  0  0  0
    3.7232   -0.4009    4.8332 H   0  0  0  0  0  0  0  0  0  0  0  0
    4.5440   -1.4977    3.5749 H   0  0  0  0  0  0  0  0  0  0  0  0
    4.2477    3.7413   -1.6670 H   0  0  0  0  0  0  0  0  0  0  0  0
    4.2576    2.2258   -0.7414 H   0  0  0  0  0  0  0  0  0  0  0  0
    4.7734    3.7307    0.0104 H   0  0  0  0  0  0  0  0  0  0  0  0
    2.9812    5.2976    1.0976 H   0  0  0  0  0  0  0  0  0  0  0  0
    1.4356    5.3895    0.2378 H   0  0  0  0  0  0  0  0  0  0  0  0
    2.9504    5.7123   -0.6115 H   0  0  0  0  0  0  0  0  0  0  0  0
   -0.4874    2.9424   -0.3275 H   0  0  0  0  0  0  0  0  0  0  0  0
    0.0208    2.2016    1.1887 H   0  0  0  0  0  0  0  0  0  0  0  0
    0.1990    3.9359    0.9673 H   0  0  0  0  0  0  0  0  0  0  0  0
    0.9083    0.8694   -0.9249 H   0  0  0  0  0  0  0  0  0  0  0  0
    2.6160    1.1571   -1.3050 H   0  0  0  0  0  0  0  0  0  0  0  0
  1  2  1  0  0  0  0
  1  3  2  0  0  0  0
  1 21  1  0  0  0  0
  2  4  2  0  0  0  0
  2 22  1  0  0  0  0
  3  8  1  0  0  0  0
  3 23  1  0  0  0  0
  4  9  1  0  0  0  0
  4 24  1  0  0  0  0
  5  6  2  0  0  0  0
  5 18  1  0  0  0  0
  5 25  1  0  0  0  0
  6 19  1  0  0  0  0
  6 26  1  0  0  0  0
  7 18  2  0  0  0  0
  7 19  1  0  0  0  0
  7 27  1  0  0  0  0
  8  9  2  0  0  0  0
  8 11  1  0  0  0  0
  9 20  1  0  0  0  0
 10 11  2  0  0  0  0
 10 28  1  0  0  0  0
 10 29  1  0  0  0  0
 11 19  1  0  0  0  0
 12 13  2  0  0  0  0
 12 14  1  0  0  0  0
 12 15  1  0  0  0  0
 13 16  1  0  0  0  0
 13 17  1  0  0  0  0
 14 30  1  0  0  0  0
 14 31  1  0  0  0  0
 14 32  1  0  0  0  0
 15 33  1  0  0  0  0
 15 34  1  0  0  0  0
 15 35  1  0  0  0  0
 16 36  1  0  0  0  0
 16 37  1  0  0  0  0
 16 38  1  0  0  0  0
 17 20  1  0  0  0  0
 17 39  1  0  0  0  0
 17 40  1  0  0  0  0
M  END
$$$$
