
  -OEChem-05262117483D

 32 32  0     1  0  0  0  0  0999 V2000
    2.6295   -2.0381   -3.4606 C   0  0  0  0  0  0  0  0  0  0  0  0
    0.8903   -0.8877   -4.6684 C   0  0  0  0  0  0  0  0  0  0  0  0
    3.3842   -2.1564   -4.6349 C   0  0  0  0  0  0  0  0  0  0  0  0
    1.6232   -0.9979   -5.8412 C   0  0  0  0  0  0  0  0  0  0  0  0
    1.3791   -1.4064   -3.4515 C   0  0  0  0  0  0  0  0  0  0  0  0
    2.8821   -1.6344   -5.8378 C   0  0  0  0  0  0  0  0  0  0  0  0
   -1.4497   -2.3635   -0.9292 C   0  0  0  0  0  0  0  0  0  0  0  0
    0.5501   -1.3244   -2.1877 C   0  0  0  0  0  0  0  0  0  0  0  0
    5.3550   -1.9960   -8.5192 C   0  0  0  0  0  0  0  0  0  0  0  0
    4.8560   -2.1897   -7.0940 C   0  0  0  0  0  0  0  0  0  0  0  0
   -0.6717   -2.2573   -2.2326 C   0  0  1  0  0  0  0  0  0  0  0  0
   -0.1667   -3.6463   -2.6415 N   0  3  0  0  0  0  0  0  0  0  0  0
    5.4731   -0.6297   -8.8899 O   0  0  0  0  0  0  0  0  0  0  0  0
    3.5138   -1.6847   -7.0294 O   0  0  0  0  0  0  0  0  0  0  0  0
    3.0506   -2.4193   -2.5314 H   0  0  0  0  0  0  0  0  0  0  0  0
   -0.0650   -0.3663   -4.6928 H   0  0  0  0  0  0  0  0  0  0  0  0
    4.3535   -2.6396   -4.5957 H   0  0  0  0  0  0  0  0  0  0  0  0
    1.2589   -0.5820   -6.7756 H   0  0  0  0  0  0  0  0  0  0  0  0
   -0.8091   -2.7003   -0.1068 H   0  0  0  0  0  0  0  0  0  0  0  0
   -1.8322   -1.3746   -0.6645 H   0  0  0  0  0  0  0  0  0  0  0  0
   -2.3079   -3.0378   -1.0112 H   0  0  0  0  0  0  0  0  0  0  0  0
    0.1652   -0.3118   -2.0283 H   0  0  0  0  0  0  0  0  0  0  0  0
    1.1595   -1.5677   -1.3093 H   0  0  0  0  0  0  0  0  0  0  0  0
    4.6356   -2.4386   -9.2130 H   0  0  0  0  0  0  0  0  0  0  0  0
    6.3055   -2.5370   -8.6283 H   0  0  0  0  0  0  0  0  0  0  0  0
    5.4893   -1.6452   -6.3813 H   0  0  0  0  0  0  0  0  0  0  0  0
    4.8655   -3.2578   -6.8359 H   0  0  0  0  0  0  0  0  0  0  0  0
   -1.3272   -1.9635   -3.0563 H   0  0  0  0  0  0  0  0  0  0  0  0
   -0.9295   -4.2807   -2.9034 H   0  0  0  0  0  0  0  0  0  0  0  0
    0.3617   -4.0858   -1.8784 H   0  0  0  0  0  0  0  0  0  0  0  0
    0.4817   -3.5361   -3.4412 H   0  0  0  0  0  0  0  0  0  0  0  0
    6.2803   -0.2624   -8.4978 H   0  0  0  0  0  0  0  0  0  0  0  0
  1  3  1  0  0  0  0
  1  5  2  0  0  0  0
  1 15  1  0  0  0  0
  2  4  2  0  0  0  0
  2  5  1  0  0  0  0
  2 16  1  0  0  0  0
  3  6  2  0  0  0  0
  3 17  1  0  0  0  0
  4  6  1  0  0  0  0
  4 18  1  0  0  0  0
  5  8  1  0  0  0  0
  6 14  1  0  0  0  0
  7 11  1  0  0  0  0
  7 19  1  0  0  0  0
  7 20  1  0  0  0  0
  7 21  1  0  0  0  0
  8 11  1  0  0  0  0
  8 22  1  0  0  0  0
  8 23  1  0  0  0  0
  9 10  1  0  0  0  0
  9 13  1  0  0  0  0
  9 24  1  0  0  0  0
  9 25  1  0  0  0  0
 10 14  1  0  0  0  0
 10 26  1  0  0  0  0
 10 27  1  0  0  0  0
 11 12  1  0  0  0  0
 11 28  1  0  0  0  0
 12 29  1  0  0  0  0
 12 30  1  0  0  0  0
 12 31  1  0  0  0  0
 13 32  1  0  0  0  0
M  CHG  1  12   1
M  END
$$$$
