
  -OEChem-05262117483D

 74 76  0     1  0  0  0  0  0999 V2000
    3.8289    1.9465   -2.2853 C   0  0  0  0  0  0  0  0  0  0  0  0
    3.1823    1.0508   -1.4237 C   0  0  0  0  0  0  0  0  0  0  0  0
    1.9958    3.4817   -2.0646 C   0  0  0  0  0  0  0  0  0  0  0  0
    1.3561    2.5922   -1.2057 C   0  0  0  0  0  0  0  0  0  0  0  0
    3.2490    3.1740   -2.6197 C   0  0  0  0  0  0  0  0  0  0  0  0
    1.9362    1.3562   -0.8748 C   0  0  0  0  0  0  0  0  0  0  0  0
    3.2444    4.0852   -4.9998 C   0  0  0  0  0  0  0  0  0  0  0  0
   -0.1572   -0.0106   -0.4397 C   0  0  0  0  0  0  0  0  0  0  0  0
    2.9011    5.5425   -5.2987 C   0  0  0  0  0  0  0  0  0  0  0  0
    0.2095   -1.1675   -1.3553 C   0  0  0  0  0  0  0  0  0  0  0  0
    3.8974    4.1621   -3.5852 C   0  0  2  0  0  0  0  0  0  0  0  0
    1.2278    0.3996    0.0883 C   0  0  2  0  0  0  0  0  0  0  0  0
    5.4208    4.0408   -3.6565 C   0  0  0  0  0  0  0  0  0  0  0  0
    1.1951    0.9857    1.5031 C   0  0  0  0  0  0  0  0  0  0  0  0
    3.9718    8.1359   -3.8452 C   0  0  0  0  0  0  0  0  0  0  0  0
    1.3432   -3.6596   -2.2107 C   0  0  0  0  0  0  0  0  0  0  0  0
    0.2314    7.4525   -2.8849 C   0  0  0  0  0  0  0  0  0  0  0  0
    2.1743    7.4750   -1.2952 C   0  0  0  0  0  0  0  0  0  0  0  0
    1.6045    9.5243   -2.6264 C   0  0  0  0  0  0  0  0  0  0  0  0
    4.3359   -2.4866    0.0221 C   0  0  0  0  0  0  0  0  0  0  0  0
    2.5138   -4.0226    0.8243 C   0  0  0  0  0  0  0  0  0  0  0  0
    3.8779   -4.5858   -1.2062 C   0  0  0  0  0  0  0  0  0  0  0  0
    2.5615    7.5223   -3.8401 C   0  0  2  0  0  0  0  0  0  0  0  0
    2.1652   -2.6958   -1.3373 C   0  0  2  0  0  0  0  0  0  0  0  0
    1.6591    7.9838   -2.6542 C   0  0  0  0  0  0  0  0  0  0  0  0
    3.2040   -3.4391   -0.4214 C   0  0  0  0  0  0  0  0  0  0  0  0
    2.5535    6.0490   -3.9680 N   0  0  2  0  0  0  0  0  0  0  0  0
    1.1936   -1.9077   -0.5535 N   0  0  1  0  0  0  0  0  0  0  0  0
    3.6427    5.5179   -3.1372 O   0  0  0  0  0  0  0  0  0  0  0  0
    1.9413   -0.8509    0.1700 O   0  0  0  0  0  0  0  0  0  0  0  0
    4.7987    1.6677   -2.6861 H   0  0  0  0  0  0  0  0  0  0  0  0
    3.6522    0.1084   -1.1684 H   0  0  0  0  0  0  0  0  0  0  0  0
    1.5290    4.4277   -2.3167 H   0  0  0  0  0  0  0  0  0  0  0  0
    0.3905    2.8697   -0.7878 H   0  0  0  0  0  0  0  0  0  0  0  0
    2.3383    3.4779   -4.9668 H   0  0  0  0  0  0  0  0  0  0  0  0
    3.9251    3.6515   -5.7365 H   0  0  0  0  0  0  0  0  0  0  0  0
   -0.6732    0.7954   -0.9630 H   0  0  0  0  0  0  0  0  0  0  0  0
   -0.7840   -0.3635    0.3847 H   0  0  0  0  0  0  0  0  0  0  0  0
    3.7595    6.0670   -5.7458 H   0  0  0  0  0  0  0  0  0  0  0  0
    2.0352    5.6517   -5.9577 H   0  0  0  0  0  0  0  0  0  0  0  0
   -0.6429   -1.8142   -1.5718 H   0  0  0  0  0  0  0  0  0  0  0  0
    0.6294   -0.7912   -2.3026 H   0  0  0  0  0  0  0  0  0  0  0  0
    5.8109    4.8056   -4.3338 H   0  0  0  0  0  0  0  0  0  0  0  0
    5.7290    3.0618   -4.0331 H   0  0  0  0  0  0  0  0  0  0  0  0
    5.8672    4.1928   -2.6699 H   0  0  0  0  0  0  0  0  0  0  0  0
    0.7117    0.2811    2.1858 H   0  0  0  0  0  0  0  0  0  0  0  0
    0.6475    1.9328    1.5182 H   0  0  0  0  0  0  0  0  0  0  0  0
    2.2127    1.1766    1.8553 H   0  0  0  0  0  0  0  0  0  0  0  0
    4.4937    7.9602   -2.9035 H   0  0  0  0  0  0  0  0  0  0  0  0
    3.9174    9.2129   -4.0208 H   0  0  0  0  0  0  0  0  0  0  0  0
    4.5835    7.7049   -4.6424 H   0  0  0  0  0  0  0  0  0  0  0  0
    0.7425   -4.3378   -1.5967 H   0  0  0  0  0  0  0  0  0  0  0  0
    1.9984   -4.2554   -2.8462 H   0  0  0  0  0  0  0  0  0  0  0  0
    0.6685   -3.1167   -2.8758 H   0  0  0  0  0  0  0  0  0  0  0  0
   -0.1916    7.8485   -3.8166 H   0  0  0  0  0  0  0  0  0  0  0  0
    0.2230    6.3621   -2.9503 H   0  0  0  0  0  0  0  0  0  0  0  0
   -0.4282    7.7567   -2.0645 H   0  0  0  0  0  0  0  0  0  0  0  0
    3.1851    7.8363   -1.0823 H   0  0  0  0  0  0  0  0  0  0  0  0
    2.2011    6.3848   -1.2561 H   0  0  0  0  0  0  0  0  0  0  0  0
    1.5193    7.8347   -0.4930 H   0  0  0  0  0  0  0  0  0  0  0  0
    2.5635    9.9650   -2.3386 H   0  0  0  0  0  0  0  0  0  0  0  0
    0.8582    9.8605   -1.8983 H   0  0  0  0  0  0  0  0  0  0  0  0
    1.3214    9.9347   -3.6038 H   0  0  0  0  0  0  0  0  0  0  0  0
    4.8509   -2.0610   -0.8483 H   0  0  0  0  0  0  0  0  0  0  0  0
    3.9629   -1.6668    0.6338 H   0  0  0  0  0  0  0  0  0  0  0  0
    5.0809   -3.0425    0.6032 H   0  0  0  0  0  0  0  0  0  0  0  0
    1.6936   -4.6959    0.5537 H   0  0  0  0  0  0  0  0  0  0  0  0
    2.1017   -3.2305    1.4529 H   0  0  0  0  0  0  0  0  0  0  0  0
    3.2367   -4.5971    1.4153 H   0  0  0  0  0  0  0  0  0  0  0  0
    3.1920   -5.4113   -1.4161 H   0  0  0  0  0  0  0  0  0  0  0  0
    4.7070   -4.9935   -0.6182 H   0  0  0  0  0  0  0  0  0  0  0  0
    4.2943   -4.2351   -2.1586 H   0  0  0  0  0  0  0  0  0  0  0  0
    2.0481    7.8573   -4.7516 H   0  0  0  0  0  0  0  0  0  0  0  0
    2.7283   -2.0259   -2.0105 H   0  0  0  0  0  0  0  0  0  0  0  0
  1  2  1  0  0  0  0
  1  5  2  0  0  0  0
  1 31  1  0  0  0  0
  2  6  2  0  0  0  0
  2 32  1  0  0  0  0
  3  4  2  0  0  0  0
  3  5  1  0  0  0  0
  3 33  1  0  0  0  0
  4  6  1  0  0  0  0
  4 34  1  0  0  0  0
  5 11  1  0  0  0  0
  6 12  1  0  0  0  0
  7  9  1  0  0  0  0
  7 11  1  0  0  0  0
  7 35  1  0  0  0  0
  7 36  1  0  0  0  0
  8 10  1  0  0  0  0
  8 12  1  0  0  0  0
  8 37  1  0  0  0  0
  8 38  1  0  0  0  0
  9 27  1  0  0  0  0
  9 39  1  0  0  0  0
  9 40  1  0  0  0  0
 10 28  1  0  0  0  0
 10 41  1  0  0  0  0
 10 42  1  0  0  0  0
 11 13  1  0  0  0  0
 11 29  1  0  0  0  0
 12 14  1  0  0  0  0
 12 30  1  0  0  0  0
 13 43  1  0  0  0  0
 13 44  1  0  0  0  0
 13 45  1  0  0  0  0
 14 46  1  0  0  0  0
 14 47  1  0  0  0  0
 14 48  1  0  0  0  0
 15 23  1  0  0  0  0
 15 49  1  0  0  0  0
 15 50  1  0  0  0  0
 15 51  1  0  0  0  0
 16 24  1  0  0  0  0
 16 52  1  0  0  0  0
 16 53  1  0  0  0  0
 16 54  1  0  0  0  0
 17 25  1  0  0  0  0
 17 55  1  0  0  0  0
 17 56  1  0  0  0  0
 17 57  1  0  0  0  0
 18 25  1  0  0  0  0
 18 58  1  0  0  0  0
 18 59  1  0  0  0  0
 18 60  1  0  0  0  0
 19 25  1  0  0  0  0
 19 61  1  0  0  0  0
 19 62  1  0  0  0  0
 19 63  1  0  0  0  0
 20 26  1  0  0  0  0
 20 64  1  0  0  0  0
 20 65  1  0  0  0  0
 20 66  1  0  0  0  0
 21 26  1  0  0  0  0
 21 67  1  0  0  0  0
 21 68  1  0  0  0  0
 21 69  1  0  0  0  0
 22 26  1  0  0  0  0
 22 70  1  0  0  0  0
 22 71  1  0  0  0  0
 22 72  1  0  0  0  0
 23 25  1  0  0  0  0
 23 27  1  0  0  0  0
 23 73  1  0  0  0  0
 24 26  1  0  0  0  0
 24 28  1  0  0  0  0
 24 74  1  0  0  0  0
 27 29  1  0  0  0  0
 28 30  1  0  0  0  0
M  END
$$$$
