54
0 1 C21ClH25O6S
C                     7.187603000784    -0.577426165252    -1.114665650024
C                     6.446446691871     0.118790922651    -2.063138206895
C                     7.447526644418    -0.009535080114     0.138793508999
C                     6.139161793717     1.976051322831    -0.486796011129
C                     5.927365192819     1.372660776107    -1.740318539123
C                     6.923065175294     1.261774035866     0.439892743610
C                     9.138946796227    -3.095508074527     0.513802591243
C                     7.936146385427    -2.599264366317     2.734661885858
C                     8.336420171036    -0.768424265526     1.082618440016
C                    10.220207531565    -3.714526324972     1.375221147123
C                     9.220487421572    -2.798737001489     3.521729974701
C                    10.487811510358    -2.922861792294     2.662046855483
C                     6.578755107695     8.531946943420    -0.318445626534
C                     7.106711056739     7.811118140955    -1.567136385587
C                     5.382329969924     7.785316814856     0.288213552569
C                     7.447646270218     6.344241347193    -1.267843126961
C                     5.729746059036     6.317943187195     0.586292995093
C                     8.046842198531    -2.278633417822     1.236497658852
C                     6.249739150502     5.612005738361    -0.670649890969
C                     3.244986967894     1.856388316138    -2.534046344329
C                     5.623791520279     3.359164026196    -0.142445329180
O                     9.086843928688    -3.241822810973    -0.694706456303
O                     6.835407430731    -2.701939969615     3.244646235980
O                     9.244271756982    -0.238327731163     1.696847202778
O                     5.177804332694     3.605233265402    -3.090151425295
O                     5.164224920495     1.351911256125    -4.281938991577
O                     6.680546450582     4.268930715050    -0.399504388403
S                     4.948134988468     2.154380550258    -3.069099946213
Cl                    7.205273233285     1.957672892469     2.020255019269
H                     7.598059912794    -1.553734671096    -1.356977307693
H                     6.272946053031    -0.295960548180    -3.050000993453
H                     9.868627876159    -4.728096981691     1.621251819894
H                    11.115109119270    -3.833276342224     0.759254402355
H                     9.302108465977    -1.958245631548     4.219310006136
H                     9.061516528408    -3.693391220016     4.134006989033
H                    10.858550206596    -1.928541718773     2.406285111234
H                    11.272013734180    -3.422289575656     3.238317202456
H                     6.295648406257     9.562020229583    -0.565284315864
H                     7.381132086863     8.595180392114     0.429453162057
H                     6.345844198505     7.853054556466    -2.358388530465
H                     7.991699292585     8.325314953345    -1.958885983599
H                     5.044953145097     8.282382938537     1.205057811988
H                     4.539281229401     7.822638133036    -0.415665375748
H                     7.763663825331     5.820667625757    -2.175463922850
H                     8.279054154585     6.290194584213    -0.553251334104
H                     6.507823506446     6.264099771141     1.358650497240
H                     4.848510710927     5.797560340838     0.980850111045
H                     7.086991516697    -2.513247748453     0.776228660989
H                     5.450170197284     5.569041411993    -1.424891577528
H                     2.608285017389     2.286154624101    -3.310383708901
H                     3.088317477003     0.779559768029    -2.460441519733
H                     3.066781901317     2.349166252292    -1.577779319359
H                     4.752725746343     3.614522701455    -0.750788387209
H                     5.318673142419     3.387746771215     0.909733038476
