
  -OEChem-05262117483D

 54 56  0     0  0  0  0  0  0999 V2000
    6.2401   -0.4835   -1.5470 C   0  0  0  0  0  0  0  0  0  0  0  0
    5.2573    0.1117   -2.3299 C   0  0  0  0  0  0  0  0  0  0  0  0
    6.9168    0.2601   -0.5713 C   0  0  0  0  0  0  0  0  0  0  0  0
    5.5335    2.2199   -1.1040 C   0  0  0  0  0  0  0  0  0  0  0  0
    4.9192    1.4470   -2.1059 C   0  0  0  0  0  0  0  0  0  0  0  0
    6.5535    1.6013   -0.3553 C   0  0  0  0  0  0  0  0  0  0  0  0
    8.6335   -2.8051   -0.1882 C   0  0  0  0  0  0  0  0  0  0  0  0
    8.1197   -1.9090    2.1620 C   0  0  0  0  0  0  0  0  0  0  0  0
    8.0525   -0.4044    0.1518 C   0  0  0  0  0  0  0  0  0  0  0  0
   10.0919   -2.9172    0.1887 C   0  0  0  0  0  0  0  0  0  0  0  0
    9.5841   -2.0106    2.5193 C   0  0  0  0  0  0  0  0  0  0  0  0
   10.2717   -3.1211    1.7040 C   0  0  0  0  0  0  0  0  0  0  0  0
    1.8363    6.5141    2.1991 C   0  0  0  0  0  0  0  0  0  0  0  0
    2.9981    5.9236    3.0106 C   0  0  0  0  0  0  0  0  0  0  0  0
    2.2343    6.7158    0.7305 C   0  0  0  0  0  0  0  0  0  0  0  0
    3.5203    4.6250    2.3792 C   0  0  0  0  0  0  0  0  0  0  0  0
    2.7547    5.4130    0.1033 C   0  0  0  0  0  0  0  0  0  0  0  0
    7.7873   -1.8346    0.6572 C   0  0  0  0  0  0  0  0  0  0  0  0
    3.9172    4.8368    0.9201 C   0  0  0  0  0  0  0  0  0  0  0  0
    4.5634    3.1280   -4.3621 C   0  0  0  0  0  0  0  0  0  0  0  0
    5.1131    3.6351   -0.7677 C   0  0  0  0  0  0  0  0  0  0  0  0
    8.1148   -3.4198   -1.1039 O   0  0  0  0  0  0  0  0  0  0  0  0
    7.2142   -1.9120    2.9736 O   0  0  0  0  0  0  0  0  0  0  0  0
    9.1371    0.1335    0.2963 O   0  0  0  0  0  0  0  0  0  0  0  0
    3.1056    0.9546   -3.9810 O   0  0  0  0  0  0  0  0  0  0  0  0
    2.6983    2.9647   -2.4655 O   0  0  0  0  0  0  0  0  0  0  0  0
    4.3478    3.5612    0.4218 O   0  0  0  0  0  0  0  0  0  0  0  0
    3.6188    2.0982   -3.2126 S   0  0  0  0  0  0  0  0  0  0  0  0
    7.3370    2.5092    0.9175 Cl  0  0  0  0  0  0  0  0  0  0  0  0
    6.5015   -1.5253   -1.7111 H   0  0  0  0  0  0  0  0  0  0  0  0
    4.7385   -0.4505   -3.0985 H   0  0  0  0  0  0  0  0  0  0  0  0
   10.5356   -3.7294   -0.3911 H   0  0  0  0  0  0  0  0  0  0  0  0
   10.5750   -1.9762   -0.1034 H   0  0  0  0  0  0  0  0  0  0  0  0
   10.0508   -1.0475    2.2814 H   0  0  0  0  0  0  0  0  0  0  0  0
    9.6643   -2.1852    3.5943 H   0  0  0  0  0  0  0  0  0  0  0  0
   11.3395   -3.1350    1.9404 H   0  0  0  0  0  0  0  0  0  0  0  0
    9.8686   -4.0979    1.9955 H   0  0  0  0  0  0  0  0  0  0  0  0
    1.5109    7.4645    2.6384 H   0  0  0  0  0  0  0  0  0  0  0  0
    0.9771    5.8316    2.2492 H   0  0  0  0  0  0  0  0  0  0  0  0
    3.8136    6.6586    3.0618 H   0  0  0  0  0  0  0  0  0  0  0  0
    2.6858    5.7336    4.0437 H   0  0  0  0  0  0  0  0  0  0  0  0
    1.3824    7.0900    0.1515 H   0  0  0  0  0  0  0  0  0  0  0  0
    3.0145    7.4880    0.6712 H   0  0  0  0  0  0  0  0  0  0  0  0
    4.3816    4.2359    2.9323 H   0  0  0  0  0  0  0  0  0  0  0  0
    2.7416    3.8527    2.4116 H   0  0  0  0  0  0  0  0  0  0  0  0
    1.9586    4.6604    0.0684 H   0  0  0  0  0  0  0  0  0  0  0  0
    3.0587    5.5914   -0.9334 H   0  0  0  0  0  0  0  0  0  0  0  0
    6.7355   -2.0892    0.5371 H   0  0  0  0  0  0  0  0  0  0  0  0
    4.7706    5.5360    0.8813 H   0  0  0  0  0  0  0  0  0  0  0  0
    3.8359    3.5262   -5.0727 H   0  0  0  0  0  0  0  0  0  0  0  0
    5.0479    3.9385   -3.8167 H   0  0  0  0  0  0  0  0  0  0  0  0
    5.2946    2.4993   -4.8716 H   0  0  0  0  0  0  0  0  0  0  0  0
    6.0068    4.2568   -0.6127 H   0  0  0  0  0  0  0  0  0  0  0  0
    4.5294    4.0733   -1.5783 H   0  0  0  0  0  0  0  0  0  0  0  0
  1  2  1  0  0  0  0
  1  3  2  0  0  0  0
  1 30  1  0  0  0  0
  2  5  2  0  0  0  0
  2 31  1  0  0  0  0
  3  6  1  0  0  0  0
  3  9  1  0  0  0  0
  4  5  1  0  0  0  0
  4  6  2  0  0  0  0
  4 21  1  0  0  0  0
  5 28  1  0  0  0  0
  6 29  1  0  0  0  0
  7 10  1  0  0  0  0
  7 18  1  0  0  0  0
  7 22  2  0  0  0  0
  8 11  1  0  0  0  0
  8 18  1  0  0  0  0
  8 23  2  0  0  0  0
  9 18  1  0  0  0  0
  9 24  2  0  0  0  0
 10 12  1  0  0  0  0
 10 32  1  0  0  0  0
 10 33  1  0  0  0  0
 11 12  1  0  0  0  0
 11 34  1  0  0  0  0
 11 35  1  0  0  0  0
 12 36  1  0  0  0  0
 12 37  1  0  0  0  0
 13 14  1  0  0  0  0
 13 15  1  0  0  0  0
 13 38  1  0  0  0  0
 13 39  1  0  0  0  0
 14 16  1  0  0  0  0
 14 40  1  0  0  0  0
 14 41  1  0  0  0  0
 15 17  1  0  0  0  0
 15 42  1  0  0  0  0
 15 43  1  0  0  0  0
 16 19  1  0  0  0  0
 16 44  1  0  0  0  0
 16 45  1  0  0  0  0
 17 19  1  0  0  0  0
 17 46  1  0  0  0  0
 17 47  1  0  0  0  0
 18 48  1  0  0  0  0
 19 27  1  0  0  0  0
 19 49  1  0  0  0  0
 20 28  1  0  0  0  0
 20 50  1  0  0  0  0
 20 51  1  0  0  0  0
 20 52  1  0  0  0  0
 21 27  1  0  0  0  0
 21 53  1  0  0  0  0
 21 54  1  0  0  0  0
 25 28  2  0  0  0  0
 26 28  2  0  0  0  0
M  END
$$$$
