
  -OEChem-05262117483D

 35 36  0     0  0  0  0  0  0999 V2000
    3.0038   -3.5786   -6.3171 C   0  0  0  0  0  0  0  0  0  0  0  0
    2.1732   -2.8217   -7.1440 C   0  0  0  0  0  0  0  0  0  0  0  0
    2.7572   -3.6131   -4.9414 C   0  0  0  0  0  0  0  0  0  0  0  0
    1.1014   -2.1018   -6.6046 C   0  0  0  0  0  0  0  0  0  0  0  0
    1.8673   -2.8376   -0.8078 C   0  0  0  0  0  0  0  0  0  0  0  0
    2.5032   -2.7506   -2.0228 C   0  0  0  0  0  0  0  0  0  0  0  0
    0.3235   -3.0516   -2.2883 C   0  0  0  0  0  0  0  0  0  0  0  0
    1.7002   -2.8893   -4.3871 C   0  0  0  0  0  0  0  0  0  0  0  0
    0.8556   -2.1278   -5.2264 C   0  0  0  0  0  0  0  0  0  0  0  0
   -0.0691    1.8436   -3.5070 C   0  0  0  0  0  0  0  0  0  0  0  0
   -2.2194    1.4740   -2.2296 C   0  0  0  0  0  0  0  0  0  0  0  0
   -1.8377    0.2170   -4.3750 C   0  0  0  0  0  0  0  0  0  0  0  0
   -0.8931   -0.4713   -5.3506 C   0  0  0  0  0  0  0  0  0  0  0  0
   -1.1606    0.8304   -3.1353 C   0  0  0  0  0  0  0  0  0  0  0  0
    0.5089   -3.0298   -0.9848 N   0  0  0  0  0  0  0  0  0  0  0  0
    1.5036   -2.8862   -2.9804 N   0  0  0  0  0  0  0  0  0  0  0  0
   -0.1589   -1.4592   -4.6132 O   0  0  0  0  0  0  0  0  0  0  0  0
    3.8306   -4.1457   -6.7341 H   0  0  0  0  0  0  0  0  0  0  0  0
    2.3496   -2.7897   -8.2157 H   0  0  0  0  0  0  0  0  0  0  0  0
    3.3816   -4.2108   -4.2838 H   0  0  0  0  0  0  0  0  0  0  0  0
    0.4643   -1.5190   -7.2597 H   0  0  0  0  0  0  0  0  0  0  0  0
    2.3048   -2.7649    0.1796 H   0  0  0  0  0  0  0  0  0  0  0  0
    3.5329   -2.5798   -2.3007 H   0  0  0  0  0  0  0  0  0  0  0  0
   -0.6209   -3.1804   -2.7966 H   0  0  0  0  0  0  0  0  0  0  0  0
   -0.4749    2.6548   -4.1253 H   0  0  0  0  0  0  0  0  0  0  0  0
    0.7541    1.3764   -4.0570 H   0  0  0  0  0  0  0  0  0  0  0  0
    0.3590    2.2958   -2.6061 H   0  0  0  0  0  0  0  0  0  0  0  0
   -2.7161    2.3113   -2.7362 H   0  0  0  0  0  0  0  0  0  0  0  0
   -1.7668    1.8614   -1.3106 H   0  0  0  0  0  0  0  0  0  0  0  0
   -2.9908    0.7510   -1.9415 H   0  0  0  0  0  0  0  0  0  0  0  0
   -2.3730    0.9984   -4.9319 H   0  0  0  0  0  0  0  0  0  0  0  0
   -2.5917   -0.5094   -4.0489 H   0  0  0  0  0  0  0  0  0  0  0  0
   -1.4601   -0.9546   -6.1568 H   0  0  0  0  0  0  0  0  0  0  0  0
   -0.1901    0.2388   -5.8025 H   0  0  0  0  0  0  0  0  0  0  0  0
   -0.6882    0.0133   -2.5786 H   0  0  0  0  0  0  0  0  0  0  0  0
  1  2  1  0  0  0  0
  1  3  2  0  0  0  0
  1 18  1  0  0  0  0
  2  4  2  0  0  0  0
  2 19  1  0  0  0  0
  3  8  1  0  0  0  0
  3 20  1  0  0  0  0
  4  9  1  0  0  0  0
  4 21  1  0  0  0  0
  5  6  2  0  0  0  0
  5 15  1  0  0  0  0
  5 22  1  0  0  0  0
  6 16  1  0  0  0  0
  6 23  1  0  0  0  0
  7 15  2  0  0  0  0
  7 16  1  0  0  0  0
  7 24  1  0  0  0  0
  8  9  2  0  0  0  0
  8 16  1  0  0  0  0
  9 17  1  0  0  0  0
 10 14  1  0  0  0  0
 10 25  1  0  0  0  0
 10 26  1  0  0  0  0
 10 27  1  0  0  0  0
 11 14  1  0  0  0  0
 11 28  1  0  0  0  0
 11 29  1  0  0  0  0
 11 30  1  0  0  0  0
 12 13  1  0  0  0  0
 12 14  1  0  0  0  0
 12 31  1  0  0  0  0
 12 32  1  0  0  0  0
 13 17  1  0  0  0  0
 13 33  1  0  0  0  0
 13 34  1  0  0  0  0
 14 35  1  0  0  0  0
M  END
$$$$
