28   
torsion grid (-165,)
C        2.4484145422   -1.5571142008    6.2353885406
C       -1.3948225464   -1.4834576581   -2.3965873050
C        2.0260882238   -0.4336306122    5.5162091393
C        2.1472756257   -2.8398042386    5.7655062373
C       -1.1488666589   -2.7813312673   -1.9346935591
C       -0.7727097374   -0.3864083793   -1.7888994994
C        1.3015482981   -0.5921338559    4.3332995994
C        1.4208682195   -2.9975134092    4.5829093776
C       -0.2847678321   -2.9888073688   -0.8557458571
C        0.0930823773   -0.5808334616   -0.7095265189
C        0.9858158869   -1.8748153326    3.8639301006
C        0.3191121864   -1.8821825485   -0.2546362298
C        0.2338659610   -2.0473981632    2.5787071349
O        1.9368585222   -3.5107455612    1.0997222836
O        2.3036449291   -0.9739846458    1.2434547811
S        1.4068917863   -2.1378681804    1.1571764736
H        3.0129571171   -1.4332714086    7.1559119348
H       -2.0651827322   -1.3269541902   -3.2375578807
H        2.2657022466    0.5642147721    5.8739341742
H        2.4798855603   -3.7151835443    6.3169985943
H       -1.6219681136   -3.6313944400   -2.4184741966
H       -0.9543173892    0.6182544249   -2.1606604497
H        0.9907877655    0.2802243615    3.7644667425
H        1.1997766656   -3.9935208835    4.2079902139
H       -0.0595100213   -3.9886264705   -0.4966824492
H        0.6069222028    0.2520175511   -0.2390519868
H       -0.3447082451   -2.9725304611    2.5378198478
H       -0.4183489225   -1.1974469317    2.3639993827
28   
torsion grid (-150,)
C        2.4097572036   -1.3155883444    6.1633383728
C       -1.3537606972   -1.2455146698   -2.3106985813
C        1.8374175741   -0.3131347282    5.3725189767
C        2.2723425049   -2.6575929854    5.7936490981
C       -1.2304899640   -2.5921212361   -1.9507529077
C       -0.6236602165   -0.2620792721   -1.6325866446
C        1.1293264810   -0.6528864944    4.2184562077
C        1.5607210063   -2.9951671128    4.6399941952
C       -0.3819852689   -2.9635410833   -0.9037064409
C        0.2275703934   -0.6204223841   -0.5840605717
C        0.9781130050   -1.9958745963    3.8472125805
C        0.3298182349   -1.9680814045   -0.2309758514
C        0.2419305802   -2.3597632492    2.5942947247
O        1.8055729672   -3.8356548004    0.9700737594
O        2.3921020806   -1.3588129524    1.3033759941
S        1.3971492551   -2.4308622655    1.1441429829
H        2.9620151991   -1.0517199883    7.0615318245
H       -2.0125989636   -0.9623661123   -3.1273091880
H        1.9471583699    0.7311710925    5.6526832424
H        2.7198423895   -3.4394648538    6.4014991514
H       -1.7873969516   -3.3537059298   -2.4895462897
H       -0.7097576150    0.7806414194   -1.9256959589
H        0.6996511635    0.1280984134    3.5960824473
H        1.4637350113   -4.0373910192    4.3459679665
H       -0.2521867716   -4.0048009609   -0.6237728944
H        0.8228766381    0.1208022897   -0.0596039628
H       -0.2219612489   -3.3470567755    2.6343710843
H       -0.5106679307   -1.6130149759    2.3310387980
28   
torsion grid (-135,)
C        2.3376577428   -1.0521585833    6.0729854180
C       -1.2775068210   -1.0143432422   -2.1391850928
C        1.5939177199   -0.1974946597    5.2523632262
C        2.3868185720   -2.4209084118    5.7877658481
C       -1.2974367240   -2.3889105973   -1.8773909955
C       -0.4411447690   -0.1659239859   -1.4039461047
C        0.9030181054   -0.7098184335    4.1524399929
C        1.6931587157   -2.9323006286    4.6890870294
C       -0.4867029522   -2.9220456702   -0.8710438388
C        0.3740602931   -0.6873608096   -0.3957688446
C        0.9428401081   -2.0808343461    3.8653859808
C        0.3332749483   -2.0600170719   -0.1400314942
C        0.2270888601   -2.6264046642    2.6696561488
O        1.5838086209   -4.1605981929    0.9154269218
O        2.4742559088   -1.7995278089    1.3872074232
S        1.3532591915   -2.7298579104    1.1852585937
H        2.8764039406   -0.6537932269    6.9287761114
H       -1.9076577027   -0.6044874488   -2.9240549653
H        1.5543767676    0.8668411655    5.4685924504
H        2.9663608491   -3.0885434563    6.4197359213
H       -1.9366725060   -3.0461714814   -2.4604137137
H       -0.4164950197    0.8983704794   -1.6214452035
H        0.3329039540   -0.0416590703    3.5107606498
H        1.7400578381   -3.9948462743    4.4622824044
H       -0.4685882218   -3.9881379569   -0.6653877969
H        1.0491266388   -0.0531704257    0.1708380603
H       -0.1290450742   -3.6491705634    2.8052374021
H       -0.6055626809   -1.9890667006    2.3644749698
28   
torsion grid (-120,)
C        2.2713805395   -0.8137755161    5.8367011046
C       -1.1461150756   -0.7898358466   -2.0011999145
C        1.3576988994   -0.1291228856    5.0288347347
C        2.5156327600   -2.1735418636    5.6141555836
C       -1.3077204519   -2.1716199577   -1.8485286396
C       -0.2200353811   -0.0931497526   -1.2158309075
C        0.6920682548   -0.8039794325    4.0027994882
C        1.8477953034   -2.8451760902    4.5888611680
C       -0.5493009196   -2.8644872016   -0.9003856211
C        0.5452881696   -0.7749496578   -0.2658729689
C        0.9278559616   -2.1671066265    3.7765815054
C        0.3628294307   -2.1522707798   -0.1192966652
C        0.2370609072   -2.8787607105    2.6569094505
O        1.3377692162   -4.4524993734    0.7733254683
O        2.5599193418   -2.2741444592    1.3618361391
S        1.3152171785   -3.0235828400    1.1364541367
H        2.7907038656   -0.2908275927    6.6355068730
H       -1.7367543783   -0.2558039853   -2.7408162932
H        1.1639963171    0.9267934611    5.1985840803
H        3.2276483146   -2.7083252921    6.2370724409
H       -2.0169443177   -2.7103615826   -2.4708924844
H       -0.0870894510    0.9769883322   -1.3491566496
H       -0.0168627241   -0.2696023521    3.3737309024
H        2.0476936750   -3.8989936158    4.4098917071
H       -0.6417391311   -3.9392261614   -0.7765221230
H        1.2871542514   -0.2613029179    0.3382387468
H        0.0020584599   -3.9191588091    2.8917337010
H       -0.6724298878   -2.3696443332    2.3326130287
28   
torsion grid (-105,)
C        2.1773589982   -0.6299516882    5.5575762734
C       -1.0163439698   -0.5900237050   -1.7878458355
C        1.1377796265   -0.1209352898    4.7727028815
C        2.5803033810   -1.9609769148    5.4000956177
C       -1.2902624199   -1.9625060250   -1.7697450373
C       -0.0331118915   -0.0526541645   -0.9487280010
C        0.5051463303   -0.9418970442    3.8356130538
C        1.9471681990   -2.7791358724    4.4633428801
C       -0.5892778526   -2.8066710728   -0.9035658621
C        0.6778693901   -0.8857940045   -0.0809309823
C        0.9007368410   -2.2779142843    3.6762465980
C        0.3824025402   -2.2515845875   -0.0691108931
C        0.2424255053   -3.1408198208    2.6472695217
O        1.0814233679   -4.7041441409    0.6394124676
O        2.5945241141   -2.7500344797    1.3262759343
S        1.2563484452   -3.3118220926    1.0927497639
H        2.6709887661    0.0060316259    6.2877768866
H       -1.5643758997    0.0609962427   -2.4638400803
H        0.8192598183    0.9113958527    4.8919061371
H        3.3908413224   -2.3592421757    6.0045210574
H       -2.0443596478   -2.3767399022   -2.4332997557
H        0.1860044745    1.0112369553   -0.9761648541
H       -0.3039604134   -0.5449135778    3.2260321421
H        2.2741521946   -3.8073910504    4.3315833787
H       -0.7718219985   -3.8766885897   -0.8805761439
H        1.4608607176   -0.4959431847    0.5625288127
H        0.1383031339   -4.1792943628    2.9724295965
H       -0.7336544213   -2.7686578197    2.3310925964
28   
torsion grid (-90,)
C        2.0319442187   -0.4309713348    5.2838470621
C       -0.8617825169   -0.4204973505   -1.5117274035
C        0.8919082549   -0.1144755165    4.5383325467
C        2.5939954524   -1.7094525486    5.1885548058
C       -1.2826421480   -1.7548643324   -1.5608088378
C        0.2073541747   -0.0437963782   -0.6907719206
C        0.3166265711   -1.0750372622    3.7020690172
C        2.0189241333   -2.6676712864    4.3527270733
C       -0.6418357784   -2.7210164302   -0.7804105782
C        0.8598284768   -0.9996247298    0.0926066248
C        0.8719027480   -2.3596674546    3.6069063030
C        0.4185840693   -2.3243291807    0.0369755915
C        0.2723661021   -3.3703981263    2.6807523574
O        0.8838829405   -4.8771516462    0.5642887241
O        2.6091832967   -3.1364069141    1.3205569898
S        1.2142186697   -3.5414913092    1.0941353818
H        2.4808164453    0.3138434719    5.9358814221
H       -1.3635905601    0.3260975478   -2.1216252348
H        0.4505664817    0.8762725382    4.6090410947
H        3.4831659977   -1.9573245508    5.7620410486
H       -2.1039141356   -2.0442640216   -2.2106631988
H        0.5377764181    0.9909463526   -0.6650981609
H       -0.5688126655   -0.8272160169    3.1207977512
H        2.4698884260   -3.6521349547    4.2638138118
H       -0.9371454728   -3.7653820467   -0.8120891930
H        1.7029863653   -0.7350525475    0.7231032606
H        0.3113904614   -4.3866253986    3.0839501383
H       -0.7562932741   -3.1447890582    2.3935801887
28   
torsion grid (-75,)
C        1.8615244701   -0.2721086130    4.9845351656
C       -0.6879508519   -0.2699164577   -1.2266767375
C        0.6493677684   -0.1501886291    4.2978855924
C        2.5683595067   -1.4796763786    4.9390261586
C       -1.2539667225   -1.5473154998   -1.3180037282
C        0.4609478163   -0.0570492376   -0.4564342244
C        0.1481487689   -1.2326274860    3.5698762317
C        2.0666174697   -2.5606293306    4.2123234103
C       -0.6774764670   -2.6191369223   -0.6312126823
C        1.0486634618   -1.1206299299    0.2335141952
C        0.8490731049   -2.4467444535    3.5251146012
C        0.4650793756   -2.3863733766    0.1375635087
C        0.3272063510   -3.5867856521    2.7063305997
O        0.7086358855   -5.0057274605    0.4828771451
O        2.6117995811   -3.4793720856    1.2744826161
S        1.1779281377   -3.7414142805    1.0776423576
H        2.2537132601    0.5677609177    5.5522126911
H       -1.1398081393    0.5600464858   -1.7635821346
H        0.0955328744    0.7844761144    4.3282444332
H        3.5130869126   -1.5771996150    5.4672020600
H       -2.1378281327   -1.7101434767   -1.9285919323
H        0.9017232869    0.9341011063   -0.3950948855
H       -0.7904362909   -1.1329868674    3.0296999524
H        2.6285877650   -3.4885664299    4.1589096760
H       -1.0858714952   -3.6228899107   -0.7001693323
H        1.9464896513   -0.9820986075    0.8271091939
H        0.5196139592   -4.5613435413    3.1654964441
H       -0.7372501064   -3.5094644816    2.4764397880
28   
torsion grid (-60,)
C        1.6547348620   -0.1277056126    4.6746119304
C       -0.4922092844   -0.1379149717   -0.9433697800
C        0.3868930903   -0.2065733622    4.0895310058
C        2.5032690047   -1.2408420240    4.6476637724
C       -1.2087320041   -1.3371711952   -1.0358088736
C        0.7308044778   -0.0928289491   -0.2645242726
C       -0.0273721692   -1.3930535313    3.4792614648
C        2.0872570516   -2.4271828998    4.0400063270
C       -0.7074510648   -2.4985724768   -0.4417581348
C        1.2427260390   -1.2468398365    0.3332744586
C        0.8161691616   -2.5129012354    3.4526335214
C        0.5109278161   -2.4325727186    0.2377310224
C        0.3880966972   -3.7624709824    2.7450477947
O        0.5201905071   -5.0862967426    0.4304031070
O        2.5869101778   -3.7789975759    1.2052902625
S        1.1266481918   -3.9031100927    1.0648114760
H        1.9801009276    0.7943283417    5.1494316322
H       -0.8857336147    0.7626270483   -1.4075798245
H       -0.2763278960    0.6542294771    4.1041575268
H        3.4905734730   -1.1834071590    5.0982493969
H       -2.1510007138   -1.3700542283   -1.5758217372
H        1.2856881561    0.8389065997   -0.1993328506
H       -1.0072556072   -1.4461713934    3.0105885988
H        2.7556737623   -3.2822506486    3.9977551083
H       -1.2341214845   -3.4453341424   -0.5161194036
H        2.1900068485   -1.2374964512    0.8624218729
H        0.7365435379   -4.6754555436    3.2371192815
H       -0.6916997346   -3.8270706073    2.5967639382
28   
torsion grid (-45,)
C        1.4205525853   -0.0259711976    4.3753572488
C       -0.2737048338   -0.0198992437   -0.6711411597
C        0.1245387983   -0.2981476542    3.9251035669
C        2.3960774971   -1.0287811601    4.3334430569
C       -1.1322490872   -1.1232988148   -0.7379594688
C        1.0063175829   -0.1504135738   -0.1201942425
C       -0.1915345323   -1.5655005544    3.4309542270
C        2.0787593154   -2.2967235386    3.8409829048
C       -0.7170740176   -2.3622199228   -0.2418107993
C        1.4326239623   -1.3833994501    0.3772715168
C        0.7815352802   -2.5737175714    3.3844424827
C        0.5589051199   -2.4707842029    0.3145641243
C        0.4606183138   -3.9056684029    2.7771871545
O        0.2983989874   -5.1239683258    0.3953199732
O        2.5315288551   -4.0639981805    1.0870295827
S        1.0589160474   -4.0378910771    1.0366328662
H        1.6688081302    0.9603903029    4.7585668123
H       -0.6008516574    0.9425892494   -1.0557471909
H       -0.6372466721    0.4763421883    3.9530829279
H        3.4043897527   -0.8223693853    4.6826049235
H       -2.1193290981   -1.0215958008   -1.1806543546
H        1.6714638946    0.7073516144   -0.0746638615
H       -1.1950121686   -1.7679462137    3.0642440449
H        2.8418838716   -3.0680912462    3.7844325094
H       -1.3589124354   -3.2364481204   -0.2970210183
H        2.4197814598   -1.5085084394    0.8090839106
H        0.9651130262   -4.7405294139    3.2712898326
H       -0.6118374454   -4.1047489124    2.7311463443
28   
torsion grid (-30,)
C        1.2155245687    0.0365251603    4.1840954149
C       -0.0839341659    0.0557550253   -0.4945402556
C       -0.0632047869   -0.3917287598    3.8111971783
C        2.2864738084   -0.8629868005    4.1504975734
C       -1.0403246231   -0.9647963228   -0.5330886989
C        1.2146662385   -0.2079694293   -0.0433189536
C       -0.2672346606   -1.7101590842    3.4003327490
C        2.0805990174   -2.1812574836    3.7367558740
C       -0.7062050626   -2.2514187914   -0.1015393520
C        1.5613724734   -1.4909173982    0.3833601206
C        0.8030189870   -2.6147855132    3.3535631915
C        0.5893160483   -2.4929384434    0.3586356880
C        0.6081428565   -3.9990105238    2.8161231619
O        0.0549515772   -5.1039235436    0.4233080853
O        2.4481796338   -4.2971784843    0.8928745956
S        0.9876705121   -4.1225247951    1.0026941258
H        1.3753192362    1.0634380079    4.5021807433
H       -0.3483904971    1.0569494010   -0.8246194686
H       -0.8993011288    0.3019866317    3.8353360900
H        3.2812695298   -0.5373707553    4.4430685523
H       -2.0425154573   -0.7611036465   -0.9002104086
H        1.9569568401    0.5850077690   -0.0220221599
H       -1.2597297351   -2.0337952172    3.0966370037
H        2.9165817932   -2.8744905031    3.6881773998
H       -1.4283531074   -3.0618442632   -0.1296417629
H        2.5630993884   -1.7189300931    0.7303246979
H        1.2874069965   -4.7331826667    3.2554249999
H       -0.4226625284   -4.3457672668    2.9111383931
28   
torsion grid (-15,)
C        1.0251716200    0.0598763329    4.1394475114
C        0.0857513664    0.0950282927   -0.4537555499
C       -0.2192382368   -0.4900311037    3.8117154563
C        2.1729289827   -0.7371261997    4.0826453382
C       -0.9630339824   -0.8303042008   -0.4284921176
C        1.3785446239   -0.2895035965   -0.0790184310
C       -0.3136656255   -1.8270760013    3.4231444108
C        2.0768559457   -2.0735333760    3.6875986353
C       -0.7270283817   -2.1415271027   -0.0072449631
C        1.6283323532   -1.5993086913    0.3334238007
C        0.8343938757   -2.6291177562    3.3496656576
C        0.5656121960   -2.5038894633    0.3740021013
C        0.7534572999   -4.0353418964    2.8427083505
O       -0.2715838390   -5.0209947749    0.5473430449
O        2.2469396790   -4.5255505246    0.6650531009
S        0.8507116003   -4.1712600459    0.9824000329
H        1.0983673655    1.1013662474    4.4412614097
H       -0.1021824115    1.1164232267   -0.7741931063
H       -1.1148298592    0.1238682720    3.8557122486
H        3.1415403825   -0.3180223685    4.3421505569
H       -1.9619820241   -0.5329808693   -0.7356481755
H        2.1922796380    0.4297072270   -0.1089819061
H       -1.2814293288   -2.2466995279    3.1594009154
H        2.9719322714   -2.6882105193    3.6277024207
H       -1.5221994726   -2.8802999715    0.0176678679
H        2.6256693391   -1.9209287483    0.6133813656
H        1.5862366656   -4.6570651589    3.1761500031
H       -0.1947376007   -4.5158331765    3.0914608742
28   
torsion grid (0,)
C        0.7455994530    0.0498991256    4.2180250797
C        0.3406670652    0.1200369084   -0.5237714593
C       -0.4415928896   -0.6610221810    4.0110092132
C        1.9769920778   -0.5772499932    4.0024317771
C       -0.8053865994   -0.6527871245   -0.3079610003
C        1.6117309842   -0.4220470960   -0.3019164189
C       -0.3965391164   -1.9896289381    3.5853758265
C        2.0195541782   -1.9056959492    3.5738592992
C       -0.6863711404   -1.9685097113    0.1456602302
C        1.7429243664   -1.7375480955    0.1472240329
C        0.8340941768   -2.6229817578    3.3589480394
C        0.5884322375   -2.4896961657    0.3706748937
C        0.8829600126   -4.0270165753    2.8424712730
O       -0.5238436549   -4.8706670053    0.7034214869
O        2.0330910939   -4.7081707911    0.5058679748
S        0.7447578972   -4.1732392603    0.9829687888
H        0.7109300354    1.0843448854    4.5494524070
H        0.2438350732    1.1444473214   -0.8736814381
H       -1.4012951299   -0.1798979054    4.1799883646
H        2.9027123838   -0.0320054139    4.1663762210
H       -1.7902229477   -0.2331604868   -0.4938688958
H        2.4998807635    0.1774037869   -0.4816620966
H       -1.3209083547   -2.5380492574    3.4190606882
H        2.9781979467   -2.3891009292    3.3998814452
H       -1.5593456398   -2.5924746545    0.3089613190
H        2.7195883431   -2.1834902071    0.3058941967
H        1.8293630216   -4.5229272726    3.0639267004
H        0.0498615060   -4.6349552830    3.2002452547
28   
torsion grid (15,)
C        0.7728198373   -3.5344656683    4.2319459552
C       -0.1733355283   -3.6382392700   -0.3596874726
C        2.0186809155   -2.9052448880    4.1442737824
C       -0.3856558111   -2.8340698469    3.8773335869
C        1.1609262800   -3.4178963184    0.0019563241
C       -1.0861618632   -2.5783800210   -0.3764593957
C        2.1050731694   -1.5864615212    3.6919250746
C       -0.2975664070   -1.5146012673    3.4314336765
C        1.5880651057   -2.1380505037    0.3592630790
C       -0.6724610229   -1.2948835987   -0.0105118286
C        0.9492394187   -0.8811763131    3.3269208377
C        0.6586571440   -1.0961959853    0.3585818638
C        1.0599663668    0.4998960104    2.7599393809
O        2.6011125839    0.6875465384    0.5685396348
O        0.1735372882    1.5166740940    0.4208525698
S        1.1703701019    0.5411850791    0.8959047381
H        0.7037370857   -4.5622444191    4.5784233557
H       -0.4996586908   -4.6371299797   -0.6371376684
H        2.9216311126   -3.4414048363    4.4242975818
H       -1.3566612877   -3.3172302981    3.9451338110
H        1.8690201361   -4.2418658175    0.0046404198
H       -2.1172416760   -2.7495569511   -0.6734665722
H        3.0756265420   -1.1031398454    3.6082337623
H       -1.1996140035   -0.9782243456    3.1471210295
H        2.6207601073   -1.9437399900    0.6281090044
H       -1.3594749316   -0.4542624529   -0.0192334200
H        0.1868840077    1.1155956179    2.9846404366
H        1.9706770716    1.0157244761    3.0693385274
28   
torsion grid (30,)
C        0.9643817723   -3.5351875082    4.2750170818
C       -0.3383140947   -3.5773494000   -0.3944745103
C        2.1443913571   -2.7866654740    4.2076782545
C       -0.2480321717   -2.9581494483    3.8818108418
C        0.9865883581   -3.4674646107    0.0436376750
C       -1.1539376569   -2.4432469896   -0.4744473168
C        2.1128700043   -1.4707230682    3.7401993655
C       -0.2784725641   -1.6421296471    3.4172060247
C        1.5010418626   -2.2245166373    0.4161475177
C       -0.6521003862   -1.1946184987   -0.0975605754
C        0.9018024522   -0.8896100991    3.3366381054
C        0.6671087914   -1.1066755487    0.3503605806
C        0.8897182825    0.4850119984    2.7424838565
O        2.7488896706    0.4571747033    0.8144400158
O        0.4821743769    1.5523918833    0.3033588252
S        1.2784198022    0.4817200823    0.9266093230
H        0.9886340131   -4.5604290587    4.6349484611
H       -0.7333979697   -4.5481648912   -0.6820448701
H        3.0884326603   -3.2283386310    4.5158036807
H       -1.1679634248   -3.5344066048    3.9320301228
H        1.6190108967   -4.3491946812    0.0969827026
H       -2.1765898142   -2.5294527297   -0.8313788922
H        3.0325498606   -0.8959082142    3.6653911641
H       -1.2206134836   -1.2032658455    3.0981105856
H        2.5260826544   -2.1150023788    0.7526629839
H       -1.2623165525   -0.2985061290   -0.1587305778
H       -0.0860747485    0.9683896214    2.8199359918
H        1.6612447719    1.1403902617    3.1530396991
28   
torsion grid (45,)
C        1.1763079527   -3.4943721915    4.4652668403
C       -0.5153701715   -3.4830289856   -0.5826274373
C        2.2797105959   -2.6371244282    4.3836143212
C       -0.0717333524   -3.0671748448    4.0001346656
C        0.7722635860   -3.5050704512   -0.0344016090
C       -1.2159393737   -2.2768509830   -0.6983393602
C        2.1368357926   -1.3599381187    3.8365782653
C       -0.2132879154   -1.7907564454    3.4515263599
C        1.3645361943   -2.3220631376    0.4117645115
C       -0.6345574160   -1.0860882690   -0.2540050598
C        0.8883131345   -0.9279503107    3.3647867313
C        0.6460877966   -1.1299106441    0.3005880624
C        0.7506514770    0.4082208671    2.7001896262
O        2.8195066857    0.2111324086    1.0111528454
O        0.7495132283    1.5343659680    0.2676937499
S        1.3568918072    0.3834681651    0.9574118428
H        1.2885480041   -4.4881860329    4.8908491379
H       -0.9717794269   -4.4073631325   -0.9270526193
H        3.2514076762   -2.9642658715    4.7441845736
H       -0.9320668238   -3.7284624929    4.0589398186
H        1.3143740646   -4.4428339581    0.0489671470
H       -2.2090655785   -2.2618700278   -1.1389189350
H        2.9979749458   -0.7031419183    3.7493792777
H       -1.1807948671   -1.4689222067    3.0736605138
H        2.3609232218   -2.3143600433    0.8404352007
H       -1.1513800540   -0.1355897743   -0.3476873817
H       -0.2846410683    0.7499095561    2.6423963157
H        1.3658797812    1.1863883969    3.1601509599
28   
torsion grid (60,)
C        1.4236097177   -3.4122031768    4.7598528455
C       -0.7171497105   -3.3486631560   -0.8605097687
C        2.4164433197   -2.4277844914    4.6892069381
C        0.1768152822   -3.1866070052    4.1677064959
C        0.4900839351   -3.5312763485   -0.1765250039
C       -1.2633514113   -2.0677332390   -1.0056641033
C        2.1637351222   -1.2229671028    4.0302485405
C       -0.0737388309   -1.9818645962    3.5062272325
C        1.1559671477   -2.4333590398    0.3733910800
C       -0.6067893906   -0.9613744976   -0.4597925585
C        0.9147844603   -0.9898299103    3.4353824344
C        0.5930205375   -1.1637524147    0.2257474781
C        0.6594900903    0.2753803877    2.6741891435
O        2.8358440638   -0.0738610561    1.1421448089
O        0.9653268031    1.4698052581    0.3061408120
S        1.4059137309    0.2426607856    0.9918787297
H        1.6212595884   -4.3490275541    5.2743760169
H       -1.2311468966   -4.2058983764   -1.2874621774
H        3.3877826459   -2.6000540180    5.1452248927
H       -0.5973131293   -3.9477871789    4.2166311121
H        0.9129551618   -4.5263384368   -0.0701420118
H       -2.1937732716   -1.9294525491   -1.5494990294
H        2.9421591485   -0.4693569712    3.9540072585
H       -1.0383419002   -1.8156479647    3.0323306908
H        2.0944902439   -2.5494895616    0.9054658796
H       -0.9996668523    0.0443168417   -0.5759119977
H       -0.4017949331    0.4801974197    2.5198222262
H        1.1303748252    1.1524002530    3.1283025620
28   
torsion grid (75,)
C        1.6463138144   -3.2877350694    5.0642300553
C       -0.8917375099   -3.2053371223   -1.1491738096
C        2.5131859823   -2.1926883769    4.9672869104
C        0.4256247301   -3.2699593653    4.3821745743
C        0.2189786932   -3.5400400834   -0.3663782130
C       -1.2781502721   -1.8675914961   -1.2962661415
C        2.1631682784   -1.0844243710    4.1942853324
C        0.0761587405   -2.1604486556    3.6077242240
C        0.9467470955   -2.5370976448    0.2794948896
C       -0.5601495197   -0.8554490350   -0.6536555663
C        0.9381306575   -1.0581344740    3.5114409504
C        0.5416915131   -1.2085631255    0.1285079961
C        0.5748434479    0.1068776579    2.6436219288
O        2.8205402559   -0.3708755463    1.2256175430
O        1.1407952305    1.3651292604    0.3636134302
S        1.4351254696    0.0751125410    1.0129181150
H        1.9212990049   -4.1486974036    5.6680383331
H       -1.4537323760   -3.9878811418   -1.6522335598
H        3.4648360395   -2.2046453951    5.4918750147
H       -0.2522561567   -4.1166322278    4.4520334467
H        0.5210074258   -4.5783916443   -0.2612155126
H       -2.1328430395   -1.6120809225   -1.9165381230
H        2.8480625991   -0.2465368026    4.1016606611
H       -0.8696943277   -2.1520325498    3.0711212709
H        1.8185205778   -2.7711470413    0.8818126216
H       -0.8284544472    0.1906375611   -0.7668312247
H       -0.4906745308    0.1657557732    2.4130878884
H        0.8991499064    1.0645126552    3.0623983884
28   
torsion grid (90,)
C        1.8431367337   -3.1254426011    5.3635808750
C       -1.0411718366   -3.0383537944   -1.4369256638
C        2.5707423780   -1.9377984008    5.2241651520
C        0.6760784233   -3.3173929544    4.6173324968
C       -0.0308723235   -3.5245223366   -0.5991939080
C       -1.2721552101   -1.6616423587   -1.5437806748
C        2.1344711779   -0.9463537666    4.3441637929
C        0.2398051627   -2.3236951696    3.7369726959
C        0.7515787312   -2.6355368800    0.1428397708
C       -0.4992198097   -0.7616658980   -0.8050043321
C        0.9618419865   -1.1291409994    3.5971763647
C        0.4996601793   -1.2656895473    0.0305314996
C        0.5098140034   -0.0870832016    2.6232754776
O        2.7860114509   -0.7156709990    1.2864650562
O        1.3254126490    1.2162403437    0.4415494926
S        1.4628014875   -0.1267645264    1.0343501036
H        2.1843865459   -3.8960235498    6.0499821996
H       -1.6449151138   -3.7332029644   -2.0147425163
H        3.4810648479   -1.7869960883    5.7981852191
H        0.1059573605   -4.2368525001    4.7218451563
H        0.1527344061   -4.5930883554   -0.5284110559
H       -2.0481411835   -1.2886758298   -2.2065771201
H        2.7133798360   -0.0350429222    4.2219212971
H       -0.6671076616   -2.4749993480    3.1556910395
H        1.5527148991   -2.9876357616    0.7851791764
H       -0.6464457772    0.3112508005   -0.8826902077
H       -0.5414195718   -0.1752004666    2.3429325457
H        0.6965649331    0.9304139986    2.9790449676
28   
torsion grid (105,)
C        1.9988254953   -2.9653651220    5.6469977199
C       -1.1751044077   -2.8541785103   -1.7035318931
C        2.5825288794   -1.7100455292    5.4414391602
C        0.9004327537   -3.3561163615    4.8745211080
C       -0.2589411822   -3.4891022445   -0.8568633032
C       -1.2700081013   -1.4577926618   -1.7253583788
C        2.0708374897   -0.8493778025    4.4692538919
C        0.3891721777   -2.4931452231    3.9018183876
C        0.5642598990   -2.7302589638   -0.0205086126
C       -0.4550551386   -0.6866755562   -0.8916373771
C        0.9666069170   -1.2320220823    3.6946113608
C        0.4472836067   -1.3381791631   -0.0487421656
C        0.4363733097   -0.3273358908    2.6283513997
O        2.7084709847   -1.1016051450    1.3368179207
O        1.4873850051    1.0174951406    0.5629093660
S        1.4634854727   -0.3657735956    1.0735400027
H        2.3981103723   -3.6344094734    6.4048213378
H       -1.8107811313   -3.4485478787   -2.3545100831
H        3.4391596447   -1.4043939177    6.0361423551
H        0.4420259942   -4.3291260817    5.0309502174
H       -0.1792194914   -4.5727290053   -0.8536459590
H       -1.9726441667   -0.9692470911   -2.3948276591
H        2.5371791872    0.1179154331    4.3004258359
H       -0.4656319665   -2.7980583184    3.3016462767
H        1.2976822754   -3.1985562300    0.6290036226
H       -0.4970677555    0.3982216190   -0.9011972199
H       -0.5825765122   -0.5703989956    2.3219708459
H        0.4802942337    0.7277510813    2.9109028579
28   
torsion grid (120,)
C        2.1390188618   -2.7587912782    5.8907276956
C       -1.2879981941   -2.6505541802   -1.9422678921
C        2.5602186326   -1.4537302970    5.6121653192
C        1.1385445216   -3.3479018196    5.1108809346
C       -0.4750811547   -3.4320905842   -1.1126081021
C       -1.2468385520   -1.2540437251   -1.8609388093
C        1.9830322113   -0.7410534726    4.5599178053
C        0.5632832040   -2.6333346491    4.0574522950
C        0.3786530372   -2.8202417500   -0.1909019008
C       -0.3988857109   -0.6295463852   -0.9414449580
C        0.9773487828   -1.3240773686    3.7759517347
C        0.3978025573   -1.4252028194   -0.1160888046
C        0.3823746070   -0.5734961443    2.6271622769
O        2.5972743375   -1.5374056872    1.3614228735
O        1.6760674668    0.7587774738    0.6802180937
S        1.4634561750   -0.6376693714    1.1033098476
H        2.5882310584   -3.3130546887    6.7106591343
H       -1.9478500615   -3.1307806333   -2.6599620557
H        3.3400067259   -0.9934516641    6.2130175398
H        0.8070775710   -4.3608648088    5.3237283015
H       -0.4986323272   -4.5156520048   -1.1898279694
H       -1.8684842095   -0.6510716171   -2.5170827072
H        2.3203294185    0.2686285645    4.3378340891
H       -0.2134565565   -3.0939320056    3.4504739567
H        1.0367997465   -3.4044799050    0.4452927455
H       -0.3351159279    0.4521509439   -0.8723770055
H       -0.5880624342   -0.9704662119    2.3235363061
H        0.2889209243    0.4978248839    2.8177205414
28   
torsion grid (135,)
C        2.2482222613   -2.5164480897    6.0822645533
C       -1.3634655068   -2.4250645002   -2.1280412407
C        2.4870449150   -1.1829110773    5.7331434618
C        1.3863068739   -3.2961344792    5.3036401469
C       -0.6588127139   -3.3457007489   -1.3431253842
C       -1.1867980956   -1.0499937516   -1.9379880365
C        1.8640406194   -0.6314542462    4.6117372120
C        0.7665878678   -2.7434717735    4.1810433334
C        0.2215782360   -2.8951447554   -0.3560456718
C       -0.3095920961   -0.5863917462   -0.9531180862
C        0.9959277743   -1.4064588431    3.8294530979
C        0.3767189752   -1.5189033145   -0.1727658096
C        0.3555500019   -0.8226951990    2.6090925570
O        2.4687584139   -1.9957051042    1.3697321080
O        1.8985429227    0.4401645654    0.7941225208
S        1.4807398535   -0.9340867216    1.1249613606
H        2.7319959275   -2.9460690356    6.9555826251
H       -2.0448823541   -2.7808197437   -2.8962781518
H        3.1589196329   -0.5744574239    6.3326285639
H        1.1995047960   -4.3331073948    5.5700164298
H       -0.7872131961   -4.4123345109   -1.5057057526
H       -1.7244564110   -0.3394690459   -2.5597636462
H        2.0578264736    0.4022299706    4.3349996493
H        0.1036120073   -3.3540971291    3.5720897988
H        0.7986682411   -3.5890255069    0.2477777856
H       -0.1392631013    0.4752428438   -0.8011671291
H       -0.5559783071   -1.3556308978    2.3303860479
H        0.1398054002    0.2434762161    2.6991840748
28   
torsion grid (150,)
C        2.3426117725   -2.2757029788    6.1852494899
C       -1.4183920747   -2.1918714683   -2.2903433077
C        2.3901248200   -0.9447811108    5.7575798390
C        1.6355469401   -3.2229144889    5.4364223395
C       -0.8287898425   -3.2362928315   -1.5681199622
C       -1.1099196232   -0.8607988573   -1.9884020320
C        1.7284687536   -0.5627549526    4.5881520185
C        0.9776884410   -2.8392696703    4.2664914507
C        0.0665990091   -2.9540606313   -0.5332066264
C       -0.2153883150   -0.5655159521   -0.9555125731
C        1.0116761081   -1.5055304355    3.8372156131
C        0.3544939992   -1.6194122899   -0.2380810927
C        0.3291163112   -1.0981067477    2.5674545303
O        2.3175400026   -2.4399940087    1.3275728300
O        2.0764911216    0.0773211178    0.8862022047
S        1.4791224166   -1.2490959316    1.1192782062
H        2.8557709572   -2.5740938657    7.0957448145
H       -2.1121820263   -2.4165629015   -3.0961104359
H        2.9426173379   -0.2063791918    6.3325390417
H        1.6013261872   -4.2593137484    5.7617048796
H       -1.0585427878   -4.2688425549   -1.8163980608
H       -1.5580398823   -0.0536068712   -2.5611986875
H        1.7749944040    0.4692349974    4.2491625847
H        0.4429368565   -3.5798718781    3.6770339023
H        0.5555139247   -3.7470106403    0.0245185585
H        0.0574121342    0.4589905916   -0.7201891889
H       -0.5198344574   -1.7447816154    2.3341940867
H        0.0056356467   -0.0555518204    2.5635301566
28   
torsion grid (165,)
C        2.4144246579   -2.0391759965    6.2465488250
C       -1.4265822310   -1.9546653930   -2.3863359820
C        2.2909119700   -0.7486418889    5.7211622978
C        1.8398089639   -3.1238443702    5.5749001220
C       -0.9606929960   -3.0995680274   -1.7290755087
C       -1.0021319949   -0.6843375437   -1.9808628841
C        1.5896651397   -0.5437129465    4.5306457137
C        1.1405123611   -2.9184473377    4.3840373002
C       -0.0734442296   -2.9796493592   -0.6563081622
C       -0.1147915695   -0.5512902849   -0.9090466194
C        1.0025719953   -1.6258816879    3.8591541720
C        0.3317143706   -1.7034167516   -0.2580212112
C        0.2778119291   -1.4069951732    2.5653940847
O        2.1772307497   -2.8101156167    1.2837589480
O        2.1611535841   -0.2555292207    1.0304288019
S        1.4482016991   -1.5390975818    1.1449459134
H        2.9592237665   -2.1997411786    7.1732755459
H       -2.1143835650   -2.0536017253   -3.2219488978
H        2.7420979193    0.0956641902    6.2355967790
H        1.9411980511   -4.1288392426    5.9758738213
H       -1.2805831791   -4.0847575223   -2.0571123576
H       -1.3543222075    0.2009791091   -2.5030248919
H        1.5063133576    0.4561839651    4.1126318385
H        0.7113284572   -3.7635107875    3.8522217161
H        0.3214923478   -3.8541871894   -0.1481422963
H        0.2475634464    0.4224979206   -0.5932324960
H       -0.4853946200   -2.1678817093    2.3852053275
H       -0.1685378996   -0.4138672785    2.4831815740
28   
torsion grid (180,)
C        2.4489818953   -1.8086530191    6.2625654613
C       -1.4256314425   -1.7227560384   -2.4203892437
C        2.1753368786   -0.5889733586    5.6341978788
C        2.0032157982   -3.0037973934    5.6879241406
C       -1.0685687391   -2.9531979572   -1.8568197923
C       -0.9004767177   -0.5306448945   -1.9083784109
C        1.4540333936   -0.5642540096    4.4385581912
C        1.2820145728   -2.9783310167    4.4922299437
C       -0.1895586056   -2.9971763067   -0.7712656376
C       -0.0206127573   -0.5618321329   -0.8230481386
C        0.9939457598   -1.7580143415    3.8645516517
C        0.3171813745   -1.7974925338   -0.2661050277
C        0.2455484927   -1.7335638034    2.5654913718
O        2.0539859320   -3.1731677298    1.2006236287
O        2.2297248466   -0.6127746776    1.1468890792
S        1.4225292096   -1.8439958711    1.1538289609
H        3.0100557409   -1.8279569237    7.1933035325
H       -2.1073278742   -1.6934773045   -3.2662791889
H        2.5270624538    0.3411375380    6.0726540772
H        2.2207673500   -3.9541542580    6.1680926808
H       -1.4667258775   -3.8772229696   -2.2668876938
H       -1.1686050118    0.4211825236   -2.3585198791
H        1.2575387821    0.3814218681    3.9404886353
H        0.9517891479   -3.9076051122    4.0357128403
H        0.1218367778   -3.9411262485   -0.3340488839
H        0.4191727128    0.3479091795   -0.4253552975
H       -0.4297213553   -2.5844564990    2.4500138159
H       -0.3071104053   -0.8036485727    2.4131844120
