12   
torsion grid (-45,)
C       -0.0872209641   -0.9668769104    0.4958758112
C       -0.5020944477   -1.2154015383    1.8015119807
C       -0.1152465496   -3.2223033657    1.1912509487
C       -0.0382981903    0.2439709407   -0.3064063469
N       -0.3527332568   -2.5434121382    2.2735017533
N       -0.9759236047    1.0997663339   -0.5305081437
O       -2.1742148520    0.7632820074    0.1019126121
S        0.9764848400   -2.3616467480    0.0983888759
Cl      -1.2021223843   -0.0659783951    2.8674905637
Cl      -0.0756949746   -4.9603998536    1.2084430857
H        0.8796309251    0.4609103717   -0.8501086386
H       -2.7671439581    1.4859828861   -0.1628254530
12   
torsion grid (-30,)
C       -0.1089041776   -0.9751103239    0.4931841267
C       -0.5555040884   -1.2373841239    1.7775845610
C       -0.0829042950   -3.2742056548    1.2086179760
C       -0.0333939726    0.2560065895   -0.2852189604
N       -0.4291434890   -2.5430406573    2.2254597947
N       -0.9585354061    1.1245389914   -0.5053788735
O       -2.1739906324    0.7824051366    0.0868081311
S        0.8124104172   -2.4012878465   -0.0217547208
Cl      -1.2171323692   -0.0715903056    2.8580557043
Cl       0.0590999420   -4.9961098773    1.3105637159
H        0.8999639417    0.4835173275   -0.7973376936
H       -2.7510230359    1.5233070014   -0.1624154480
12   
torsion grid (-15,)
C       -0.1283594731   -0.9850374804    0.4930195593
C       -0.6020423548   -1.2540111102    1.7603221015
C       -0.0576933624   -3.3020784770    1.2362289516
C       -0.0260477743    0.2613550259   -0.2655520243
N       -0.5081634207   -2.5537094297    2.1947779400
N       -0.9432114136    1.1354614997   -0.4922042585
O       -2.1756306418    0.7836519504    0.0544514082
S        0.6375478990   -2.4470661553   -0.1194282382
Cl      -1.2348068084   -0.0745048698    2.8480943558
Cl       0.1359966077   -5.0112780335    1.3807529723
H        0.9244318859    0.5002354273   -0.7393175431
H       -2.7413035128    1.5357240545   -0.1874662305
12   
torsion grid (0,)
C       -0.1307889159   -0.9909299323    0.4941744106
C       -0.6311226239   -1.2637826374    1.7484598030
C       -0.0020781752   -3.3026747770    1.2726638053
C       -0.0117156220    0.2619268239   -0.2554343758
N       -0.5630661561   -2.5644823843    2.1777844860
N       -0.9214930277    1.1420656727   -0.4871684157
O       -2.1639383316    0.7912822293    0.0333243566
S        0.4867169599   -2.4846853543   -0.1885752375
Cl      -1.2435353539   -0.0759127659    2.8412200099
Cl       0.2465350609   -5.0007947841    1.4496484823
H        0.9484169942    0.5018650268   -0.7085868048
H       -2.7203664120    1.5512464385   -0.2056939332
12   
torsion grid (15,)
C       -0.1368877617   -0.9936500307    0.4917889666
C       -0.6654355169   -1.2782082721    1.7321369658
C        0.0596008093   -3.2886964281    1.2843777327
C       -0.0026081695    0.2642303279   -0.2484364499
N       -0.6155905876   -2.5896436528    2.1426828028
N       -0.8985522654    1.1611140174   -0.4707289801
O       -2.1463391689    0.8257050526    0.0442752803
S        0.3363855882   -2.5114654863   -0.2581237473
Cl      -1.2603023716   -0.0990440435    2.8430768773
Cl       0.3737962046   -4.9760082736    1.4784825914
H        0.9609947706    0.4930502897   -0.6997672661
H       -2.6898520442    1.5975922407   -0.1864448867
12   
torsion grid (30,)
C       -0.1457681835   -1.0029192562    0.4862779405
C       -0.7131447847   -1.3013297793    1.7103115665
C        0.1189440066   -3.2587085512    1.2946081124
C        0.0051605971    0.2563660499   -0.2469280456
N       -0.6764775976   -2.6327081507    2.1081416193
N       -0.8705546099    1.1766980055   -0.4569822088
O       -2.1224605317    0.8704383407    0.0638751240
S        0.1864794604   -2.5465513357   -0.3119936799
Cl      -1.2960655547   -0.1376731748    2.8407869959
Cl       0.5260374352   -4.9301021171    1.5055227336
H        0.9697943443    0.4644826674   -0.7061084671
H       -2.6482723457    1.6563376662   -0.1608968623
12   
torsion grid (45,)
C       -0.1603402305   -1.0085620649    0.4714379173
C       -0.7847351878   -1.3258203960    1.6698881476
C        0.1760560972   -3.1959807996    1.3080301850
C        0.0070137465    0.2439562089   -0.2637126402
N       -0.7464349570   -2.6937472621    2.0700296143
N       -0.8347753771    1.2017260667   -0.4507147162
O       -2.0835301387    0.9525727828    0.1051091499
S        0.0567792524   -2.5851645546   -0.3528321478
Cl      -1.3630334903   -0.1914577647    2.8263266082
Cl       0.7573169285   -4.8197229522    1.5552456335
H        0.9638717025    0.4111692307   -0.7549303810
H       -2.5824719226    1.7572190969   -0.1149480991
