43
0 1 C16H21N3O3
C                    -1.762974420006    -3.565144054072     4.822560405568
C                    -1.585116779435    -4.457346938546     3.743484457721
C                    -2.241591976178    -2.274821547995     4.600953129064
C                    -1.891373099969    -4.094047526662     2.431172733502
C                    -2.539806554686    -1.901581727421     3.286908645820
C                    -2.385033021072    -2.801889130213     2.223685556012
C                    -2.999151339259    -0.623376400490     2.721537904734
C                    -2.810878993755     0.274583614530    -0.843607070106
C                     0.768424964040     0.274439699496    -1.328177954566
C                    -0.622126441584     0.768479432250    -1.777036981582
C                    -0.933724716100     1.063954301586     0.638443583833
C                     0.069031780977    -0.032074441467     1.076086975041
C                     0.679712865635    -0.731320460347    -0.168851965214
C                     1.093044993226     0.591367793960     2.031300402893
C                     2.032360821106    -1.388872268125     0.106554641589
C                    -3.688654089127     0.009938826451     0.388660954678
N                    -2.789591162964    -2.211605059430     1.013584013152
N                    -3.069823532547    -0.862449070288     1.358132628546
N                    -1.555753127606     0.774082011300    -0.648034201095
O                    -3.257483905774     0.457732413363     3.258479536821
O                    -3.255471767640     0.018328349031    -1.965559278649
O                    -0.268040856914    -1.786530875834    -0.513714784869
H                    -1.521056470182    -3.891368400391     5.830092414757
H                    -1.205104268455    -5.456698047979     3.939678575485
H                    -2.376920173505    -1.566250500603     5.413225431025
H                    -1.760117360495    -4.789536630768     1.607075987937
H                     1.284302448542    -0.174614546285    -2.185513617218
H                     1.394960742981     1.112360691680    -1.002453368496
H                    -0.545994012624     1.773830543401    -2.210850854902
H                    -1.048574231634     0.119576443886    -2.541399563303
H                    -1.682748022140     1.232642719291     1.410365372048
H                    -0.393692488016     2.013791320728     0.525323144252
H                    -0.466865085959    -0.809443241215     1.625142870508
H                     1.735596547995     1.319038863050     1.521347507065
H                     1.732294090609    -0.160873920249     2.499255482778
H                     0.568515540706     1.121137132761     2.833335602376
H                     1.955646387174    -2.084479526919     0.947189836605
H                     2.807539737386    -0.651284433982     0.331017448282
H                     2.359157070403    -1.955012729215    -0.773728965432
H                    -4.614547448185    -0.430567503427     0.010670075271
H                    -3.924653879780     0.934183560368     0.923669613541
H                    -2.051911860540    -2.231632612360     0.298845579998
H                     0.012881887842    -2.185033134894    -1.353824157657
