
  -OEChem-05262117483D

 33 35  0     0  0  0  0  0  0999 V2000
    1.6016   -0.3842   -0.1799 C   0  0  0  0  0  0  0  0  0  0  0  0
    0.5477    0.1257    0.5607 C   0  0  0  0  0  0  0  0  0  0  0  0
    2.5293   -1.2580    0.4135 C   0  0  0  0  0  0  0  0  0  0  0  0
   -2.5037    0.3423    6.4203 C   0  0  0  0  0  0  0  0  0  0  0  0
   -3.2323    0.4741    7.5859 C   0  0  0  0  0  0  0  0  0  0  0  0
    0.3839   -0.2203    1.9221 C   0  0  0  0  0  0  0  0  0  0  0  0
    2.3792   -1.6055    1.7501 C   0  0  0  0  0  0  0  0  0  0  0  0
    1.3081   -1.0933    2.5206 C   0  0  0  0  0  0  0  0  0  0  0  0
   -2.9634    1.0547    5.2980 C   0  0  0  0  0  0  0  0  0  0  0  0
   -4.3688    1.3028    7.5647 C   0  0  0  0  0  0  0  0  0  0  0  0
   -2.2262    0.9529    4.0241 C   0  0  0  0  0  0  0  0  0  0  0  0
   -0.7376    0.3355    2.6712 C   0  0  0  0  0  0  0  0  0  0  0  0
   -5.2275    1.5031    8.7853 C   0  0  0  0  0  0  0  0  0  0  0  0
    4.3192   -3.0230    1.7847 C   0  0  0  0  0  0  0  0  0  0  0  0
   -4.0525    1.8339    5.3253 N   0  0  0  0  0  0  0  0  0  0  0  0
   -4.7494    1.9561    6.4533 N   0  0  0  0  0  0  0  0  0  0  0  0
   -1.0932    0.1711    3.9196 N   0  0  0  0  0  0  0  0  0  0  0  0
   -2.5701    1.5745    2.9155 N   0  0  0  0  0  0  0  0  0  0  0  0
   -1.5802    1.1673    2.0057 O   0  0  0  0  0  0  0  0  0  0  0  0
    1.2007   -1.4600    3.8220 O   0  0  0  0  0  0  0  0  0  0  0  0
    3.2042   -2.4459    2.4632 O   0  0  0  0  0  0  0  0  0  0  0  0
    1.7161   -0.1106   -1.2242 H   0  0  0  0  0  0  0  0  0  0  0  0
   -0.1681    0.7995    0.1040 H   0  0  0  0  0  0  0  0  0  0  0  0
    3.3514   -1.6526   -0.1734 H   0  0  0  0  0  0  0  0  0  0  0  0
   -1.6142   -0.2741    6.3436 H   0  0  0  0  0  0  0  0  0  0  0  0
   -2.9435   -0.0432    8.4975 H   0  0  0  0  0  0  0  0  0  0  0  0
   -4.6321    1.8683    9.6291 H   0  0  0  0  0  0  0  0  0  0  0  0
   -6.0156    2.2255    8.5671 H   0  0  0  0  0  0  0  0  0  0  0  0
   -5.6908    0.5595    9.0947 H   0  0  0  0  0  0  0  0  0  0  0  0
    4.8297   -3.6443    2.5209 H   0  0  0  0  0  0  0  0  0  0  0  0
    5.0025   -2.2459    1.4233 H   0  0  0  0  0  0  0  0  0  0  0  0
    3.9876   -3.6454    0.9457 H   0  0  0  0  0  0  0  0  0  0  0  0
    1.9452   -2.0625    4.0078 H   0  0  0  0  0  0  0  0  0  0  0  0
  1  2  1  0  0  0  0
  1  3  2  0  0  0  0
  1 22  1  0  0  0  0
  2  6  2  0  0  0  0
  2 23  1  0  0  0  0
  3  7  1  0  0  0  0
  3 24  1  0  0  0  0
  4  5  2  0  0  0  0
  4  9  1  0  0  0  0
  4 25  1  0  0  0  0
  5 10  1  0  0  0  0
  5 26  1  0  0  0  0
  6  8  1  0  0  0  0
  6 12  1  0  0  0  0
  7  8  2  0  0  0  0
  7 21  1  0  0  0  0
  8 20  1  0  0  0  0
  9 11  1  0  0  0  0
  9 15  2  0  0  0  0
 10 13  1  0  0  0  0
 10 16  2  0  0  0  0
 11 17  1  0  0  0  0
 11 18  2  0  0  0  0
 12 17  2  0  0  0  0
 12 19  1  0  0  0  0
 13 27  1  0  0  0  0
 13 28  1  0  0  0  0
 13 29  1  0  0  0  0
 14 21  1  0  0  0  0
 14 30  1  0  0  0  0
 14 31  1  0  0  0  0
 14 32  1  0  0  0  0
 15 16  1  0  0  0  0
 18 19  1  0  0  0  0
 20 33  1  0  0  0  0
M  END
$$$$
