43
0 1 C16H21N3O3
C                    -5.673642304862     0.491243232283    -3.209002208471
C                    -5.428458961224     1.826702808146    -2.826055108227
C                    -4.623250042587    -0.335883571407    -3.604281566648
C                    -4.139135917436     2.363227803139    -2.812502133722
C                    -3.332309759159     0.199533681056    -3.609700473579
C                    -3.094953062885     1.518956202875    -3.203267922506
C                    -2.034554043681    -0.403585006169    -3.953653341269
C                     0.850688768252     0.910745661403    -2.325735730057
C                    -1.531235172662    -0.846407116064    -0.550928341401
C                    -0.194417198900    -1.111465625471    -1.252691079469
C                     0.898571950255     0.616291611949     0.089102070259
C                    -0.411496385388     0.941753498576     0.829067762198
C                    -1.364511552898    -0.282978275421     0.873388232170
C                    -0.119347278403     1.543334687874     2.206659533264
C                    -0.904564554076    -1.367289675044     1.850381091150
C                     0.320196049495     0.469059938400    -3.700554268575
N                    -1.713675180955     1.776490616695    -3.197708111558
N                    -1.119519681450     0.634509997955    -3.799315759717
N                     0.627983740084     0.099325758093    -1.253136868935
O                    -1.738835419447    -1.557662240229    -4.265407410848
O                     1.440452081034     1.992414096031    -2.246560357508
O                    -2.655795235293     0.122726799866     1.371259938195
H                    -6.690742732329     0.110696559243    -3.194278969148
H                    -6.263541886067     2.453808664405    -2.525260796108
H                    -4.786919494913    -1.366616307627    -3.905293333558
H                    -3.958255452593     3.388512257801    -2.501302282020
H                    -2.095808448984    -0.119367313052    -1.144998071864
H                    -2.125909847929    -1.764951674779    -0.517292504364
H                     0.362146297699    -1.894608018468    -0.723629546937
H                    -0.361351589948    -1.475936879120    -2.264250995082
H                     1.512778037774     1.510286518005    -0.011372991943
H                     1.477543937391    -0.132814811955     0.643584492809
H                    -0.923347074739     1.703373963367     0.222746595038
H                     0.534129600264     0.894903508618     2.800077820122
H                    -1.045773370742     1.695364173062     2.766874405535
H                     0.383314926032     2.510692219409     2.102532920762
H                    -0.921694570729    -0.989416066599     2.874847713017
H                     0.107222330935    -1.716773455314     1.629180699004
H                    -1.584002718529    -2.222527875029     1.796165250760
H                     0.522965268187    -0.574701855136    -3.948672720071
H                     0.824774944371     1.106441902788    -4.431307853127
H                    -1.416791715970     2.635563599881    -3.660083663353
H                    -3.042974843038     0.735755102959     0.724699829013
