
  -OEChem-05262117483D

 43 45  0     1  0  0  0  0  0999 V2000
    8.8678    1.9396   -0.6831 C   0  0  0  0  0  0  0  0  0  0  0  0
    8.3737    3.1724   -0.2069 C   0  0  0  0  0  0  0  0  0  0  0  0
    7.9921    0.8990   -0.9898 C   0  0  0  0  0  0  0  0  0  0  0  0
    7.0069    3.4024   -0.0404 C   0  0  0  0  0  0  0  0  0  0  0  0
    6.6230    1.1175   -0.8107 C   0  0  0  0  0  0  0  0  0  0  0  0
    6.1386    2.3539   -0.3623 C   0  0  0  0  0  0  0  0  0  0  0  0
    5.4645    0.2339   -1.0203 C   0  0  0  0  0  0  0  0  0  0  0  0
    2.0489    1.0416    0.1682 C   0  0  0  0  0  0  0  0  0  0  0  0
   -1.1792   -0.0411    1.3875 C   0  0  0  0  0  0  0  0  0  0  0  0
   -0.2696    1.1221    0.9482 C   0  0  0  0  0  0  0  0  0  0  0  0
    0.2389    0.0938   -1.2691 C   0  0  0  0  0  0  0  0  0  0  0  0
   -1.1246   -0.6230   -1.0824 C   0  0  1  0  0  0  0  0  0  0  0  0
   -1.2233   -1.1896    0.3551 C   0  0  2  0  0  0  0  0  0  0  0  0
   -2.3140    0.2600   -1.4939 C   0  0  0  0  0  0  0  0  0  0  0  0
   -2.4602   -2.0614    0.5585 C   0  0  0  0  0  0  0  0  0  0  0  0
    3.0206    0.6939   -0.9646 C   0  0  0  0  0  0  0  0  0  0  0  0
    4.7331    2.3468   -0.3366 N   0  0  0  0  0  0  0  0  0  0  0  0
    4.3766    0.9970   -0.6014 N   0  0  0  0  0  0  0  0  0  0  0  0
    0.7465    0.6607   -0.0071 N   0  0  0  0  0  0  0  0  0  0  0  0
    5.3866   -0.9086   -1.4728 O   0  0  0  0  0  0  0  0  0  0  0  0
    2.4393    1.6497    1.1701 O   0  0  0  0  0  0  0  0  0  0  0  0
   -0.1102   -2.0874    0.5646 O   0  0  0  0  0  0  0  0  0  0  0  0
    9.9387    1.8056   -0.8063 H   0  0  0  0  0  0  0  0  0  0  0  0
    9.0751    3.9681    0.0307 H   0  0  0  0  0  0  0  0  0  0  0  0
    8.3479   -0.0621   -1.3501 H   0  0  0  0  0  0  0  0  0  0  0  0
    6.6355    4.3597    0.3148 H   0  0  0  0  0  0  0  0  0  0  0  0
   -0.8326   -0.4665    2.3343 H   0  0  0  0  0  0  0  0  0  0  0  0
   -2.1878    0.3458    1.5627 H   0  0  0  0  0  0  0  0  0  0  0  0
   -0.8555    1.9166    0.4697 H   0  0  0  0  0  0  0  0  0  0  0  0
    0.2546    1.5673    1.7916 H   0  0  0  0  0  0  0  0  0  0  0  0
    0.9647   -0.6273   -1.6444 H   0  0  0  0  0  0  0  0  0  0  0  0
    0.1409    0.8860   -2.0236 H   0  0  0  0  0  0  0  0  0  0  0  0
   -1.1102   -1.4880   -1.7535 H   0  0  0  0  0  0  0  0  0  0  0  0
   -2.4451    1.1268   -0.8391 H   0  0  0  0  0  0  0  0  0  0  0  0
   -3.2485   -0.3068   -1.4871 H   0  0  0  0  0  0  0  0  0  0  0  0
   -2.1707    0.6373   -2.5119 H   0  0  0  0  0  0  0  0  0  0  0  0
   -2.4540   -2.8973   -0.1478 H   0  0  0  0  0  0  0  0  0  0  0  0
   -3.3841   -1.4935    0.4263 H   0  0  0  0  0  0  0  0  0  0  0  0
   -2.4501   -2.4745    1.5712 H   0  0  0  0  0  0  0  0  0  0  0  0
    2.7230    1.2372   -1.8736 H   0  0  0  0  0  0  0  0  0  0  0  0
    3.0122   -0.3737   -1.1993 H   0  0  0  0  0  0  0  0  0  0  0  0
    4.3012    2.6223    0.5481 H   0  0  0  0  0  0  0  0  0  0  0  0
    0.6859   -1.5498    0.7069 H   0  0  0  0  0  0  0  0  0  0  0  0
  1  2  1  0  0  0  0
  1  3  2  0  0  0  0
  1 23  1  0  0  0  0
  2  4  2  0  0  0  0
  2 24  1  0  0  0  0
  3  5  1  0  0  0  0
  3 25  1  0  0  0  0
  4  6  1  0  0  0  0
  4 26  1  0  0  0  0
  5  6  2  0  0  0  0
  5  7  1  0  0  0  0
  6 17  1  0  0  0  0
  7 18  1  0  0  0  0
  7 20  2  0  0  0  0
  8 16  1  0  0  0  0
  8 19  1  0  0  0  0
  8 21  2  0  0  0  0
  9 10  1  0  0  0  0
  9 13  1  0  0  0  0
  9 27  1  0  0  0  0
  9 28  1  0  0  0  0
 10 19  1  0  0  0  0
 10 29  1  0  0  0  0
 10 30  1  0  0  0  0
 11 12  1  0  0  0  0
 11 19  1  0  0  0  0
 11 31  1  0  0  0  0
 11 32  1  0  0  0  0
 12 13  1  0  0  0  0
 12 14  1  0  0  0  0
 12 33  1  0  0  0  0
 13 15  1  0  0  0  0
 13 22  1  0  0  0  0
 14 34  1  0  0  0  0
 14 35  1  0  0  0  0
 14 36  1  0  0  0  0
 15 37  1  0  0  0  0
 15 38  1  0  0  0  0
 15 39  1  0  0  0  0
 16 18  1  0  0  0  0
 16 40  1  0  0  0  0
 16 41  1  0  0  0  0
 17 18  1  0  0  0  0
 17 42  1  0  0  0  0
 22 43  1  0  0  0  0
M  END
$$$$
