
  -OEChem-05262117483D

 43 45  0     1  0  0  0  0  0999 V2000
   -1.9494   -2.8642    8.4023 C   0  0  0  0  0  0  0  0  0  0  0  0
   -2.1790   -1.4755    8.5002 C   0  0  0  0  0  0  0  0  0  0  0  0
   -1.5924   -3.4368    7.1822 C   0  0  0  0  0  0  0  0  0  0  0  0
   -2.0451   -0.6287    7.3985 C   0  0  0  0  0  0  0  0  0  0  0  0
   -1.4714   -2.5967    6.0715 C   0  0  0  0  0  0  0  0  0  0  0  0
   -1.6763   -1.2142    6.1825 C   0  0  0  0  0  0  0  0  0  0  0  0
   -1.1407   -2.8876    4.6663 C   0  0  0  0  0  0  0  0  0  0  0  0
   -1.6388   -0.4678    1.9232 C   0  0  0  0  0  0  0  0  0  0  0  0
   -1.3461    1.7378   -0.7355 C   0  0  0  0  0  0  0  0  0  0  0  0
   -2.1974    0.5734   -0.2211 C   0  0  0  0  0  0  0  0  0  0  0  0
   -0.2236   -0.8761   -0.1154 C   0  0  0  0  0  0  0  0  0  0  0  0
    0.7132    0.2567   -0.5809 C   0  0  1  0  0  0  0  0  0  0  0  0
   -0.0832    1.2560   -1.4651 C   0  0  2  0  0  0  0  0  0  0  0  0
    1.4333    0.9043    0.6108 C   0  0  0  0  0  0  0  0  0  0  0  0
    0.7667    2.4438   -1.9246 C   0  0  0  0  0  0  0  0  0  0  0  0
   -0.7021   -1.3772    2.7331 C   0  0  0  0  0  0  0  0  0  0  0  0
   -1.4259   -0.5848    4.9521 N   0  0  0  0  0  0  0  0  0  0  0  0
   -1.2459   -1.6531    4.0339 N   0  0  0  0  0  0  0  0  0  0  0  0
   -1.3820   -0.3335    0.5946 N   0  0  0  0  0  0  0  0  0  0  0  0
   -0.8177   -3.9387    4.1100 O   0  0  0  0  0  0  0  0  0  0  0  0
   -2.5728    0.1187    2.4868 O   0  0  0  0  0  0  0  0  0  0  0  0
   -0.5744    0.5490   -2.6281 O   0  0  0  0  0  0  0  0  0  0  0  0
   -2.0568   -3.4864    9.2862 H   0  0  0  0  0  0  0  0  0  0  0  0
   -2.4620   -1.0514    9.4602 H   0  0  0  0  0  0  0  0  0  0  0  0
   -1.4189   -4.5042    7.0791 H   0  0  0  0  0  0  0  0  0  0  0  0
   -2.2126    0.4413    7.4864 H   0  0  0  0  0  0  0  0  0  0  0  0
   -1.9386    2.3446   -1.4279 H   0  0  0  0  0  0  0  0  0  0  0  0
   -1.0597    2.3790    0.1040 H   0  0  0  0  0  0  0  0  0  0  0  0
   -3.0230    0.9285    0.3933 H   0  0  0  0  0  0  0  0  0  0  0  0
   -2.6018    0.0056   -1.0654 H   0  0  0  0  0  0  0  0  0  0  0  0
   -0.5874   -1.4308   -0.9864 H   0  0  0  0  0  0  0  0  0  0  0  0
    0.3221   -1.5744    0.5173 H   0  0  0  0  0  0  0  0  0  0  0  0
    1.4761   -0.2042   -1.2255 H   0  0  0  0  0  0  0  0  0  0  0  0
    0.7320    1.3872    1.2979 H   0  0  0  0  0  0  0  0  0  0  0  0
    2.1574    1.6562    0.2879 H   0  0  0  0  0  0  0  0  0  0  0  0
    1.9843    0.1463    1.1777 H   0  0  0  0  0  0  0  0  0  0  0  0
    1.6946    2.1032   -2.4020 H   0  0  0  0  0  0  0  0  0  0  0  0
    1.0398    3.1004   -1.0944 H   0  0  0  0  0  0  0  0  0  0  0  0
    0.2019    3.0319   -2.6539 H   0  0  0  0  0  0  0  0  0  0  0  0
    0.2837   -0.8992    2.8176 H   0  0  0  0  0  0  0  0  0  0  0  0
   -0.5684   -2.3542    2.2633 H   0  0  0  0  0  0  0  0  0  0  0  0
   -2.1691    0.0187    4.5919 H   0  0  0  0  0  0  0  0  0  0  0  0
    0.1907    0.2966   -3.1698 H   0  0  0  0  0  0  0  0  0  0  0  0
  1  2  1  0  0  0  0
  1  3  2  0  0  0  0
  1 23  1  0  0  0  0
  2  4  2  0  0  0  0
  2 24  1  0  0  0  0
  3  5  1  0  0  0  0
  3 25  1  0  0  0  0
  4  6  1  0  0  0  0
  4 26  1  0  0  0  0
  5  6  2  0  0  0  0
  5  7  1  0  0  0  0
  6 17  1  0  0  0  0
  7 18  1  0  0  0  0
  7 20  2  0  0  0  0
  8 16  1  0  0  0  0
  8 19  1  0  0  0  0
  8 21  2  0  0  0  0
  9 10  1  0  0  0  0
  9 13  1  0  0  0  0
  9 27  1  0  0  0  0
  9 28  1  0  0  0  0
 10 19  1  0  0  0  0
 10 29  1  0  0  0  0
 10 30  1  0  0  0  0
 11 12  1  0  0  0  0
 11 19  1  0  0  0  0
 11 31  1  0  0  0  0
 11 32  1  0  0  0  0
 12 13  1  0  0  0  0
 12 14  1  0  0  0  0
 12 33  1  0  0  0  0
 13 15  1  0  0  0  0
 13 22  1  0  0  0  0
 14 34  1  0  0  0  0
 14 35  1  0  0  0  0
 14 36  1  0  0  0  0
 15 37  1  0  0  0  0
 15 38  1  0  0  0  0
 15 39  1  0  0  0  0
 16 18  1  0  0  0  0
 16 40  1  0  0  0  0
 16 41  1  0  0  0  0
 17 18  1  0  0  0  0
 17 42  1  0  0  0  0
 22 43  1  0  0  0  0
M  END
$$$$
