
  -OEChem-05262117483D

 43 45  0     1  0  0  0  0  0999 V2000
    3.5274    5.1493   -6.8320 C   0  0  0  0  0  0  0  0  0  0  0  0
    2.4206    5.8383   -6.2926 C   0  0  0  0  0  0  0  0  0  0  0  0
    3.8982    3.9037   -6.3272 C   0  0  0  0  0  0  0  0  0  0  0  0
    1.6537    5.3017   -5.2570 C   0  0  0  0  0  0  0  0  0  0  0  0
    3.1439    3.3674   -5.2795 C   0  0  0  0  0  0  0  0  0  0  0  0
    2.0298    4.0465   -4.7666 C   0  0  0  0  0  0  0  0  0  0  0  0
    3.2873    2.1114   -4.5250 C   0  0  0  0  0  0  0  0  0  0  0  0
    1.4920    1.4169   -1.3737 C   0  0  0  0  0  0  0  0  0  0  0  0
   -0.1664   -1.6120   -0.5573 C   0  0  0  0  0  0  0  0  0  0  0  0
    1.2185   -1.0251   -0.8454 C   0  0  0  0  0  0  0  0  0  0  0  0
    0.8657    0.6953    0.8756 C   0  0  0  0  0  0  0  0  0  0  0  0
   -0.5299    0.1397    1.2035 C   0  0  1  0  0  0  0  0  0  0  0  0
   -0.6281   -1.3769    0.8890 C   0  0  2  0  0  0  0  0  0  0  0  0
   -0.9168    0.5118    2.6394 C   0  0  0  0  0  0  0  0  0  0  0  0
    0.1589   -2.2537    1.8736 C   0  0  0  0  0  0  0  0  0  0  0  0
    1.8172    1.0376   -2.8256 C   0  0  0  0  0  0  0  0  0  0  0  0
    1.4006    3.2725   -3.7774 N   0  0  0  0  0  0  0  0  0  0  0  0
    2.2800    2.1775   -3.5669 N   0  0  0  0  0  0  0  0  0  0  0  0
    1.2527    0.3971   -0.5034 N   0  0  0  0  0  0  0  0  0  0  0  0
    4.0696    1.1689   -4.6590 O   0  0  0  0  0  0  0  0  0  0  0  0
    1.4329    2.6071   -1.0404 O   0  0  0  0  0  0  0  0  0  0  0  0
   -2.0087   -1.7896    0.8884 O   0  0  0  0  0  0  0  0  0  0  0  0
    4.0922    5.5991   -7.6436 H   0  0  0  0  0  0  0  0  0  0  0  0
    2.1527    6.8107   -6.6981 H   0  0  0  0  0  0  0  0  0  0  0  0
    4.7512    3.3573   -6.7195 H   0  0  0  0  0  0  0  0  0  0  0  0
    0.7955    5.8345   -4.8566 H   0  0  0  0  0  0  0  0  0  0  0  0
   -0.9016   -1.1487   -1.2241 H   0  0  0  0  0  0  0  0  0  0  0  0
   -0.1657   -2.6865   -0.7677 H   0  0  0  0  0  0  0  0  0  0  0  0
    1.9893   -1.5452   -0.2621 H   0  0  0  0  0  0  0  0  0  0  0  0
    1.4676   -1.1711   -1.8945 H   0  0  0  0  0  0  0  0  0  0  0  0
    0.8850    1.7778    0.9967 H   0  0  0  0  0  0  0  0  0  0  0  0
    1.6185    0.2699    1.5530 H   0  0  0  0  0  0  0  0  0  0  0  0
   -1.2400    0.6250    0.5228 H   0  0  0  0  0  0  0  0  0  0  0  0
   -0.1953    0.1335    3.3711 H   0  0  0  0  0  0  0  0  0  0  0  0
   -1.9066    0.1267    2.9077 H   0  0  0  0  0  0  0  0  0  0  0  0
   -0.9586    1.6000    2.7511 H   0  0  0  0  0  0  0  0  0  0  0  0
   -0.2425   -2.1658    2.8886 H   0  0  0  0  0  0  0  0  0  0  0  0
    1.2187   -1.9874    1.9199 H   0  0  0  0  0  0  0  0  0  0  0  0
    0.0822   -3.3025    1.5725 H   0  0  0  0  0  0  0  0  0  0  0  0
    0.9229    0.6029   -3.2954 H   0  0  0  0  0  0  0  0  0  0  0  0
    2.6258    0.3057   -2.8892 H   0  0  0  0  0  0  0  0  0  0  0  0
    1.2444    3.7309   -2.8767 H   0  0  0  0  0  0  0  0  0  0  0  0
   -2.3302   -1.7781    1.8036 H   0  0  0  0  0  0  0  0  0  0  0  0
  1  2  1  0  0  0  0
  1  3  2  0  0  0  0
  1 23  1  0  0  0  0
  2  4  2  0  0  0  0
  2 24  1  0  0  0  0
  3  5  1  0  0  0  0
  3 25  1  0  0  0  0
  4  6  1  0  0  0  0
  4 26  1  0  0  0  0
  5  6  2  0  0  0  0
  5  7  1  0  0  0  0
  6 17  1  0  0  0  0
  7 18  1  0  0  0  0
  7 20  2  0  0  0  0
  8 16  1  0  0  0  0
  8 19  1  0  0  0  0
  8 21  2  0  0  0  0
  9 10  1  0  0  0  0
  9 13  1  0  0  0  0
  9 27  1  0  0  0  0
  9 28  1  0  0  0  0
 10 19  1  0  0  0  0
 10 29  1  0  0  0  0
 10 30  1  0  0  0  0
 11 12  1  0  0  0  0
 11 19  1  0  0  0  0
 11 31  1  0  0  0  0
 11 32  1  0  0  0  0
 12 13  1  0  0  0  0
 12 14  1  0  0  0  0
 12 33  1  0  0  0  0
 13 15  1  0  0  0  0
 13 22  1  0  0  0  0
 14 34  1  0  0  0  0
 14 35  1  0  0  0  0
 14 36  1  0  0  0  0
 15 37  1  0  0  0  0
 15 38  1  0  0  0  0
 15 39  1  0  0  0  0
 16 18  1  0  0  0  0
 16 40  1  0  0  0  0
 16 41  1  0  0  0  0
 17 18  1  0  0  0  0
 17 42  1  0  0  0  0
 22 43  1  0  0  0  0
M  END
$$$$
