16
0 1 C7ClFH5NO
C                     1.706259841869    -1.247496755345    -0.175136330890
C                     0.761972224759    -0.488272553133     0.526156164433
C                     2.785015214162    -1.813547811945     0.503099601150
C                     0.893491028808    -0.298800959776     1.903647412997
C                     2.947198382332    -1.620930630494     1.884445339473
C                     1.980886282711    -0.866678746690     2.559201116420
C                     4.108293770939    -2.190589395062     2.601477242534
N                     4.993333389892    -1.581125259236     3.292560512435
O                     4.790777292030    -0.194255678140     3.296538655034
F                     2.080112735409    -0.707957842132     3.896360737573
Cl                    4.329127887787    -3.929454321430     2.474353345180
H                     1.600628582762    -1.398593957291    -1.245307252886
H                    -0.083059506817    -0.048888555201     0.003498591627
H                     3.517437537881    -2.409297182626    -0.033673794918
H                     0.168599833440     0.271501951044     2.476215699704
H                     5.500437036865     0.114101925721     3.884183973073
