52
0 1 C21H27N3O
C                    -3.365806703053     1.446617492965    -4.344958483341
C                     1.989265242914     2.380321946870     1.666659114022
C                     1.469970490738     1.906242111738     0.437988732256
C                     1.784250836445     1.713980865463     2.879728790690
C                     0.538205127345     0.056563741465     1.597175458041
C                     0.724834848578     0.726820183886     0.386566249024
C                    -0.188258840902    -1.150932609070     1.823935671718
C                     1.044366145661     0.525530338297     2.829701462007
C                    -0.119239405628    -1.400544795537     3.174484090146
C                    -0.721789354354    -1.886597476730     0.631876081890
C                    -0.531404025415     1.246195344539    -1.753973703040
C                    -1.722305050533    -0.663717955265    -2.855194457712
C                     0.051115121233     0.132770170566    -0.841279780484
C                    -1.821309947316     0.807164260181    -2.467560879421
C                    -1.091549533137    -0.870585360406    -0.474511156892
C                    -1.358502978509    -4.989544676859    -3.346038568667
C                    -1.554409065117    -3.062584859273     6.105591516445
C                    -2.071746570711     1.701719104519    -3.697991585054
C                    -0.634145241396    -2.536432171534     3.991018475322
C                    -1.862615091458    -3.556483222336    -3.141435952028
C                    -1.071419722003    -2.834343499750    -2.043219659179
N                    -4.394037214249     1.229876710011    -4.843817840420
N                     0.657115480001    -0.404338258177     3.784358216600
N                    -1.651930847516    -1.539973624112    -1.676308046613
O                    -1.111337379374    -2.029672791379     5.237419140619
H                     2.564840626747     3.302523342364     1.668311877329
H                     1.653900799642     2.485119746578    -0.463686429581
H                     2.187467302437     2.109674183096     3.808346100024
H                     0.054887948366    -2.569998559354     0.270865446111
H                    -1.603131538051    -2.493228149057     0.867796855802
H                    -0.737795091689     2.139511877162    -1.156265784001
H                     0.218399996931     1.534823544495    -2.500854719810
H                    -2.583546400840    -0.952372963338    -3.465657558401
H                    -0.824139466042    -0.782940988151    -3.495308087779
H                     0.801293012570    -0.431724104890    -1.412431131709
H                    -2.674245104579     0.929831882159    -1.791902828871
H                    -1.900364693921    -0.266422622420    -0.043911220193
H                    -0.296737009901    -5.002618481400    -3.619027438880
H                    -1.473767247265    -5.586415273506    -2.433793552431
H                    -1.912311345711    -5.492885439939    -4.145128553008
H                    -1.889375291954    -2.584797820275     7.028615417370
H                    -0.742619092309    -3.768527457001     6.337166052091
H                    -2.392965144039    -3.621917958266     5.665406688181
H                    -1.281626976191     1.550824318148    -4.442857082248
H                    -2.039318702368     2.757337695555    -3.406519920150
H                    -1.436972513328    -3.050626814297     3.442723499641
H                     0.162862552332    -3.275287908982     4.183626570800
H                    -2.921871733483    -3.563846310464    -2.858141472057
H                    -1.792907985108    -3.014867357364    -4.090385350484
H                    -1.076264984963    -3.485414320768    -1.167988408619
H                    -0.015200864090    -2.739031238585    -2.369576495597
H                     0.645967996926    -0.255761606663     4.784645789775
