
  -OEChem-05262117483D

 66 68  0     0  0  0  0  0  0999 V2000
   -7.0864    0.0030   -6.2942 C   0  0  0  0  0  0  0  0  0  0  0  0
   -7.4221   -1.7463   -4.6287 C   0  0  0  0  0  0  0  0  0  0  0  0
   -6.9732   -2.8383   -3.8893 C   0  0  0  0  0  0  0  0  0  0  0  0
   -4.8501   -2.7497   -5.0662 C   0  0  0  0  0  0  0  0  0  0  0  0
   -6.5854   -1.1362   -5.5762 C   0  0  0  0  0  0  0  0  0  0  0  0
   -5.2898   -1.6493   -5.7932 C   0  0  0  0  0  0  0  0  0  0  0  0
   -5.6851   -3.3261   -4.1067 C   0  0  0  0  0  0  0  0  0  0  0  0
   -5.9061   -5.6910   -3.3324 C   0  0  0  0  0  0  0  0  0  0  0  0
   -4.0819   -4.4995   -2.5695 C   0  0  0  0  0  0  0  0  0  0  0  0
    0.3418   -0.4742    1.6767 C   0  0  0  0  0  0  0  0  0  0  0  0
   -1.8568   -1.2712    0.7379 C   0  0  0  0  0  0  0  0  0  0  0  0
    0.2391   -2.0461   -0.1940 C   0  0  0  0  0  0  0  0  0  0  0  0
   -2.1805   -2.6760    1.2604 C   0  0  0  0  0  0  0  0  0  0  0  0
   -0.0050   -3.4660    0.3127 C   0  0  0  0  0  0  0  0  0  0  0  0
   -5.0643   -6.6385   -2.4757 C   0  0  0  0  0  0  0  0  0  0  0  0
   -4.5570   -7.7939   -3.3522 C   0  0  0  0  0  0  0  0  0  0  0  0
   -5.8825   -7.1389   -1.2785 C   0  0  0  0  0  0  0  0  0  0  0  0
   -0.1673    2.2247    4.4457 C   0  0  0  0  0  0  0  0  0  0  0  0
   -0.3824    0.4731    2.6228 C   0  0  0  0  0  0  0  0  0  0  0  0
    0.5809    1.2949    3.4859 C   0  0  0  0  0  0  0  0  0  0  0  0
   -3.0813   -5.6775    0.2999 C   0  0  0  0  0  0  0  0  0  0  0  0
   -2.8870   -6.1383   -1.1705 C   0  0  0  0  0  0  0  0  0  0  0  0
   -1.7978   -5.1277    0.9229 C   0  0  0  0  0  0  0  0  0  0  0  0
   -4.3675   -1.0087   -6.8121 C   0  0  0  0  0  0  0  0  0  0  0  0
   -7.5287    0.9268   -6.8469 N   0  0  0  0  0  0  0  0  0  0  0  0
   -5.2266   -4.4577   -3.3606 N   0  0  0  0  0  0  0  0  0  0  0  0
   -3.9663   -5.7405   -2.0570 N   0  0  0  0  0  0  0  0  0  0  0  0
   -0.4193   -1.0741    0.6668 N   0  0  0  0  0  0  0  0  0  0  0  0
   -1.4891   -3.7316    0.4285 N   0  3  0  0  0  0  0  0  0  0  0  0
   -6.9509   -5.9410   -3.8845 O   0  0  0  0  0  0  0  0  0  0  0  0
    1.5441   -0.6969    1.7504 O   0  0  0  0  0  0  0  0  0  0  0  0
   -3.1871   -1.6676   -6.8892 F   0  0  0  0  0  0  0  0  0  0  0  0
   -4.9135   -1.0089   -8.0441 F   0  0  0  0  0  0  0  0  0  0  0  0
   -4.0925    0.2724   -6.4820 F   0  0  0  0  0  0  0  0  0  0  0  0
   -3.0487   -3.1959   -2.3162 S   0  0  0  0  0  0  0  0  0  0  0  0
   -8.4218   -1.3546   -4.4737 H   0  0  0  0  0  0  0  0  0  0  0  0
   -7.6228   -3.3088   -3.1593 H   0  0  0  0  0  0  0  0  0  0  0  0
   -3.8601   -3.1510   -5.2424 H   0  0  0  0  0  0  0  0  0  0  0  0
   -2.2985   -1.1308   -0.2551 H   0  0  0  0  0  0  0  0  0  0  0  0
   -2.3215   -0.5433    1.4009 H   0  0  0  0  0  0  0  0  0  0  0  0
    1.3111   -1.8506   -0.1920 H   0  0  0  0  0  0  0  0  0  0  0  0
   -0.1364   -1.9368   -1.2181 H   0  0  0  0  0  0  0  0  0  0  0  0
   -1.8286   -2.7983    2.2878 H   0  0  0  0  0  0  0  0  0  0  0  0
   -3.2528   -2.8770    1.2166 H   0  0  0  0  0  0  0  0  0  0  0  0
    0.4002   -4.2111   -0.3758 H   0  0  0  0  0  0  0  0  0  0  0  0
    0.4357   -3.6094    1.3024 H   0  0  0  0  0  0  0  0  0  0  0  0
   -3.9721   -8.5038   -2.7607 H   0  0  0  0  0  0  0  0  0  0  0  0
   -3.9384   -7.4237   -4.1742 H   0  0  0  0  0  0  0  0  0  0  0  0
   -5.4144   -8.3244   -3.7725 H   0  0  0  0  0  0  0  0  0  0  0  0
   -5.2885   -7.8235   -0.6658 H   0  0  0  0  0  0  0  0  0  0  0  0
   -6.7584   -7.6796   -1.6440 H   0  0  0  0  0  0  0  0  0  0  0  0
   -6.2243   -6.3084   -0.6543 H   0  0  0  0  0  0  0  0  0  0  0  0
   -0.8071    1.6605    5.1345 H   0  0  0  0  0  0  0  0  0  0  0  0
   -0.8035    2.9346    3.9047 H   0  0  0  0  0  0  0  0  0  0  0  0
    0.5358    2.8056    5.0495 H   0  0  0  0  0  0  0  0  0  0  0  0
   -1.0455   -0.1148    3.2741 H   0  0  0  0  0  0  0  0  0  0  0  0
   -1.0344    1.1397    2.0452 H   0  0  0  0  0  0  0  0  0  0  0  0
    1.2378    1.8756    2.8310 H   0  0  0  0  0  0  0  0  0  0  0  0
    1.2325    0.6154    4.0423 H   0  0  0  0  0  0  0  0  0  0  0  0
   -3.4183   -6.5170    0.9134 H   0  0  0  0  0  0  0  0  0  0  0  0
   -3.8761   -4.9283    0.3481 H   0  0  0  0  0  0  0  0  0  0  0  0
   -1.9562   -5.7403   -1.5858 H   0  0  0  0  0  0  0  0  0  0  0  0
   -2.8073   -7.2254   -1.2153 H   0  0  0  0  0  0  0  0  0  0  0  0
   -1.8638   -5.0795    2.0116 H   0  0  0  0  0  0  0  0  0  0  0  0
   -0.9426   -5.7587    0.6701 H   0  0  0  0  0  0  0  0  0  0  0  0
   -1.9051   -3.6438   -0.5378 H   0  0  0  0  0  0  0  0  0  0  0  0
  1  5  1  0  0  0  0
  1 25  3  0  0  0  0
  2  3  1  0  0  0  0
  2  5  2  0  0  0  0
  2 36  1  0  0  0  0
  3  7  2  0  0  0  0
  3 37  1  0  0  0  0
  4  6  2  0  0  0  0
  4  7  1  0  0  0  0
  4 38  1  0  0  0  0
  5  6  1  0  0  0  0
  6 24  1  0  0  0  0
  7 26  1  0  0  0  0
  8 15  1  0  0  0  0
  8 26  1  0  0  0  0
  8 30  2  0  0  0  0
  9 26  1  0  0  0  0
  9 27  1  0  0  0  0
  9 35  2  0  0  0  0
 10 19  1  0  0  0  0
 10 28  1  0  0  0  0
 10 31  2  0  0  0  0
 11 13  1  0  0  0  0
 11 28  1  0  0  0  0
 11 39  1  0  0  0  0
 11 40  1  0  0  0  0
 12 14  1  0  0  0  0
 12 28  1  0  0  0  0
 12 41  1  0  0  0  0
 12 42  1  0  0  0  0
 13 29  1  0  0  0  0
 13 43  1  0  0  0  0
 13 44  1  0  0  0  0
 14 29  1  0  0  0  0
 14 45  1  0  0  0  0
 14 46  1  0  0  0  0
 15 16  1  0  0  0  0
 15 17  1  0  0  0  0
 15 27  1  0  0  0  0
 16 47  1  0  0  0  0
 16 48  1  0  0  0  0
 16 49  1  0  0  0  0
 17 50  1  0  0  0  0
 17 51  1  0  0  0  0
 17 52  1  0  0  0  0
 18 20  1  0  0  0  0
 18 53  1  0  0  0  0
 18 54  1  0  0  0  0
 18 55  1  0  0  0  0
 19 20  1  0  0  0  0
 19 56  1  0  0  0  0
 19 57  1  0  0  0  0
 20 58  1  0  0  0  0
 20 59  1  0  0  0  0
 21 22  1  0  0  0  0
 21 23  1  0  0  0  0
 21 60  1  0  0  0  0
 21 61  1  0  0  0  0
 22 27  1  0  0  0  0
 22 62  1  0  0  0  0
 22 63  1  0  0  0  0
 23 29  1  0  0  0  0
 23 64  1  0  0  0  0
 23 65  1  0  0  0  0
 24 32  1  0  0  0  0
 24 33  1  0  0  0  0
 24 34  1  0  0  0  0
 29 66  1  0  0  0  0
M  CHG  1  29   1
M  END
$$$$
