
  -OEChem-05262117483D

 66 68  0     0  0  0  0  0  0999 V2000
   -4.3150   -0.8355   -9.0425 C   0  0  0  0  0  0  0  0  0  0  0  0
   -4.2371   -0.9709   -6.6105 C   0  0  0  0  0  0  0  0  0  0  0  0
   -4.3031   -1.6890   -5.4199 C   0  0  0  0  0  0  0  0  0  0  0  0
   -4.6788   -3.7299   -6.6790 C   0  0  0  0  0  0  0  0  0  0  0  0
   -4.3931   -1.6240   -7.8437 C   0  0  0  0  0  0  0  0  0  0  0  0
   -4.6202   -3.0147   -7.8710 C   0  0  0  0  0  0  0  0  0  0  0  0
   -4.5142   -3.0664   -5.4625 C   0  0  0  0  0  0  0  0  0  0  0  0
   -5.7328   -4.5524   -3.8785 C   0  0  0  0  0  0  0  0  0  0  0  0
   -3.5626   -3.9684   -3.3197 C   0  0  0  0  0  0  0  0  0  0  0  0
    1.9232    0.4818    0.9903 C   0  0  0  0  0  0  0  0  0  0  0  0
    1.0086   -1.6661    1.9811 C   0  0  0  0  0  0  0  0  0  0  0  0
   -0.3250   -0.3351    0.4390 C   0  0  0  0  0  0  0  0  0  0  0  0
    0.5697   -2.9515    1.2787 C   0  0  0  0  0  0  0  0  0  0  0  0
   -0.7640   -1.5827   -0.3106 C   0  0  0  0  0  0  0  0  0  0  0  0
   -5.3985   -5.2484   -2.5563 C   0  0  0  0  0  0  0  0  0  0  0  0
   -5.4421   -6.7702   -2.7655 C   0  0  0  0  0  0  0  0  0  0  0  0
   -6.3677   -4.7898   -1.4597 C   0  0  0  0  0  0  0  0  0  0  0  0
    5.5000    1.2281    2.3501 C   0  0  0  0  0  0  0  0  0  0  0  0
    3.2160    0.2906    1.7684 C   0  0  0  0  0  0  0  0  0  0  0  0
    4.2094    1.4369    1.5523 C   0  0  0  0  0  0  0  0  0  0  0  0
   -2.7804   -4.0575   -0.2574 C   0  0  0  0  0  0  0  0  0  0  0  0
   -3.1824   -5.2047   -1.2245 C   0  0  0  0  0  0  0  0  0  0  0  0
   -1.2687   -4.0466   -0.0404 C   0  0  0  0  0  0  0  0  0  0  0  0
   -4.7922   -3.7397   -9.1916 C   0  0  0  0  0  0  0  0  0  0  0  0
   -4.2407   -0.1549   -9.9836 N   0  0  0  0  0  0  0  0  0  0  0  0
   -4.5954   -3.8213   -4.2511 N   0  0  0  0  0  0  0  0  0  0  0  0
   -4.0264   -4.7561   -2.3184 N   0  0  0  0  0  0  0  0  0  0  0  0
    0.9713   -0.5475    1.0615 N   0  0  0  0  0  0  0  0  0  0  0  0
   -0.7893   -2.7755    0.6341 N   0  3  0  0  0  0  0  0  0  0  0  0
   -6.7728   -4.6213   -4.4921 O   0  0  0  0  0  0  0  0  0  0  0  0
    1.6954    1.4666    0.3038 O   0  0  0  0  0  0  0  0  0  0  0  0
   -4.9922   -5.0643   -9.0040 F   0  0  0  0  0  0  0  0  0  0  0  0
   -5.8492   -3.2626   -9.8809 F   0  0  0  0  0  0  0  0  0  0  0  0
   -3.6971   -3.6025   -9.9707 F   0  0  0  0  0  0  0  0  0  0  0  0
   -2.0374   -3.3040   -3.4457 S   0  0  0  0  0  0  0  0  0  0  0  0
   -4.0701    0.1009   -6.5970 H   0  0  0  0  0  0  0  0  0  0  0  0
   -4.1861   -1.1840   -4.4675 H   0  0  0  0  0  0  0  0  0  0  0  0
   -4.8548   -4.7987   -6.6973 H   0  0  0  0  0  0  0  0  0  0  0  0
    0.3602   -1.4840    2.8544 H   0  0  0  0  0  0  0  0  0  0  0  0
    2.0168   -1.8269    2.3603 H   0  0  0  0  0  0  0  0  0  0  0  0
   -0.2372    0.4966   -0.2615 H   0  0  0  0  0  0  0  0  0  0  0  0
   -1.0803   -0.0538    1.1909 H   0  0  0  0  0  0  0  0  0  0  0  0
    1.2584   -3.2202    0.4751 H   0  0  0  0  0  0  0  0  0  0  0  0
    0.4922   -3.7810    1.9849 H   0  0  0  0  0  0  0  0  0  0  0  0
   -1.7591   -1.4732   -0.7397 H   0  0  0  0  0  0  0  0  0  0  0  0
   -0.0655   -1.8396   -1.1079 H   0  0  0  0  0  0  0  0  0  0  0  0
   -5.2427   -7.3003   -1.8298 H   0  0  0  0  0  0  0  0  0  0  0  0
   -4.7095   -7.0867   -3.5133 H   0  0  0  0  0  0  0  0  0  0  0  0
   -6.4385   -7.0536   -3.1122 H   0  0  0  0  0  0  0  0  0  0  0  0
   -6.1335   -5.2811   -0.5100 H   0  0  0  0  0  0  0  0  0  0  0  0
   -7.3885   -5.0578   -1.7416 H   0  0  0  0  0  0  0  0  0  0  0  0
   -6.3200   -3.7061   -1.3195 H   0  0  0  0  0  0  0  0  0  0  0  0
    6.0101    0.3035    2.0562 H   0  0  0  0  0  0  0  0  0  0  0  0
    5.3027    1.1736    3.4269 H   0  0  0  0  0  0  0  0  0  0  0  0
    6.1956    2.0556    2.1838 H   0  0  0  0  0  0  0  0  0  0  0  0
    3.6776   -0.6623    1.4762 H   0  0  0  0  0  0  0  0  0  0  0  0
    2.9790    0.2005    2.8374 H   0  0  0  0  0  0  0  0  0  0  0  0
    3.7335    2.3795    1.8372 H   0  0  0  0  0  0  0  0  0  0  0  0
    4.4315    1.5208    0.4843 H   0  0  0  0  0  0  0  0  0  0  0  0
   -3.3023   -4.1679    0.6997 H   0  0  0  0  0  0  0  0  0  0  0  0
   -3.1029   -3.1158   -0.7019 H   0  0  0  0  0  0  0  0  0  0  0  0
   -2.2876   -5.6756   -1.6459 H   0  0  0  0  0  0  0  0  0  0  0  0
   -3.7290   -5.9780   -0.6850 H   0  0  0  0  0  0  0  0  0  0  0  0
   -0.9507   -4.8784    0.5926 H   0  0  0  0  0  0  0  0  0  0  0  0
   -0.7485   -4.1014   -0.9982 H   0  0  0  0  0  0  0  0  0  0  0  0
   -1.4531   -2.5514    1.3852 H   0  0  0  0  0  0  0  0  0  0  0  0
  1  5  1  0  0  0  0
  1 25  3  0  0  0  0
  2  3  1  0  0  0  0
  2  5  2  0  0  0  0
  2 36  1  0  0  0  0
  3  7  2  0  0  0  0
  3 37  1  0  0  0  0
  4  6  2  0  0  0  0
  4  7  1  0  0  0  0
  4 38  1  0  0  0  0
  5  6  1  0  0  0  0
  6 24  1  0  0  0  0
  7 26  1  0  0  0  0
  8 15  1  0  0  0  0
  8 26  1  0  0  0  0
  8 30  2  0  0  0  0
  9 26  1  0  0  0  0
  9 27  1  0  0  0  0
  9 35  2  0  0  0  0
 10 19  1  0  0  0  0
 10 28  1  0  0  0  0
 10 31  2  0  0  0  0
 11 13  1  0  0  0  0
 11 28  1  0  0  0  0
 11 39  1  0  0  0  0
 11 40  1  0  0  0  0
 12 14  1  0  0  0  0
 12 28  1  0  0  0  0
 12 41  1  0  0  0  0
 12 42  1  0  0  0  0
 13 29  1  0  0  0  0
 13 43  1  0  0  0  0
 13 44  1  0  0  0  0
 14 29  1  0  0  0  0
 14 45  1  0  0  0  0
 14 46  1  0  0  0  0
 15 16  1  0  0  0  0
 15 17  1  0  0  0  0
 15 27  1  0  0  0  0
 16 47  1  0  0  0  0
 16 48  1  0  0  0  0
 16 49  1  0  0  0  0
 17 50  1  0  0  0  0
 17 51  1  0  0  0  0
 17 52  1  0  0  0  0
 18 20  1  0  0  0  0
 18 53  1  0  0  0  0
 18 54  1  0  0  0  0
 18 55  1  0  0  0  0
 19 20  1  0  0  0  0
 19 56  1  0  0  0  0
 19 57  1  0  0  0  0
 20 58  1  0  0  0  0
 20 59  1  0  0  0  0
 21 22  1  0  0  0  0
 21 23  1  0  0  0  0
 21 60  1  0  0  0  0
 21 61  1  0  0  0  0
 22 27  1  0  0  0  0
 22 62  1  0  0  0  0
 22 63  1  0  0  0  0
 23 29  1  0  0  0  0
 23 64  1  0  0  0  0
 23 65  1  0  0  0  0
 24 32  1  0  0  0  0
 24 33  1  0  0  0  0
 24 34  1  0  0  0  0
 29 66  1  0  0  0  0
M  CHG  1  29   1
M  END
$$$$
