65
0 1 C24F3H30N5O2S
C                     3.350984655761   -10.133887224193     7.090055092906
C                     3.459004726633    -8.609352138823     5.190725363774
C                     3.041494893133    -7.473145658384     4.503149051791
C                     1.480526321941    -6.976310472930     6.293130459377
C                     2.889989748476    -8.944236703033     6.429347266952
C                     1.888850739752    -8.116313148967     6.977314671355
C                     2.058060942063    -6.654313696887     5.061378080743
C                     0.257911087450    -5.241008126297     4.118042262931
C                     2.431098108932    -4.447667393053     3.889233678356
C                     8.076416224760     0.540191489258     1.115991302438
C                     6.444145654731    -1.004018018505     2.112675025347
C                     5.630568735151     0.633573121454     0.494497254079
C                     5.278331550602    -0.652901901169     3.031667125104
C                     4.477382968895     0.963926531713     1.444027122893
C                     0.195818396653    -3.921057168115     3.350900389582
C                    -0.664861771806    -2.911139924399     4.122772466890
C                    -0.369458674775    -4.187224949374     1.945608662795
C                    10.096005089297     3.234699043238    -0.866551955831
C                     8.353060021423     1.697627024775     0.154827700193
C                     9.834304828430     2.078752390137     0.104628717006
C                     2.371838712297    -1.195226858311     3.739069193579
C                     2.100286489418    -2.298801086294     2.709628903902
C                     2.946363721701     0.064925249404     3.082222900733
C                     1.258320974646    -8.456938254017     8.309789539580
N                     3.753792178897   -11.107155670462     7.586318751098
N                     1.604342581265    -5.496088396134     4.370788898311
N                     1.614775108886    -3.539613682580     3.309492675022
N                     6.772055843224     0.123946722673     1.242814886433
N                     4.119215808647    -0.202697340551     2.249305146782
O                    -0.684734529818    -5.938758785631     4.436935462258
O                     8.987673251268     0.009421703897     1.754481676119
F                     0.337170281670    -7.536369269674     8.677838507433
F                     0.633919515565    -9.656761566748     8.272907549612
F                     2.182660145528    -8.514685611441     9.296820620366
S                     4.083584248554    -4.375094490476     4.041809941189
H                     4.225509206031    -9.251295092173     4.769634466379
H                     3.480077690309    -7.220165714063     3.545629750119
H                     0.710240776120    -6.341682023948     6.712096286930
H                     7.332306175660    -1.254983988447     2.690963611866
H                     6.170220659449    -1.872409489572     1.497931627163
H                     5.293251273423    -0.126961556369    -0.224648151010
H                     5.905199811585     1.526786967239    -0.063843468307
H                     5.009098960150    -1.547889093871     3.596498078976
H                     5.597565148462     0.125864767807     3.750273547328
H                     4.770130961605     1.822894938898     2.078888050007
H                     3.605806803538     1.267183380565     0.853172360947
H                    -0.730051736818    -1.966609737747     3.575354856441
H                    -0.247250166945    -2.714622003100     5.113911851993
H                    -1.673067476502    -3.315427831365     4.241616783521
H                    -0.450428889421    -3.255261033400     1.379276750682
H                    -1.365762305569    -4.626978011367     2.034687031206
H                     0.272217149919    -4.878292513296     1.391956355243
H                     9.547574157408     4.137811159332    -0.572482824588
H                     9.787540633974     2.978599789764    -1.887386326490
H                    11.160556244567     3.489549766585    -0.896971273861
H                     7.756825501076     2.569422269496     0.454285728728
H                     8.005898778763     1.424664015452    -0.850310787554
H                    10.420883198209     1.200924694551    -0.182423143415
H                    10.170098582589     2.345399944622     1.111264606924
H                     3.051245221369    -1.583659806404     4.501595969595
H                     1.445146396195    -0.921508347977     4.254092818901
H                     1.354116491023    -1.967335334955     1.982073941584
H                     3.015397344215    -2.519845773337     2.158803212297
H                     3.165373971083     0.811030338922     3.869768773096
H                     2.180444835096     0.509490421405     2.434260752407
