66
1 1 C24F3H31N5O2S
C                    -3.927978795447    -2.140818468613    -9.940870132940
C                    -4.392202239353    -4.168075116224    -8.665249355132
C                    -4.529394188233    -4.855034243535    -7.460736230539
C                    -4.066376485184    -2.802979452230    -6.250467663476
C                    -4.077300285052    -2.800631519405    -8.673419581385
C                    -3.916558018801    -2.117454331659    -7.449796232557
C                    -4.357504491824    -4.168593021961    -6.259742991665
C                    -5.686732879028    -5.553732897383    -4.672931125329
C                    -3.560734351582    -4.927644389604    -4.000731417188
C                     1.619335595129    -0.097315964214     0.162313419848
C                     0.487304767392    -2.002871066347     1.403729833791
C                    -0.622865241763    -0.895824340466    -0.458918378868
C                     0.113393812528    -3.374024020785     0.837601231563
C                    -0.995494767552    -2.234462525080    -1.077658594314
C                    -5.465377385042    -6.122144523560    -3.268632748835
C                    -5.506118648531    -7.656902656460    -3.332715638079
C                    -6.515373351796    -5.557649136832    -2.303418385003
C                     5.089753811638     0.719790567361     1.740031296442
C                     2.817458910195    -0.202983583088     1.093929486475
C                     3.894049958280     0.844282839987     0.791211657529
C                    -3.054059295816    -4.684527403597    -0.897552850199
C                    -3.368915391619    -5.935167847289    -1.763971421622
C                    -1.570780336902    -4.637815327804    -0.536277334767
C                    -3.585267435702    -0.639583685550    -7.428850117950
N                    -3.810201733998    -1.642284073968   -10.985931691541
N                    -4.517267563273    -4.861820819551    -5.020862977010
N                    -4.112209153121    -5.613141199194    -2.969758090549
N                     0.582871938511    -1.024867251349     0.341145820717
N                    -1.153494138984    -3.286335599819     0.012336078591
O                    -6.676705730013    -5.678605754260    -5.357233285616
O                     1.534489580757     0.738318924210    -0.725110713950
F                    -3.493874811304    -0.173239071837    -6.157254833518
F                    -2.403637066138    -0.389058827147    -8.031914538051
F                    -4.530351390430     0.090407894402    -8.055839518180
S                    -2.017849051579    -4.296599354064    -4.066410066770
H                    -4.521785889968    -4.687727946744    -9.608594444129
H                    -4.772852551750    -5.911879319176    -7.457653196484
H                    -3.950735897347    -2.278087804367    -5.311402353380
H                    -0.261301848637    -1.697998983436     2.153514604670
H                     1.436531168950    -2.108593555606     1.926476398329
H                    -0.432350655999    -0.171646491854    -1.252593001764
H                    -1.455451095769    -0.509815108666     0.150727852128
H                     0.889779289892    -3.753490574345     0.170049720788
H                    -0.066120703057    -4.097207963468     1.636257555179
H                    -1.930734015288    -2.184747236322    -1.633954459539
H                    -0.212175782828    -2.599925827246    -1.742926800677
H                    -5.383749847632    -8.093507992485    -2.337277667117
H                    -4.720177680689    -8.044909098305    -3.986696653291
H                    -6.475186486103    -7.971829042873    -3.726598645766
H                    -6.362512703838    -5.954660613730    -1.294947805946
H                    -7.512593808566    -5.850540155559    -2.639518760313
H                    -6.469407526997    -4.465516058818    -2.265525089760
H                     5.568990039470    -0.262653361941     1.657080689003
H                     4.790198689668     0.858602523478     2.785251163697
H                     5.846061924621     1.475880045488     1.510645294862
H                     3.248090068349    -1.210694978060     1.016111051296
H                     2.475299974417    -0.095776249035     2.132148159313
H                     3.451601103530     1.841929967051     0.864929556712
H                     4.218743273218     0.733548354614    -0.247521735398
H                    -3.667230016371    -4.688343935476     0.010472321747
H                    -3.326087555929    -3.799767634720    -1.473930609561
H                    -2.440522559259    -6.440216810281    -2.051908124549
H                    -3.961778190576    -6.650289198365    -1.193821649396
H                    -1.321773137573    -5.379293482296     0.226509018547
H                    -0.958409049651    -4.811770323489    -1.422513269932
H                    -1.899110051797    -2.960602150031     0.639102869844
