
  -OEChem-05262117483D

 66 68  0     0  0  0  0  0  0999 V2000
   -8.7067   -1.6913   -0.4420 C   0  0  0  0  0  0  0  0  0  0  0  0
   -6.6844   -1.3805   -1.7676 C   0  0  0  0  0  0  0  0  0  0  0  0
   -5.6022   -1.8803   -2.4881 C   0  0  0  0  0  0  0  0  0  0  0  0
   -6.4070   -4.1421   -2.1141 C   0  0  0  0  0  0  0  0  0  0  0  0
   -7.6241   -2.2551   -1.2000 C   0  0  0  0  0  0  0  0  0  0  0  0
   -7.4803   -3.6461   -1.3821 C   0  0  0  0  0  0  0  0  0  0  0  0
   -5.4659   -3.2593   -2.6463 C   0  0  0  0  0  0  0  0  0  0  0  0
   -4.0562   -3.3908   -4.7058 C   0  0  0  0  0  0  0  0  0  0  0  0
   -3.3733   -4.6222   -2.8748 C   0  0  0  0  0  0  0  0  0  0  0  0
   -0.9388   -0.4824    1.0923 C   0  0  0  0  0  0  0  0  0  0  0  0
   -1.1768   -3.0167    1.1145 C   0  0  0  0  0  0  0  0  0  0  0  0
   -1.5889   -1.7404   -0.9150 C   0  0  0  0  0  0  0  0  0  0  0  0
   -0.1970   -3.9271    0.3674 C   0  0  0  0  0  0  0  0  0  0  0  0
   -0.6111   -2.6103   -1.6994 C   0  0  0  0  0  0  0  0  0  0  0  0
   -2.8108   -4.1758   -5.1171 C   0  0  0  0  0  0  0  0  0  0  0  0
   -1.7429   -3.2337   -5.6797 C   0  0  0  0  0  0  0  0  0  0  0  0
   -3.2314   -5.2350   -6.1537 C   0  0  0  0  0  0  0  0  0  0  0  0
   -0.0577    0.8739    4.6409 C   0  0  0  0  0  0  0  0  0  0  0  0
   -0.6063   -0.4954    2.5774 C   0  0  0  0  0  0  0  0  0  0  0  0
   -0.3903    0.9105    3.1463 C   0  0  0  0  0  0  0  0  0  0  0  0
    0.0487   -5.1382   -3.3261 C   0  0  0  0  0  0  0  0  0  0  0  0
   -1.3150   -5.7488   -3.7147 C   0  0  0  0  0  0  0  0  0  0  0  0
    0.3489   -4.9500   -1.8370 C   0  0  0  0  0  0  0  0  0  0  0  0
   -8.4847   -4.6099   -0.7791 C   0  0  0  0  0  0  0  0  0  0  0  0
   -9.5600   -1.1919    0.1718 N   0  0  0  0  0  0  0  0  0  0  0  0
   -4.3505   -3.7718   -3.3837 N   0  0  0  0  0  0  0  0  0  0  0  0
   -2.4243   -4.7993   -3.8243 N   0  0  0  0  0  0  0  0  0  0  0  0
   -1.2273   -1.7083    0.4903 N   0  0  0  0  0  0  0  0  0  0  0  0
   -0.5480   -3.9914   -1.0994 N   0  3  0  0  0  0  0  0  0  0  0  0
   -4.6788   -2.6024   -5.3762 O   0  0  0  0  0  0  0  0  0  0  0  0
   -0.9662    0.5446    0.4250 O   0  0  0  0  0  0  0  0  0  0  0  0
   -8.1853   -5.8910   -1.0940 F   0  0  0  0  0  0  0  0  0  0  0  0
   -8.4970   -4.5166    0.5687 F   0  0  0  0  0  0  0  0  0  0  0  0
   -9.7330   -4.3622   -1.2217 F   0  0  0  0  0  0  0  0  0  0  0  0
   -3.3938   -5.2784   -1.3259 S   0  0  0  0  0  0  0  0  0  0  0  0
   -6.8070   -0.3107   -1.6355 H   0  0  0  0  0  0  0  0  0  0  0  0
   -4.8813   -1.2015   -2.9314 H   0  0  0  0  0  0  0  0  0  0  0  0
   -6.3009   -5.2096   -2.2613 H   0  0  0  0  0  0  0  0  0  0  0  0
   -2.1747   -3.4756    1.1188 H   0  0  0  0  0  0  0  0  0  0  0  0
   -0.8469   -2.9441    2.1491 H   0  0  0  0  0  0  0  0  0  0  0  0
   -1.5541   -0.7202   -1.2994 H   0  0  0  0  0  0  0  0  0  0  0  0
   -2.6111   -2.1248   -1.0338 H   0  0  0  0  0  0  0  0  0  0  0  0
    0.8266   -3.5511    0.4405 H   0  0  0  0  0  0  0  0  0  0  0  0
   -0.2387   -4.9477    0.7546 H   0  0  0  0  0  0  0  0  0  0  0  0
   -0.9329   -2.7154   -2.7341 H   0  0  0  0  0  0  0  0  0  0  0  0
    0.3992   -2.1935   -1.6723 H   0  0  0  0  0  0  0  0  0  0  0  0
   -0.8609   -3.7927   -6.0038 H   0  0  0  0  0  0  0  0  0  0  0  0
   -1.4416   -2.4783   -4.9483 H   0  0  0  0  0  0  0  0  0  0  0  0
   -2.1543   -2.7131   -6.5472 H   0  0  0  0  0  0  0  0  0  0  0  0
   -2.3642   -5.7875   -6.5244 H   0  0  0  0  0  0  0  0  0  0  0  0
   -3.6998   -4.7312   -7.0024 H   0  0  0  0  0  0  0  0  0  0  0  0
   -3.9483   -5.9428   -5.7285 H   0  0  0  0  0  0  0  0  0  0  0  0
    0.8605    0.3075    4.8351 H   0  0  0  0  0  0  0  0  0  0  0  0
   -0.8644    0.4116    5.2213 H   0  0  0  0  0  0  0  0  0  0  0  0
    0.0904    1.8855    5.0297 H   0  0  0  0  0  0  0  0  0  0  0  0
    0.2953   -1.1024    2.7388 H   0  0  0  0  0  0  0  0  0  0  0  0
   -1.4146   -0.9992    3.1233 H   0  0  0  0  0  0  0  0  0  0  0  0
   -1.2903    1.5076    2.9721 H   0  0  0  0  0  0  0  0  0  0  0  0
    0.4118    1.4034    2.5892 H   0  0  0  0  0  0  0  0  0  0  0  0
    0.2260   -4.2152   -3.8819 H   0  0  0  0  0  0  0  0  0  0  0  0
    0.8176   -5.8379   -3.6725 H   0  0  0  0  0  0  0  0  0  0  0  0
   -1.2048   -6.2215   -4.6922 H   0  0  0  0  0  0  0  0  0  0  0  0
   -1.6062   -6.5308   -3.0096 H   0  0  0  0  0  0  0  0  0  0  0  0
    0.2580   -5.9038   -1.3110 H   0  0  0  0  0  0  0  0  0  0  0  0
    1.3725   -4.5877   -1.7111 H   0  0  0  0  0  0  0  0  0  0  0  0
   -1.5178   -4.4067   -1.1431 H   0  0  0  0  0  0  0  0  0  0  0  0
  1  5  1  0  0  0  0
  1 25  3  0  0  0  0
  2  3  1  0  0  0  0
  2  5  2  0  0  0  0
  2 36  1  0  0  0  0
  3  7  2  0  0  0  0
  3 37  1  0  0  0  0
  4  6  2  0  0  0  0
  4  7  1  0  0  0  0
  4 38  1  0  0  0  0
  5  6  1  0  0  0  0
  6 24  1  0  0  0  0
  7 26  1  0  0  0  0
  8 15  1  0  0  0  0
  8 26  1  0  0  0  0
  8 30  2  0  0  0  0
  9 26  1  0  0  0  0
  9 27  1  0  0  0  0
  9 35  2  0  0  0  0
 10 19  1  0  0  0  0
 10 28  1  0  0  0  0
 10 31  2  0  0  0  0
 11 13  1  0  0  0  0
 11 28  1  0  0  0  0
 11 39  1  0  0  0  0
 11 40  1  0  0  0  0
 12 14  1  0  0  0  0
 12 28  1  0  0  0  0
 12 41  1  0  0  0  0
 12 42  1  0  0  0  0
 13 29  1  0  0  0  0
 13 43  1  0  0  0  0
 13 44  1  0  0  0  0
 14 29  1  0  0  0  0
 14 45  1  0  0  0  0
 14 46  1  0  0  0  0
 15 16  1  0  0  0  0
 15 17  1  0  0  0  0
 15 27  1  0  0  0  0
 16 47  1  0  0  0  0
 16 48  1  0  0  0  0
 16 49  1  0  0  0  0
 17 50  1  0  0  0  0
 17 51  1  0  0  0  0
 17 52  1  0  0  0  0
 18 20  1  0  0  0  0
 18 53  1  0  0  0  0
 18 54  1  0  0  0  0
 18 55  1  0  0  0  0
 19 20  1  0  0  0  0
 19 56  1  0  0  0  0
 19 57  1  0  0  0  0
 20 58  1  0  0  0  0
 20 59  1  0  0  0  0
 21 22  1  0  0  0  0
 21 23  1  0  0  0  0
 21 60  1  0  0  0  0
 21 61  1  0  0  0  0
 22 27  1  0  0  0  0
 22 62  1  0  0  0  0
 22 63  1  0  0  0  0
 23 29  1  0  0  0  0
 23 64  1  0  0  0  0
 23 65  1  0  0  0  0
 24 32  1  0  0  0  0
 24 33  1  0  0  0  0
 24 34  1  0  0  0  0
 29 66  1  0  0  0  0
M  CHG  1  29   1
M  END
$$$$
