44
0 1 C19H19N3O3
C                     2.389976790370    -2.125527406267    -2.729310650108
C                    -0.001577567225     2.397423604917     2.430970720102
C                     0.833649949999     1.308424658309     2.080248437613
C                    -1.088381010503     2.796456147168     1.646436437580
C                    -0.506263123059     0.966771277270     0.143317624894
C                     0.584311353441     0.576150139077     0.922983000818
C                    -0.968515164893     0.390319766480    -1.077954324999
C                    -1.330772965522     2.064425652715     0.475689952046
C                    -2.052679723132     1.141153350715    -1.479859987289
C                     0.971530469557    -1.898551584628     1.135785747514
C                     1.012217132542    -3.101975757773     0.551933328300
C                    -1.814320437132    -4.411707568461     1.023253456652
C                    -0.246268786641    -0.811104534859    -1.616525510679
C                     1.470016285734    -3.302552346567    -0.869012190643
C                     1.374724170345    -0.621436971305     0.429053559178
C                     1.219646910179    -0.799992104482    -1.103982070150
C                    -2.938499672091    -5.034320128106     0.230898437674
C                    -2.944896334463     1.031532640492    -2.673317181756
C                     0.564837139954    -4.344223276276     1.270447493770
N                     2.818097600630    -2.196742170241    -3.816553500975
N                    -2.262052729447     2.164844129997    -0.544572007624
N                     1.934240565740    -2.041304820859    -1.474761560660
O                    -1.943601652388    -3.572529711608     1.891629597455
O                    -4.338487122314     1.048420754367    -2.320619729453
O                    -0.613564888785    -4.919638192411     0.632550295991
H                     0.216012328189     2.950277844441     3.340955837434
H                     1.674050788303     1.055176675148     2.723059564387
H                    -1.703277362068     3.643643238690     1.938758500845
H                     0.607182741744    -1.809507072974     2.156411744063
H                    -0.737134445693    -1.729263852564    -1.271171656908
H                    -0.229899864402    -0.843289288607    -2.710535918933
H                     2.306133429226    -4.010910648845    -0.894388709153
H                     0.658064204779    -3.752889185612    -1.458042196105
H                     2.440589886475    -0.444273621817     0.623139636022
H                     1.747259957683     0.021115065015    -1.595466088648
H                    -2.841555634788    -4.759102686280    -0.823965684246
H                    -3.894340852285    -4.681795499788     0.617409191883
H                    -2.885707852866    -6.124749583592     0.289762475431
H                    -2.820237429225     1.890003573473    -3.341251520492
H                    -2.683964031439     0.128323526215    -3.238948960669
H                     0.342637237892    -4.132005191021     2.316541593528
H                     1.310350355346    -5.141449001054     1.205114492159
H                    -3.076058298443     2.764527430521    -0.555853811750
H                    -4.493936605730     0.311202947389    -1.707696065861
