44
0 1 C17H20N4O3
C                    -5.134063745692    -0.965487011806    -4.828508674922
C                    -3.759588997733     0.201057166370    -3.178494083922
C                    -4.379602196585     0.174574916204    -4.409577698981
C                    -3.008563708470     1.314895310239    -2.722997253770
C                    -2.930943926416     2.430285827205    -3.542869424202
C                    -4.280358884301     1.314203490412    -5.315757857539
C                     0.963999351789    -1.013128656162     1.276341480126
C                    -2.408816187000     1.346548050387    -1.348361773526
C                     2.656786939845     0.238985408476    -0.848283107486
C                     1.263156040361     0.761125160214    -0.467489975451
C                     0.001085898095    -1.405165883155    -1.045501267821
C                     3.086940928325    -0.972723356701     0.008793792802
C                    -1.121761921710    -0.756674621119    -1.875048078272
C                    -1.062124830133     0.197319153806     0.359020987677
C                     0.336755168607    -0.355028800714     0.044404037638
C                    -2.242987781615     3.718346042497    -3.190753950411
C                     3.000987017961    -1.807529468945     2.349773065091
N                    -5.733412034707    -1.915861325737    -5.138848068604
N                    -3.534940042373     2.381065324432    -4.762460559103
N                     2.333760326741    -1.100646888446     1.260594214108
N                    -1.728298622748     0.227280675339    -0.954082761365
O                    -4.759546867047     1.420251974000    -6.438832530323
O                     0.280328716878    -1.410317333341     2.221806871079
O                    -2.551254880298     2.335763558823    -0.620758857168
H                    -3.877420321013    -0.655473136193    -2.521933324516
H                     2.681938706209    -0.057511100966    -1.901399748670
H                     3.383217421758     1.049133291481    -0.738477878461
H                     1.354290981917     1.505765249084     0.329647509027
H                     0.804793530402     1.276451771240    -1.318517898670
H                    -0.369229265871    -2.313569416807    -0.561472308450
H                     0.852787691449    -1.682034749469    -1.670687337952
H                     2.992018004001    -1.902784870019    -0.569430128262
H                     4.143404768828    -0.886257287465     0.275427863852
H                    -0.734458745795    -0.251797243839    -2.765766514835
H                    -1.840430252377    -1.509721399078    -2.208586733164
H                    -1.587911787626    -0.469627062908     1.046679914806
H                    -1.049832593874     1.200416218753     0.784098531548
H                    -1.942309084133     4.258715520510    -4.093453456450
H                    -1.367636513664     3.542518399791    -2.566074244661
H                    -2.920288340017     4.349612395822    -2.607717056780
H                     3.203774392722    -2.853446638302     2.082298904052
H                     2.357550451349    -1.791916973778     3.227968819303
H                     3.950151844459    -1.312515134646     2.577431340121
H                    -3.472635469021     3.186792762650    -5.379562367820
