44
0 1 C17H20N4O3
C                    -1.664676366390     3.866585422917    -5.534965527063
C                    -2.232421049361     2.621289552633    -3.511893036030
C                    -2.578742302575     3.082460088543    -4.764471839970
C                    -3.108228626821     1.847635873243    -2.709255161914
C                    -4.375383966286     1.573242995347    -3.203544840940
C                    -3.889459113140     2.780488108417    -5.329582993176
C                     0.664202681590    -1.119872134639     1.071127600307
C                    -2.735771787432     1.429320118727    -1.318391308897
C                     2.815059869435     0.605482045565    -0.094284487895
C                     1.382390487599     1.096727770273     0.152772905084
C                     0.258212146949    -0.633870688383    -1.389588123180
C                     3.030683442879    -0.846916734885     0.388448511195
C                    -0.579523051117     0.391415300892    -2.161236316194
C                    -1.081326019931     0.509642252931     0.224868458067
C                     0.343997307992    -0.033433611966     0.038506437001
C                    -5.450278218228     0.826246697321    -2.467193577519
C                     2.387585105173    -2.402302629382     2.216171832299
N                    -0.886822422267     4.495743274937    -6.133383178577
N                    -4.694934731799     2.021808545973    -4.448704056501
N                     1.999703723779    -1.316855747759     1.320200602823
N                    -1.476308197477     0.940841482820    -1.129366986702
O                    -4.324441933627     3.108733070289    -6.427467142657
O                    -0.221144685661    -1.753047404791     1.649100262740
O                    -3.534897771698     1.546702392809    -0.382128235553
H                    -1.256441506530     2.887057212419    -3.118187657258
H                     3.058111136925     0.656238072435    -1.159932532270
H                     3.514833779626     1.275379637045     0.413093966096
H                     1.304844568100     1.511063154354     1.163318970080
H                     1.137497662249     1.914495826279    -0.533095894918
H                    -0.270302232222    -1.590968436906    -1.340776351592
H                     1.229529215212    -0.803458839641    -1.859367578542
H                     3.082375679486    -1.531184027685    -0.470408975155
H                     3.991264489807    -0.931591327592     0.903104046141
H                     0.063801964939     1.170801430003    -2.585785222616
H                    -1.144694160100    -0.057339049580    -2.981721379671
H                    -1.753269415798    -0.267666178281     0.594905248361
H                    -1.127221585871     1.352029876489     0.918827054677
H                    -5.984769230652     1.511243222776    -1.802259922281
H                    -5.028264472820     0.046067019357    -1.834338443704
H                    -6.163338942662     0.380784225982    -3.167413822228
H                     2.627167817134    -3.316674107197     1.656492058732
H                     1.561653337086    -2.615700377642     2.892695256925
H                     3.268846605221    -2.101204082702     2.790955498232
H                    -5.615426831986     1.814819885167    -4.828011565850
