31
0 1 BrC14H10N5O
C                    -8.295293248487     3.778369444022     4.601543622039
C                    -2.637928741548    -2.778056031124     1.428639988425
C                    -2.728782674130    -3.765241451735     2.405502659227
C                    -4.192574893931    -2.363352800088     3.791499754105
C                    -4.231084717667     0.484909224493     1.489694698124
C                    -8.399908884233     3.688388632671     3.188003969909
C                    -4.102842901704    -1.355017542227     2.815010650663
C                    -4.677563749011    -0.028050498581     2.703467995270
C                    -3.327366217407    -1.580627049476     1.647936533261
C                    -3.500401423723    -3.545565460379     3.565683476153
C                    -7.673293581887     2.924737064034     2.304455053742
C                    -9.138297389954     4.126995523285     1.213127663907
C                    -5.473327515909     0.613323795647     3.741707766403
C                    -9.830174161084     4.601168964573    -0.013479773422
N                    -8.233305017271     3.884748732159     5.761294932281
N                    -9.328344606407     4.445048870754     2.447092998135
N                    -6.345802822139     1.560055597626     3.650343955704
N                    -3.423422385311    -0.439351337114     0.866412104878
N                    -6.612167483779     2.056676947861     2.392468537685
O                    -8.120035138045     3.184886862133     1.044492550222
Br                   -3.597886804022    -4.948353946122     4.871786544079
H                    -2.048187696544    -2.943449294089     0.531003835149
H                    -2.208469610372    -4.708189599614     2.276968599859
H                    -4.786806420326    -2.231989896937     4.689723209416
H                    -4.365882621219     1.468378201803     1.060862970032
H                    -5.337672694532     0.249442585171     4.758385857539
H                    -9.126449974766     5.079295317291    -0.702757014421
H                   -10.307295251729     3.769328329667    -0.542085192240
H                   -10.593237115325     5.324202721472     0.276177120573
H                    -2.963515773294    -0.297762613545    -0.022272761874
H                    -6.500515722628     1.427125758420     1.594159476030
