
  -OEChem-05262117483D

 31 33  0     0  0  0  0  0  0999 V2000
   -8.9256    0.4751    0.7779 C   0  0  0  0  0  0  0  0  0  0  0  0
   -1.0971    0.6427   -0.5696 C   0  0  0  0  0  0  0  0  0  0  0  0
   -0.1741    1.5595   -0.0750 C   0  0  0  0  0  0  0  0  0  0  0  0
   -1.5454    1.9751    1.9191 C   0  0  0  0  0  0  0  0  0  0  0  0
   -4.2253   -0.3416    0.9879 C   0  0  0  0  0  0  0  0  0  0  0  0
   -8.9445    0.6265    2.1854 C   0  0  0  0  0  0  0  0  0  0  0  0
   -2.4828    1.0460    1.4331 C   0  0  0  0  0  0  0  0  0  0  0  0
   -3.7580    0.5677    1.9337 C   0  0  0  0  0  0  0  0  0  0  0  0
   -2.2424    0.3957    0.1947 C   0  0  0  0  0  0  0  0  0  0  0  0
   -0.4101    2.2087    1.1546 C   0  0  0  0  0  0  0  0  0  0  0  0
   -7.8295    0.6704    2.9974 C   0  0  0  0  0  0  0  0  0  0  0  0
   -9.6380    0.8361    4.2011 C   0  0  0  0  0  0  0  0  0  0  0  0
   -4.3311    0.9613    3.2131 C   0  0  0  0  0  0  0  0  0  0  0  0
  -10.3739    0.9939    5.4817 C   0  0  0  0  0  0  0  0  0  0  0  0
   -8.8043    0.3402   -0.3766 N   0  0  0  0  0  0  0  0  0  0  0  0
  -10.0858    0.7341    2.9945 N   0  0  0  0  0  0  0  0  0  0  0  0
   -5.5616    0.9590    3.6117 N   0  0  0  0  0  0  0  0  0  0  0  0
   -3.3178   -0.4470   -0.0396 N   0  0  0  0  0  0  0  0  0  0  0  0
   -6.5017    0.5270    2.7016 N   0  0  0  0  0  0  0  0  0  0  0  0
   -8.2415    0.8004    4.2771 O   0  0  0  0  0  0  0  0  0  0  0  0
    0.8915    3.4740    1.7799 Br  0  0  0  0  0  0  0  0  0  0  0  0
   -0.9240    0.1434   -1.5191 H   0  0  0  0  0  0  0  0  0  0  0  0
    0.7279    1.7806   -0.6352 H   0  0  0  0  0  0  0  0  0  0  0  0
   -1.7010    2.5029    2.8541 H   0  0  0  0  0  0  0  0  0  0  0  0
   -5.1011   -0.9758    1.0003 H   0  0  0  0  0  0  0  0  0  0  0  0
   -3.6377    1.3402    3.9615 H   0  0  0  0  0  0  0  0  0  0  0  0
  -10.1332    0.1811    6.1742 H   0  0  0  0  0  0  0  0  0  0  0  0
  -10.1115    1.9387    5.9688 H   0  0  0  0  0  0  0  0  0  0  0  0
  -11.4441    0.9839    5.2726 H   0  0  0  0  0  0  0  0  0  0  0  0
   -3.4393   -1.0312   -0.8556 H   0  0  0  0  0  0  0  0  0  0  0  0
   -6.2878    0.6278    1.7071 H   0  0  0  0  0  0  0  0  0  0  0  0
  1  6  1  0  0  0  0
  1 15  3  0  0  0  0
  2  3  1  0  0  0  0
  2  9  2  0  0  0  0
  2 22  1  0  0  0  0
  3 10  2  0  0  0  0
  3 23  1  0  0  0  0
  4  7  2  0  0  0  0
  4 10  1  0  0  0  0
  4 24  1  0  0  0  0
  5  8  2  0  0  0  0
  5 18  1  0  0  0  0
  5 25  1  0  0  0  0
  6 11  2  0  0  0  0
  6 16  1  0  0  0  0
  7  8  1  0  0  0  0
  7  9  1  0  0  0  0
  8 13  1  0  0  0  0
  9 18  1  0  0  0  0
 10 21  1  0  0  0  0
 11 19  1  0  0  0  0
 11 20  1  0  0  0  0
 12 14  1  0  0  0  0
 12 16  2  0  0  0  0
 12 20  1  0  0  0  0
 13 17  2  0  0  0  0
 13 26  1  0  0  0  0
 14 27  1  0  0  0  0
 14 28  1  0  0  0  0
 14 29  1  0  0  0  0
 17 19  1  0  0  0  0
 18 30  1  0  0  0  0
 19 31  1  0  0  0  0
M  END
$$$$
