32
0 1 C14H12N4O2
C                    -2.845055342979    -0.337592607418     0.574780347992
C                     4.171120811536    -2.953888896809    -5.309202531964
C                     3.271247143552    -3.776839534496    -5.987525603616
C                     3.741556083047    -2.200987219242    -4.213398080672
C                     1.501226527898    -3.110477375962    -4.490327283772
C                    -1.467441986774    -0.221421911018     0.206803464658
C                     1.923191573128    -3.864048870167    -5.584780269386
C                    -0.937425485172    -0.923803294288    -0.866122898948
C                     2.404498492552    -2.277530051587    -3.801010957744
C                     0.447922880780    -0.798211978804    -1.225603662244
C                    -0.656919435719     0.670866922419     1.017342309079
C                     1.245492957044     0.057085679531    -0.455893369094
C                     0.963043536036    -4.757538200316    -6.336776201948
C                    -1.803634740550    -1.841518896902    -1.687254622268
N                    -3.970371816806    -0.444831887899     0.859314954757
N                     2.070116921865    -1.476272028215    -2.680339575013
N                     0.857142904561    -1.559526605627    -2.325611833797
N                     0.696709582549     0.731094877394     0.589029317532
O                    -1.000098953250     1.342608971649     1.982031856120
O                     2.548828576328     0.243390856381    -0.707811656928
H                     5.207026202073    -2.899178677901    -5.633283340156
H                     3.611761550022    -4.361406972666    -6.839827251088
H                     4.419547672802    -1.552504021867    -3.666182261369
H                     0.470565182976    -3.154942205477    -4.153271431382
H                     1.324102274023    -5.791483931222    -6.363584959745
H                    -0.027446342251    -4.758766759295    -5.874346425364
H                     0.848488518203    -4.426128123711    -7.375035801351
H                    -1.796502347226    -1.527419984894    -2.734538693404
H                    -2.829784304699    -1.853049488402    -1.321169473378
H                    -1.400304861298    -2.857601065706    -1.665483652684
H                     1.260317512636     1.358024369472     1.158988617713
H                     2.940095247217     0.866638957856    -0.070332186347
