
  -OEChem-05262117483D

 44 46  0     1  0  0  0  0  0999 V2000
    1.3363    1.3042   -3.2680 C   0  0  0  0  0  0  0  0  0  0  0  0
    0.8328    1.1683   -0.8890 C   0  0  0  0  0  0  0  0  0  0  0  0
    0.6108    0.7313   -2.1772 C   0  0  0  0  0  0  0  0  0  0  0  0
    0.1774    0.5930    0.2310 C   0  0  0  0  0  0  0  0  0  0  0  0
   -0.7646   -0.3913    0.0067 C   0  0  0  0  0  0  0  0  0  0  0  0
   -0.3439   -0.3395   -2.4490 C   0  0  0  0  0  0  0  0  0  0  0  0
    3.7859    2.6055    0.4107 C   0  0  0  0  0  0  0  0  0  0  0  0
    0.4505    1.1299    1.6088 C   0  0  0  0  0  0  0  0  0  0  0  0
    5.7157    0.4553    0.0289 C   0  0  0  0  0  0  0  0  0  0  0  0
    5.4227    0.9442    1.4460 C   0  0  0  0  0  0  0  0  0  0  0  0
    3.7013    2.1766    2.9043 C   0  0  0  0  0  0  0  0  0  0  0  0
    5.6591    1.6234   -0.9478 C   0  0  0  0  0  0  0  0  0  0  0  0
    2.1790    2.0145    3.1161 C   0  0  0  0  0  0  0  0  0  0  0  0
    2.9014    0.5063    1.3879 C   0  0  0  0  0  0  0  0  0  0  0  0
    4.0268    1.5666    1.5187 C   0  0  1  0  0  0  0  0  0  0  0  0
   -1.5980   -1.0513    1.0663 C   0  0  0  0  0  0  0  0  0  0  0  0
    4.2540    3.4456   -1.8355 C   0  0  0  0  0  0  0  0  0  0  0  0
    1.9806    1.7840   -4.1130 N   0  0  0  0  0  0  0  0  0  0  0  0
   -0.9811   -0.8036   -1.2775 N   0  0  0  0  0  0  0  0  0  0  0  0
    4.4820    2.4782   -0.7600 N   0  0  0  0  0  0  0  0  0  0  0  0
    1.7495    1.1343    2.0185 N   0  0  0  0  0  0  0  0  0  0  0  0
   -0.6212   -0.8316   -3.5379 O   0  0  0  0  0  0  0  0  0  0  0  0
    2.9053    3.4627    0.5597 O   0  0  0  0  0  0  0  0  0  0  0  0
   -0.4584    1.5815    2.3125 O   0  0  0  0  0  0  0  0  0  0  0  0
    1.5200    1.9918   -0.7184 H   0  0  0  0  0  0  0  0  0  0  0  0
    6.7069   -0.0053   -0.0313 H   0  0  0  0  0  0  0  0  0  0  0  0
    4.9897   -0.3116   -0.2632 H   0  0  0  0  0  0  0  0  0  0  0  0
    5.4959    0.1224    2.1678 H   0  0  0  0  0  0  0  0  0  0  0  0
    6.1704    1.6919    1.7405 H   0  0  0  0  0  0  0  0  0  0  0  0
    4.0014    3.2239    2.9622 H   0  0  0  0  0  0  0  0  0  0  0  0
    4.2563    1.6210    3.6672 H   0  0  0  0  0  0  0  0  0  0  0  0
    6.5637    2.2416   -0.8424 H   0  0  0  0  0  0  0  0  0  0  0  0
    5.6432    1.2579   -1.9800 H   0  0  0  0  0  0  0  0  0  0  0  0
    1.9424    1.5708    4.0889 H   0  0  0  0  0  0  0  0  0  0  0  0
    1.6393    2.9578    3.0294 H   0  0  0  0  0  0  0  0  0  0  0  0
    2.6934    0.1987    0.3654 H   0  0  0  0  0  0  0  0  0  0  0  0
    3.1977   -0.3924    1.9504 H   0  0  0  0  0  0  0  0  0  0  0  0
   -2.6265   -0.6770    1.0134 H   0  0  0  0  0  0  0  0  0  0  0  0
   -1.2220   -0.8241    2.0618 H   0  0  0  0  0  0  0  0  0  0  0  0
   -1.6214   -2.1367    0.9210 H   0  0  0  0  0  0  0  0  0  0  0  0
    5.1410    4.0780   -1.9684 H   0  0  0  0  0  0  0  0  0  0  0  0
    3.4051    4.0745   -1.5756 H   0  0  0  0  0  0  0  0  0  0  0  0
    4.0440    2.9210   -2.7718 H   0  0  0  0  0  0  0  0  0  0  0  0
   -1.6629   -1.5369   -1.4545 H   0  0  0  0  0  0  0  0  0  0  0  0
  1  3  1  0  0  0  0
  1 18  3  0  0  0  0
  2  3  2  0  0  0  0
  2  4  1  0  0  0  0
  2 25  1  0  0  0  0
  3  6  1  0  0  0  0
  4  5  2  0  0  0  0
  4  8  1  0  0  0  0
  5 16  1  0  0  0  0
  5 19  1  0  0  0  0
  6 19  1  0  0  0  0
  6 22  2  0  0  0  0
  7 15  1  0  0  0  0
  7 20  1  0  0  0  0
  7 23  2  0  0  0  0
  8 21  1  0  0  0  0
  8 24  2  0  0  0  0
  9 10  1  0  0  0  0
  9 12  1  0  0  0  0
  9 26  1  0  0  0  0
  9 27  1  0  0  0  0
 10 15  1  0  0  0  0
 10 28  1  0  0  0  0
 10 29  1  0  0  0  0
 11 13  1  0  0  0  0
 11 15  1  0  0  0  0
 11 30  1  0  0  0  0
 11 31  1  0  0  0  0
 12 20  1  0  0  0  0
 12 32  1  0  0  0  0
 12 33  1  0  0  0  0
 13 21  1  0  0  0  0
 13 34  1  0  0  0  0
 13 35  1  0  0  0  0
 14 15  1  0  0  0  0
 14 21  1  0  0  0  0
 14 36  1  0  0  0  0
 14 37  1  0  0  0  0
 16 38  1  0  0  0  0
 16 39  1  0  0  0  0
 16 40  1  0  0  0  0
 17 20  1  0  0  0  0
 17 41  1  0  0  0  0
 17 42  1  0  0  0  0
 17 43  1  0  0  0  0
 19 44  1  0  0  0  0
M  END
$$$$
