
  -OEChem-05262117483D

 44 46  0     1  0  0  0  0  0999 V2000
    2.2893    4.4385    2.0895 C   0  0  0  0  0  0  0  0  0  0  0  0
    2.4500    2.8223    0.2690 C   0  0  0  0  0  0  0  0  0  0  0  0
    2.5385    4.1230    0.7176 C   0  0  0  0  0  0  0  0  0  0  0  0
    2.6808    2.4605   -1.0818 C   0  0  0  0  0  0  0  0  0  0  0  0
    3.0522    3.4549   -1.9706 C   0  0  0  0  0  0  0  0  0  0  0  0
    2.8823    5.2029   -0.2026 C   0  0  0  0  0  0  0  0  0  0  0  0
   -1.9577   -0.2628   -0.1631 C   0  0  0  0  0  0  0  0  0  0  0  0
    2.6416    1.0227   -1.5111 C   0  0  0  0  0  0  0  0  0  0  0  0
   -0.5750    0.3788    2.3116 C   0  0  0  0  0  0  0  0  0  0  0  0
    0.1005   -0.5950    1.3518 C   0  0  0  0  0  0  0  0  0  0  0  0
    0.0672   -1.5526   -1.0087 C   0  0  0  0  0  0  0  0  0  0  0  0
   -2.0737    0.1139    2.3263 C   0  0  0  0  0  0  0  0  0  0  0  0
    1.5001   -1.1495   -1.4028 C   0  0  0  0  0  0  0  0  0  0  0  0
    0.2255    0.8066   -0.7595 C   0  0  0  0  0  0  0  0  0  0  0  0
   -0.4286   -0.4179   -0.0812 C   0  0  1  0  0  0  0  0  0  0  0  0
    3.4086    3.2287   -3.4116 C   0  0  0  0  0  0  0  0  0  0  0  0
   -4.1029    0.1469    0.9201 C   0  0  0  0  0  0  0  0  0  0  0  0
    2.0644    4.6457    3.2145 N   0  0  0  0  0  0  0  0  0  0  0  0
    3.1260    4.7370   -1.5153 N   0  0  0  0  0  0  0  0  0  0  0  0
   -2.6474    0.0428    0.9790 N   0  0  0  0  0  0  0  0  0  0  0  0
    1.5516    0.2990   -1.1339 N   0  0  0  0  0  0  0  0  0  0  0  0
    2.9758    6.3983    0.0513 O   0  0  0  0  0  0  0  0  0  0  0  0
   -2.5178   -0.3661   -1.2592 O   0  0  0  0  0  0  0  0  0  0  0  0
    3.5809    0.5178   -2.1367 O   0  0  0  0  0  0  0  0  0  0  0  0
    2.2160    2.0413    0.9869 H   0  0  0  0  0  0  0  0  0  0  0  0
   -0.1834    0.2662    3.3273 H   0  0  0  0  0  0  0  0  0  0  0  0
   -0.3861    1.4161    2.0125 H   0  0  0  0  0  0  0  0  0  0  0  0
    1.1889   -0.4712    1.3612 H   0  0  0  0  0  0  0  0  0  0  0  0
   -0.0993   -1.6215    1.6840 H   0  0  0  0  0  0  0  0  0  0  0  0
   -0.5790   -1.5900   -1.8868 H   0  0  0  0  0  0  0  0  0  0  0  0
    0.0344   -2.5282   -0.5168 H   0  0  0  0  0  0  0  0  0  0  0  0
   -2.2846   -0.8262    2.8584 H   0  0  0  0  0  0  0  0  0  0  0  0
   -2.5956    0.9098    2.8687 H   0  0  0  0  0  0  0  0  0  0  0  0
    2.2688   -1.6505   -0.8063 H   0  0  0  0  0  0  0  0  0  0  0  0
    1.7209   -1.3533   -2.4540 H   0  0  0  0  0  0  0  0  0  0  0  0
   -0.3503    1.0857   -1.6499 H   0  0  0  0  0  0  0  0  0  0  0  0
    0.2852    1.6748   -0.1057 H   0  0  0  0  0  0  0  0  0  0  0  0
    3.2467    4.1351   -4.0025 H   0  0  0  0  0  0  0  0  0  0  0  0
    2.8255    2.4128   -3.8385 H   0  0  0  0  0  0  0  0  0  0  0  0
    4.4607    2.9379   -3.4885 H   0  0  0  0  0  0  0  0  0  0  0  0
   -4.5654   -0.6403    1.5287 H   0  0  0  0  0  0  0  0  0  0  0  0
   -4.4252    0.0407   -0.1137 H   0  0  0  0  0  0  0  0  0  0  0  0
   -4.4250    1.1203    1.3071 H   0  0  0  0  0  0  0  0  0  0  0  0
    3.3808    5.4791   -2.1621 H   0  0  0  0  0  0  0  0  0  0  0  0
  1  3  1  0  0  0  0
  1 18  3  0  0  0  0
  2  3  2  0  0  0  0
  2  4  1  0  0  0  0
  2 25  1  0  0  0  0
  3  6  1  0  0  0  0
  4  5  2  0  0  0  0
  4  8  1  0  0  0  0
  5 16  1  0  0  0  0
  5 19  1  0  0  0  0
  6 19  1  0  0  0  0
  6 22  2  0  0  0  0
  7 15  1  0  0  0  0
  7 20  1  0  0  0  0
  7 23  2  0  0  0  0
  8 21  1  0  0  0  0
  8 24  2  0  0  0  0
  9 10  1  0  0  0  0
  9 12  1  0  0  0  0
  9 26  1  0  0  0  0
  9 27  1  0  0  0  0
 10 15  1  0  0  0  0
 10 28  1  0  0  0  0
 10 29  1  0  0  0  0
 11 13  1  0  0  0  0
 11 15  1  0  0  0  0
 11 30  1  0  0  0  0
 11 31  1  0  0  0  0
 12 20  1  0  0  0  0
 12 32  1  0  0  0  0
 12 33  1  0  0  0  0
 13 21  1  0  0  0  0
 13 34  1  0  0  0  0
 13 35  1  0  0  0  0
 14 15  1  0  0  0  0
 14 21  1  0  0  0  0
 14 36  1  0  0  0  0
 14 37  1  0  0  0  0
 16 38  1  0  0  0  0
 16 39  1  0  0  0  0
 16 40  1  0  0  0  0
 17 20  1  0  0  0  0
 17 41  1  0  0  0  0
 17 42  1  0  0  0  0
 17 43  1  0  0  0  0
 19 44  1  0  0  0  0
M  END
$$$$
