31
0 1 BrC14H10N5O
C                    -2.764224841700     3.368237044645     1.561536129626
C                    -1.086808803843    -1.918215799192     2.498888048582
C                    -0.121790362582    -1.705212774798     3.479715833641
C                    -1.357222771833     0.219222497069     4.376231962183
C                    -4.111129875033     0.018250348310     1.967436809976
C                    -3.967030798277     3.249052789865     0.817271015728
C                    -2.344816664334     0.005455917586     3.400144509535
C                    -3.584109887013     0.684674478788     3.069242935187
C                    -2.187601660531    -1.057188453441     2.474620955387
C                    -0.271127193035    -0.645742985484     4.397391800882
C                    -5.227078954421     2.880856827166     1.241173368142
C                    -5.260678511068     3.368571071884    -0.898010191603
C                    -4.121293935180     1.790609159928     3.833127336505
C                    -5.923145152734     3.558089883724    -2.214935198076
N                    -1.772847157515     3.465056413089     2.168624863038
N                    -4.030954246428     3.549145460629    -0.557630418400
N                    -5.115424526217     2.593745640688     3.632843589087
N                    -3.285561715191    -1.020669902382     1.623251130773
N                    -5.808280164059     2.412374131143     2.399272624175
O                    -6.062764855529     2.946112103229     0.161067482689
Br                    1.094376037956    -0.392784298212     5.723234120701
H                    -0.975539606065    -2.727032145333     1.781624561699
H                     0.749387152414    -2.348671312847     3.537096010873
H                    -1.423994696241     1.039159703380     5.082988217498
H                    -5.026167856836     0.198100780297     1.425044234570
H                    -3.608550714378     2.003304446607     4.770422628208
H                    -6.399546784627     2.632504452885    -2.553952424630
H                    -6.696333955236     4.331234282966    -2.155644410649
H                    -5.170573814040     3.862302124987    -2.942976040326
H                    -3.441960949989    -1.646397495429     0.845147669011
H                    -6.755325604078     2.768502488017     2.503924598520
