
  -OEChem-05262117483D

 44 46  0     1  0  0  0  0  0999 V2000
   -1.6647    3.8666   -5.5350 C   0  0  0  0  0  0  0  0  0  0  0  0
   -2.2324    2.6213   -3.5119 C   0  0  0  0  0  0  0  0  0  0  0  0
   -2.5787    3.0825   -4.7645 C   0  0  0  0  0  0  0  0  0  0  0  0
   -3.1082    1.8476   -2.7093 C   0  0  0  0  0  0  0  0  0  0  0  0
   -4.3754    1.5732   -3.2035 C   0  0  0  0  0  0  0  0  0  0  0  0
   -3.8895    2.7805   -5.3296 C   0  0  0  0  0  0  0  0  0  0  0  0
    0.6642   -1.1199    1.0711 C   0  0  0  0  0  0  0  0  0  0  0  0
   -2.7358    1.4293   -1.3184 C   0  0  0  0  0  0  0  0  0  0  0  0
    2.8151    0.6055   -0.0943 C   0  0  0  0  0  0  0  0  0  0  0  0
    1.3824    1.0967    0.1528 C   0  0  0  0  0  0  0  0  0  0  0  0
    0.2582   -0.6339   -1.3896 C   0  0  0  0  0  0  0  0  0  0  0  0
    3.0307   -0.8469    0.3884 C   0  0  0  0  0  0  0  0  0  0  0  0
   -0.5795    0.3914   -2.1612 C   0  0  0  0  0  0  0  0  0  0  0  0
   -1.0813    0.5096    0.2249 C   0  0  0  0  0  0  0  0  0  0  0  0
    0.3440   -0.0334    0.0385 C   0  0  1  0  0  0  0  0  0  0  0  0
   -5.4503    0.8262   -2.4672 C   0  0  0  0  0  0  0  0  0  0  0  0
    2.3876   -2.4023    2.2162 C   0  0  0  0  0  0  0  0  0  0  0  0
   -0.8868    4.4957   -6.1334 N   0  0  0  0  0  0  0  0  0  0  0  0
   -4.6949    2.0218   -4.4487 N   0  0  0  0  0  0  0  0  0  0  0  0
    1.9997   -1.3169    1.3202 N   0  0  0  0  0  0  0  0  0  0  0  0
   -1.4763    0.9408   -1.1294 N   0  0  0  0  0  0  0  0  0  0  0  0
   -4.3244    3.1087   -6.4275 O   0  0  0  0  0  0  0  0  0  0  0  0
   -0.2211   -1.7530    1.6491 O   0  0  0  0  0  0  0  0  0  0  0  0
   -3.5349    1.5467   -0.3821 O   0  0  0  0  0  0  0  0  0  0  0  0
   -1.2564    2.8871   -3.1182 H   0  0  0  0  0  0  0  0  0  0  0  0
    3.0581    0.6562   -1.1599 H   0  0  0  0  0  0  0  0  0  0  0  0
    3.5148    1.2754    0.4131 H   0  0  0  0  0  0  0  0  0  0  0  0
    1.3048    1.5111    1.1633 H   0  0  0  0  0  0  0  0  0  0  0  0
    1.1375    1.9145   -0.5331 H   0  0  0  0  0  0  0  0  0  0  0  0
   -0.2703   -1.5910   -1.3408 H   0  0  0  0  0  0  0  0  0  0  0  0
    1.2295   -0.8035   -1.8594 H   0  0  0  0  0  0  0  0  0  0  0  0
    3.0824   -1.5312   -0.4704 H   0  0  0  0  0  0  0  0  0  0  0  0
    3.9913   -0.9316    0.9031 H   0  0  0  0  0  0  0  0  0  0  0  0
    0.0638    1.1708   -2.5858 H   0  0  0  0  0  0  0  0  0  0  0  0
   -1.1447   -0.0573   -2.9817 H   0  0  0  0  0  0  0  0  0  0  0  0
   -1.7533   -0.2677    0.5949 H   0  0  0  0  0  0  0  0  0  0  0  0
   -1.1272    1.3520    0.9188 H   0  0  0  0  0  0  0  0  0  0  0  0
   -5.9848    1.5112   -1.8023 H   0  0  0  0  0  0  0  0  0  0  0  0
   -5.0283    0.0461   -1.8343 H   0  0  0  0  0  0  0  0  0  0  0  0
   -6.1633    0.3808   -3.1674 H   0  0  0  0  0  0  0  0  0  0  0  0
    2.6272   -3.3167    1.6565 H   0  0  0  0  0  0  0  0  0  0  0  0
    1.5617   -2.6157    2.8927 H   0  0  0  0  0  0  0  0  0  0  0  0
    3.2688   -2.1012    2.7910 H   0  0  0  0  0  0  0  0  0  0  0  0
   -5.6154    1.8148   -4.8280 H   0  0  0  0  0  0  0  0  0  0  0  0
  1  3  1  0  0  0  0
  1 18  3  0  0  0  0
  2  3  2  0  0  0  0
  2  4  1  0  0  0  0
  2 25  1  0  0  0  0
  3  6  1  0  0  0  0
  4  5  2  0  0  0  0
  4  8  1  0  0  0  0
  5 16  1  0  0  0  0
  5 19  1  0  0  0  0
  6 19  1  0  0  0  0
  6 22  2  0  0  0  0
  7 15  1  0  0  0  0
  7 20  1  0  0  0  0
  7 23  2  0  0  0  0
  8 21  1  0  0  0  0
  8 24  2  0  0  0  0
  9 10  1  0  0  0  0
  9 12  1  0  0  0  0
  9 26  1  0  0  0  0
  9 27  1  0  0  0  0
 10 15  1  0  0  0  0
 10 28  1  0  0  0  0
 10 29  1  0  0  0  0
 11 13  1  0  0  0  0
 11 15  1  0  0  0  0
 11 30  1  0  0  0  0
 11 31  1  0  0  0  0
 12 20  1  0  0  0  0
 12 32  1  0  0  0  0
 12 33  1  0  0  0  0
 13 21  1  0  0  0  0
 13 34  1  0  0  0  0
 13 35  1  0  0  0  0
 14 15  1  0  0  0  0
 14 21  1  0  0  0  0
 14 36  1  0  0  0  0
 14 37  1  0  0  0  0
 16 38  1  0  0  0  0
 16 39  1  0  0  0  0
 16 40  1  0  0  0  0
 17 20  1  0  0  0  0
 17 41  1  0  0  0  0
 17 42  1  0  0  0  0
 17 43  1  0  0  0  0
 19 44  1  0  0  0  0
M  END
$$$$
