
  -OEChem-05262117483D

 32 33  0     0  0  0  0  0  0999 V2000
   -2.7711    0.2506    0.6402 C   0  0  0  0  0  0  0  0  0  0  0  0
    2.1699   -3.7018   -5.1331 C   0  0  0  0  0  0  0  0  0  0  0  0
    3.4959   -3.5782   -5.5741 C   0  0  0  0  0  0  0  0  0  0  0  0
    1.6954   -2.9222   -4.0829 C   0  0  0  0  0  0  0  0  0  0  0  0
    3.8923   -1.8896   -3.9101 C   0  0  0  0  0  0  0  0  0  0  0  0
   -1.3695    0.2696    0.3535 C   0  0  0  0  0  0  0  0  0  0  0  0
    4.3744   -2.6681   -4.9698 C   0  0  0  0  0  0  0  0  0  0  0  0
   -0.8276   -0.4705   -0.6875 C   0  0  0  0  0  0  0  0  0  0  0  0
    2.5670   -2.0052   -3.4662 C   0  0  0  0  0  0  0  0  0  0  0  0
    0.5810   -0.4362   -0.9689 C   0  0  0  0  0  0  0  0  0  0  0  0
   -0.5479    1.1058    1.2116 C   0  0  0  0  0  0  0  0  0  0  0  0
    1.3902    0.3587   -0.1490 C   0  0  0  0  0  0  0  0  0  0  0  0
    5.7942   -2.5101   -5.4636 C   0  0  0  0  0  0  0  0  0  0  0  0
   -1.7041   -1.3328   -1.5563 C   0  0  0  0  0  0  0  0  0  0  0  0
   -3.9157    0.2234    0.8588 N   0  0  0  0  0  0  0  0  0  0  0  0
    2.2173   -1.1542   -2.3871 N   0  0  0  0  0  0  0  0  0  0  0  0
    1.0037   -1.2372   -2.0352 N   0  0  0  0  0  0  0  0  0  0  0  0
    0.8300    1.0678    0.8664 N   0  0  0  0  0  0  0  0  0  0  0  0
   -0.9005    1.8038    2.1540 O   0  0  0  0  0  0  0  0  0  0  0  0
    2.7182    0.4422   -0.3147 O   0  0  0  0  0  0  0  0  0  0  0  0
    1.5096   -4.4182   -5.6156 H   0  0  0  0  0  0  0  0  0  0  0  0
    3.8486   -4.2000   -6.3941 H   0  0  0  0  0  0  0  0  0  0  0  0
    0.6741   -3.0106   -3.7292 H   0  0  0  0  0  0  0  0  0  0  0  0
    4.5379   -1.1748   -3.4057 H   0  0  0  0  0  0  0  0  0  0  0  0
    5.8561   -1.7273   -6.2291 H   0  0  0  0  0  0  0  0  0  0  0  0
    6.4706   -2.2283   -4.6513 H   0  0  0  0  0  0  0  0  0  0  0  0
    6.1670   -3.4364   -5.9103 H   0  0  0  0  0  0  0  0  0  0  0  0
   -1.6147   -1.0278   -2.6025 H   0  0  0  0  0  0  0  0  0  0  0  0
   -2.7483   -1.2733   -1.2512 H   0  0  0  0  0  0  0  0  0  0  0  0
   -1.3716   -2.3733   -1.5075 H   0  0  0  0  0  0  0  0  0  0  0  0
    1.4006    1.6604    1.4653 H   0  0  0  0  0  0  0  0  0  0  0  0
    3.1221    0.9810    0.3884 H   0  0  0  0  0  0  0  0  0  0  0  0
  1  6  1  0  0  0  0
  1 15  3  0  0  0  0
  2  3  1  0  0  0  0
  2  4  2  0  0  0  0
  2 21  1  0  0  0  0
  3  7  2  0  0  0  0
  3 22  1  0  0  0  0
  4  9  1  0  0  0  0
  4 23  1  0  0  0  0
  5  7  1  0  0  0  0
  5  9  2  0  0  0  0
  5 24  1  0  0  0  0
  6  8  2  0  0  0  0
  6 11  1  0  0  0  0
  7 13  1  0  0  0  0
  8 10  1  0  0  0  0
  8 14  1  0  0  0  0
  9 16  1  0  0  0  0
 10 12  2  0  0  0  0
 10 17  1  0  0  0  0
 11 18  1  0  0  0  0
 11 19  2  0  0  0  0
 12 18  1  0  0  0  0
 12 20  1  0  0  0  0
 13 25  1  0  0  0  0
 13 26  1  0  0  0  0
 13 27  1  0  0  0  0
 14 28  1  0  0  0  0
 14 29  1  0  0  0  0
 14 30  1  0  0  0  0
 16 17  2  0  0  0  0
 18 31  1  0  0  0  0
 20 32  1  0  0  0  0
M  END
$$$$
