
  -OEChem-05262117483D

 21 21  0     0  0  0  0  0  0999 V2000
    0.6048   -1.9387    0.0673 C   0  0  0  0  0  0  0  0  0  0  0  0
   -0.2271   -1.0883    0.7980 C   0  0  0  0  0  0  0  0  0  0  0  0
    1.9950   -1.7747    0.0874 C   0  0  0  0  0  0  0  0  0  0  0  0
    1.7101    0.1202    1.5972 C   0  0  0  0  0  0  0  0  0  0  0  0
    0.3214   -0.0508    1.5685 C   0  0  0  0  0  0  0  0  0  0  0  0
    2.5146   -0.7423    0.8580 C   0  0  0  0  0  0  0  0  0  0  0  0
   -1.2770    0.1364    3.5004 C   0  0  0  0  0  0  0  0  0  0  0  0
   -0.5848    0.8665    2.3697 C   0  0  0  0  0  0  0  0  0  0  0  0
   -2.4774   -0.3324    3.4774 N   0  0  0  0  0  0  0  0  0  0  0  0
   -0.5061   -0.1172    4.6351 N   0  0  0  0  0  0  0  0  0  0  0  0
   -3.0845   -0.1520    2.1956 O   0  0  0  0  0  0  0  0  0  0  0  0
    3.8630   -0.5621    0.8949 F   0  0  0  0  0  0  0  0  0  0  0  0
    0.1717   -2.7392   -0.5265 H   0  0  0  0  0  0  0  0  0  0  0  0
   -1.3044   -1.2235    0.7834 H   0  0  0  0  0  0  0  0  0  0  0  0
    2.6613   -2.4229   -0.4733 H   0  0  0  0  0  0  0  0  0  0  0  0
    2.1747    0.9091    2.1823 H   0  0  0  0  0  0  0  0  0  0  0  0
    0.0030    1.6889    2.7920 H   0  0  0  0  0  0  0  0  0  0  0  0
   -1.3504    1.2995    1.7235 H   0  0  0  0  0  0  0  0  0  0  0  0
    0.0726    0.6621    4.9307 H   0  0  0  0  0  0  0  0  0  0  0  0
   -1.0482   -0.5053    5.4017 H   0  0  0  0  0  0  0  0  0  0  0  0
   -3.9808   -0.4862    2.3562 H   0  0  0  0  0  0  0  0  0  0  0  0
  1  2  1  0  0  0  0
  1  3  2  0  0  0  0
  1 13  1  0  0  0  0
  2  5  2  0  0  0  0
  2 14  1  0  0  0  0
  3  6  1  0  0  0  0
  3 15  1  0  0  0  0
  4  5  1  0  0  0  0
  4  6  2  0  0  0  0
  4 16  1  0  0  0  0
  5  8  1  0  0  0  0
  6 12  1  0  0  0  0
  7  8  1  0  0  0  0
  7  9  2  0  0  0  0
  7 10  1  0  0  0  0
  8 17  1  0  0  0  0
  8 18  1  0  0  0  0
  9 11  1  0  0  0  0
 10 19  1  0  0  0  0
 10 20  1  0  0  0  0
 11 21  1  0  0  0  0
M  END
$$$$
