
  -OEChem-05262117483D

 21 22  0     1  0  0  0  0  0999 V2000
    0.4222   -2.2697   -0.8988 C   0  0  0  0  0  0  0  0  0  0  0  0
    1.1476   -2.9853   -3.1053 C   0  0  0  0  0  0  0  0  0  0  0  0
   -0.1546   -1.1192   -1.4425 C   0  0  0  0  0  0  0  0  0  0  0  0
    1.0659   -3.1847   -1.7294 C   0  0  0  0  0  0  0  0  0  0  0  0
    0.5657   -1.8391   -3.6531 C   0  0  0  0  0  0  0  0  0  0  0  0
   -0.0833   -0.9083   -2.8299 C   0  0  0  0  0  0  0  0  0  0  0  0
   -2.4203   -0.1852   -0.4778 C   0  0  0  0  0  0  0  0  0  0  0  0
   -2.2568   -0.0704    1.0570 C   0  0  0  0  0  0  0  0  0  0  0  0
   -0.8639   -0.1381   -0.5393 C   0  0  1  0  0  0  0  0  0  0  0  0
   -0.8232   -0.4560    0.9107 N   0  0  0  0  0  0  0  0  0  0  0  0
    1.7896   -4.6240   -1.0343 Cl  0  0  0  0  0  0  0  0  0  0  0  0
    0.6726   -1.6075   -5.3810 Cl  0  0  0  0  0  0  0  0  0  0  0  0
   -0.8238    0.5205   -3.5203 Cl  0  0  0  0  0  0  0  0  0  0  0  0
    0.3459   -2.4265    0.1714 H   0  0  0  0  0  0  0  0  0  0  0  0
    1.6487   -3.7008   -3.7474 H   0  0  0  0  0  0  0  0  0  0  0  0
   -2.8137   -1.1531   -0.7947 H   0  0  0  0  0  0  0  0  0  0  0  0
   -2.9512    0.6158   -0.9929 H   0  0  0  0  0  0  0  0  0  0  0  0
   -2.4068    0.9565    1.4157 H   0  0  0  0  0  0  0  0  0  0  0  0
   -2.8390   -0.7565    1.6799 H   0  0  0  0  0  0  0  0  0  0  0  0
   -0.5217    0.8795   -0.7700 H   0  0  0  0  0  0  0  0  0  0  0  0
   -0.1662    0.1081    1.4461 H   0  0  0  0  0  0  0  0  0  0  0  0
  1  3  1  0  0  0  0
  1  4  2  0  0  0  0
  1 14  1  0  0  0  0
  2  4  1  0  0  0  0
  2  5  2  0  0  0  0
  2 15  1  0  0  0  0
  3  6  2  0  0  0  0
  3  9  1  0  0  0  0
  4 11  1  0  0  0  0
  5  6  1  0  0  0  0
  5 12  1  0  0  0  0
  6 13  1  0  0  0  0
  7  8  1  0  0  0  0
  7  9  1  0  0  0  0
  7 16  1  0  0  0  0
  7 17  1  0  0  0  0
  8 10  1  0  0  0  0
  8 18  1  0  0  0  0
  8 19  1  0  0  0  0
  9 10  1  0  0  0  0
  9 20  1  0  0  0  0
 10 21  1  0  0  0  0
M  END
$$$$
