
  -OEChem-05262117483D

 34 36  0     0  0  0  0  0  0999 V2000
   -0.6600   -2.3305    0.2796 C   0  0  0  0  0  0  0  0  0  0  0  0
    0.0576   -1.3709   -0.4732 C   0  0  0  0  0  0  0  0  0  0  0  0
    3.2412   -5.2407    0.3476 C   0  0  0  0  0  0  0  0  0  0  0  0
   -0.0405   -3.5031    0.6542 C   0  0  0  0  0  0  0  0  0  0  0  0
    1.3719   -1.5911   -0.8392 C   0  0  0  0  0  0  0  0  0  0  0  0
    1.9334   -4.9793    0.6904 C   0  0  0  0  0  0  0  0  0  0  0  0
    3.9700   -4.2938   -0.4020 C   0  0  0  0  0  0  0  0  0  0  0  0
    1.3104   -3.7633    0.2953 C   0  0  0  0  0  0  0  0  0  0  0  0
    2.0419   -2.7912   -0.4686 C   0  0  0  0  0  0  0  0  0  0  0  0
    3.4119   -3.0865   -0.8162 C   0  0  0  0  0  0  0  0  0  0  0  0
    4.4663    3.2131   -4.4308 C   0  0  0  0  0  0  0  0  0  0  0  0
    3.3967    2.6019   -3.7261 C   0  0  0  0  0  0  0  0  0  0  0  0
    4.7119    0.8417   -3.3009 C   0  0  0  0  0  0  0  0  0  0  0  0
    4.3032   -2.2176   -1.5845 C   0  0  0  0  0  0  0  0  0  0  0  0
    4.3388    4.5615   -5.0778 C   0  0  0  0  0  0  0  0  0  0  0  0
    5.6220    2.5579   -4.5159 N   0  0  0  0  0  0  0  0  0  0  0  0
    3.5031    1.4184   -3.1563 N   0  0  0  0  0  0  0  0  0  0  0  0
    5.7684    1.3584   -3.9526 N   0  0  0  0  0  0  0  0  0  0  0  0
    3.9842   -1.0621   -2.0592 N   0  0  0  0  0  0  0  0  0  0  0  0
    4.9390   -0.3946   -2.7471 N   0  0  0  0  0  0  0  0  0  0  0  0
    2.2212    3.2568   -3.6340 O   0  0  0  0  0  0  0  0  0  0  0  0
   -1.6933   -2.1413    0.5592 H   0  0  0  0  0  0  0  0  0  0  0  0
   -0.4327   -0.4464   -0.7681 H   0  0  0  0  0  0  0  0  0  0  0  0
    3.7171   -6.1697    0.6492 H   0  0  0  0  0  0  0  0  0  0  0  0
   -0.5784   -4.2505    1.2328 H   0  0  0  0  0  0  0  0  0  0  0  0
    1.9057   -0.8472   -1.4145 H   0  0  0  0  0  0  0  0  0  0  0  0
    1.3588   -5.6996    1.2681 H   0  0  0  0  0  0  0  0  0  0  0  0
    5.0022   -4.5152   -0.6644 H   0  0  0  0  0  0  0  0  0  0  0  0
    5.3134   -2.6205   -1.7460 H   0  0  0  0  0  0  0  0  0  0  0  0
    4.0853    5.3306   -4.3403 H   0  0  0  0  0  0  0  0  0  0  0  0
    5.2856    4.8205   -5.5552 H   0  0  0  0  0  0  0  0  0  0  0  0
    3.5434    4.5642   -5.8308 H   0  0  0  0  0  0  0  0  0  0  0  0
    5.8720   -0.7818   -2.8918 H   0  0  0  0  0  0  0  0  0  0  0  0
    1.6220    2.6819   -3.1197 H   0  0  0  0  0  0  0  0  0  0  0  0
  1  2  1  0  0  0  0
  1  4  2  0  0  0  0
  1 22  1  0  0  0  0
  2  5  2  0  0  0  0
  2 23  1  0  0  0  0
  3  6  1  0  0  0  0
  3  7  2  0  0  0  0
  3 24  1  0  0  0  0
  4  8  1  0  0  0  0
  4 25  1  0  0  0  0
  5  9  1  0  0  0  0
  5 26  1  0  0  0  0
  6  8  2  0  0  0  0
  6 27  1  0  0  0  0
  7 10  1  0  0  0  0
  7 28  1  0  0  0  0
  8  9  1  0  0  0  0
  9 10  2  0  0  0  0
 10 14  1  0  0  0  0
 11 12  1  0  0  0  0
 11 15  1  0  0  0  0
 11 16  2  0  0  0  0
 12 17  2  0  0  0  0
 12 21  1  0  0  0  0
 13 17  1  0  0  0  0
 13 18  2  0  0  0  0
 13 20  1  0  0  0  0
 14 19  2  0  0  0  0
 14 29  1  0  0  0  0
 15 30  1  0  0  0  0
 15 31  1  0  0  0  0
 15 32  1  0  0  0  0
 16 18  1  0  0  0  0
 19 20  1  0  0  0  0
 20 33  1  0  0  0  0
 21 34  1  0  0  0  0
M  END
$$$$
