14
0 1 Br2C5H5NS
C                    -1.210124662613     0.367429068502    -3.520287294747
C                    -0.578181364633     0.874649653055    -2.418715245783
C                    -0.715369582813     0.036087176380    -1.260657344949
C                    -1.444712206293    -1.101897487656    -1.498562401107
C                    -1.854403472964    -2.183667672478    -0.539580638836
N                    -3.024391689889    -1.761161776389     0.249353455854
S                    -1.974295692767    -1.143371269991    -3.158338004431
Br                    0.377893733055     2.513490804838    -2.451430081636
Br                    0.033840628617     0.444580645143     0.432020020786
H                    -1.254639509958     0.791676497375    -4.513938377146
H                    -2.004427895118    -3.119372125192    -1.101768871135
H                    -1.026854031311    -2.356286532749     0.155305727135
H                    -3.256297077710    -2.486127220611     0.926834871151
H                    -3.831890966870    -1.655179868587    -0.362693387558
