
  -OEChem-05262117483D

 29 30  0     0  0  0  0  0  0999 V2000
   -0.0619    1.1501   -0.0438 C   0  0  0  0  0  0  0  0  0  0  0  0
    0.2338    1.7675    1.1768 C   0  0  0  0  0  0  0  0  0  0  0  0
    0.3202   -0.1762   -0.2628 C   0  0  0  0  0  0  0  0  0  0  0  0
    0.9137    1.0617    2.1704 C   0  0  0  0  0  0  0  0  0  0  0  0
    0.9731   -0.8961    0.7411 C   0  0  0  0  0  0  0  0  0  0  0  0
   -1.4253   -0.6818    4.4344 C   0  0  0  0  0  0  0  0  0  0  0  0
   -2.2307    0.4485    4.3315 C   0  0  0  0  0  0  0  0  0  0  0  0
   -1.9159   -1.2328    2.1154 C   0  0  0  0  0  0  0  0  0  0  0  0
    1.2673   -0.2824    1.9689 C   0  0  0  0  0  0  0  0  0  0  0  0
   -1.2604   -1.4955    3.3126 C   0  0  0  0  0  0  0  0  0  0  0  0
   -2.8711    0.7507    3.1233 C   0  0  0  0  0  0  0  0  0  0  0  0
   -2.7278   -0.1012    2.0175 C   0  0  0  0  0  0  0  0  0  0  0  0
    1.9293   -1.0396    3.0541 C   0  0  0  0  0  0  0  0  0  0  0  0
    1.4710   -2.1422    3.6603 C   0  0  0  0  0  0  0  0  0  0  0  0
   -0.4086   -3.6291    4.6519 O   0  0  0  0  0  0  0  0  0  0  0  0
   -0.1863   -3.5921    2.1023 O   0  0  0  0  0  0  0  0  0  0  0  0
   -0.1379   -2.9037    3.4013 S   0  0  0  0  0  0  0  0  0  0  0  0
   -3.8323    2.2002    3.0278 Cl  0  0  0  0  0  0  0  0  0  0  0  0
   -3.5287    0.2265    0.5054 Cl  0  0  0  0  0  0  0  0  0  0  0  0
   -0.5951    1.6984   -0.8150 H   0  0  0  0  0  0  0  0  0  0  0  0
   -0.0686    2.7957    1.3550 H   0  0  0  0  0  0  0  0  0  0  0  0
    0.0919   -0.6602   -1.2084 H   0  0  0  0  0  0  0  0  0  0  0  0
    1.1367    1.5404    3.1208 H   0  0  0  0  0  0  0  0  0  0  0  0
    1.2366   -1.9372    0.5860 H   0  0  0  0  0  0  0  0  0  0  0  0
   -0.9278   -0.9209    5.3689 H   0  0  0  0  0  0  0  0  0  0  0  0
   -2.3686    1.1081    5.1820 H   0  0  0  0  0  0  0  0  0  0  0  0
   -1.7769   -1.8880    1.2636 H   0  0  0  0  0  0  0  0  0  0  0  0
    2.8819   -0.6499    3.4158 H   0  0  0  0  0  0  0  0  0  0  0  0
    2.0130   -2.6570    4.4489 H   0  0  0  0  0  0  0  0  0  0  0  0
  1  2  1  0  0  0  0
  1  3  2  0  0  0  0
  1 20  1  0  0  0  0
  2  4  2  0  0  0  0
  2 21  1  0  0  0  0
  3  5  1  0  0  0  0
  3 22  1  0  0  0  0
  4  9  1  0  0  0  0
  4 23  1  0  0  0  0
  5  9  2  0  0  0  0
  5 24  1  0  0  0  0
  6  7  2  0  0  0  0
  6 10  1  0  0  0  0
  6 25  1  0  0  0  0
  7 11  1  0  0  0  0
  7 26  1  0  0  0  0
  8 10  2  0  0  0  0
  8 12  1  0  0  0  0
  8 27  1  0  0  0  0
  9 13  1  0  0  0  0
 10 17  1  0  0  0  0
 11 12  2  0  0  0  0
 11 18  1  0  0  0  0
 12 19  1  0  0  0  0
 13 14  2  0  0  0  0
 13 28  1  0  0  0  0
 14 17  1  0  0  0  0
 14 29  1  0  0  0  0
 15 17  2  0  0  0  0
 16 17  2  0  0  0  0
M  END
$$$$
