34
0 1 C15H13N5O
C                    -0.732176806660    -2.213311158508    -0.054634816447
C                     0.131990216275    -1.135162493179    -0.370279095247
C                     3.084344927807    -5.229064300313     0.171066016205
C                    -0.206421213500    -3.468955761202     0.151566852012
C                     1.493398864513    -1.332655979125    -0.473005367264
C                     1.725856723926    -5.003442166896     0.267660886509
C                     3.958913891920    -4.170938319483    -0.142886334883
C                     1.193657747338    -3.705419465640     0.052902602474
C                     2.075822298879    -2.617166971114    -0.267485416638
C                     3.487727121518    -2.879837626567    -0.362612867954
C                    10.492741081831    -1.118975745487    -1.442723605961
C                     9.764917996003    -2.293226077377    -1.118042419765
C                     7.867461342526    -1.109971170818    -1.183289297786
C                     4.436946633189    -1.810872085589    -0.687674315602
C                    11.986159218978    -1.111985251033    -1.593136317185
N                     9.816394370642     0.014246371280    -1.618389881369
N                     8.453978444167    -2.305105973462    -0.984985694448
N                     8.489506343737     0.041818530704    -1.492180952579
N                     5.703697649515    -2.042662557287    -0.765983933068
N                     6.502064227441    -0.996537061445    -1.072548176530
O                    10.439542081909    -3.447126333411    -0.937208078007
H                    -1.802895691657    -2.044756204587     0.023315653738
H                    -0.282273760633    -0.143546319409    -0.532677580333
H                     3.486829166001    -6.224983473280     0.336333869463
H                    -0.857883948452    -4.305167426327     0.394830213727
H                     2.117279025833    -0.479730548140    -0.715540724015
H                     1.045847180380    -5.816858041975     0.509450076935
H                     5.026470763163    -4.350368902271    -0.219096907442
H                     4.052122805967    -0.802087656820    -0.866009401020
H                    12.306545465347    -1.803227729190    -2.380042514843
H                    12.315842929018    -0.102649620697    -1.845967123492
H                    12.477380786746    -1.429988882302    -0.667246297235
H                     6.126449692383    -0.061267147890    -1.233088942682
H                     9.772529474622    -4.128320731191    -0.724361457229
