
  -OEChem-05262117483D

 25 26  0     0  0  0  0  0  0999 V2000
   -3.0695    3.9278    3.4526 C   0  0  0  0  0  0  0  0  0  0  0  0
   -3.5205    2.6481    3.7780 C   0  0  0  0  0  0  0  0  0  0  0  0
   -1.9370    3.9954    2.6403 C   0  0  0  0  0  0  0  0  0  0  0  0
   -1.8257    1.7276    2.5777 C   0  0  0  0  0  0  0  0  0  0  0  0
   -1.7916   -0.7209    2.2693 C   0  0  0  0  0  0  0  0  0  0  0  0
   -0.1588    0.6677    1.0980 C   0  0  0  0  0  0  0  0  0  0  0  0
   -0.7459   -1.7921    2.5469 C   0  0  0  0  0  0  0  0  0  0  0  0
    0.9443   -0.3550    1.3338 C   0  0  0  0  0  0  0  0  0  0  0  0
   -2.9077    1.5382    3.3447 N   0  0  0  0  0  0  0  0  0  0  0  0
   -1.3060    2.9012    2.1937 N   0  0  0  0  0  0  0  0  0  0  0  0
   -1.1461    0.5748    2.1583 N   0  0  0  0  0  0  0  0  0  0  0  0
    0.3260   -1.7398    1.4671 N   0  3  0  0  0  0  0  0  0  0  0  0
   -3.5742    4.8197    3.8064 H   0  0  0  0  0  0  0  0  0  0  0  0
   -4.3995    2.4986    4.4017 H   0  0  0  0  0  0  0  0  0  0  0  0
   -1.5176    4.9508    2.3311 H   0  0  0  0  0  0  0  0  0  0  0  0
   -2.3563   -0.9708    1.3546 H   0  0  0  0  0  0  0  0  0  0  0  0
   -2.5044   -0.6966    3.0936 H   0  0  0  0  0  0  0  0  0  0  0  0
    0.2758    1.6672    1.0998 H   0  0  0  0  0  0  0  0  0  0  0  0
   -0.6153    0.5103    0.1055 H   0  0  0  0  0  0  0  0  0  0  0  0
   -0.2360   -1.6132    3.4950 H   0  0  0  0  0  0  0  0  0  0  0  0
   -1.1710   -2.7979    2.5359 H   0  0  0  0  0  0  0  0  0  0  0  0
    1.6558   -0.3940    0.5064 H   0  0  0  0  0  0  0  0  0  0  0  0
    1.4713   -0.1623    2.2698 H   0  0  0  0  0  0  0  0  0  0  0  0
   -0.0959   -2.0028    0.5677 H   0  0  0  0  0  0  0  0  0  0  0  0
    1.0557   -2.4349    1.6604 H   0  0  0  0  0  0  0  0  0  0  0  0
  1  2  1  0  0  0  0
  1  3  2  0  0  0  0
  1 13  1  0  0  0  0
  2  9  2  0  0  0  0
  2 14  1  0  0  0  0
  3 10  1  0  0  0  0
  3 15  1  0  0  0  0
  4  9  1  0  0  0  0
  4 10  2  0  0  0  0
  4 11  1  0  0  0  0
  5  7  1  0  0  0  0
  5 11  1  0  0  0  0
  5 16  1  0  0  0  0
  5 17  1  0  0  0  0
  6  8  1  0  0  0  0
  6 11  1  0  0  0  0
  6 18  1  0  0  0  0
  6 19  1  0  0  0  0
  7 12  1  0  0  0  0
  7 20  1  0  0  0  0
  7 21  1  0  0  0  0
  8 12  1  0  0  0  0
  8 22  1  0  0  0  0
  8 23  1  0  0  0  0
 12 24  1  0  0  0  0
 12 25  1  0  0  0  0
M  CHG  1  12   1
M  END
$$$$
