19
0 1 C7H9NOS
C                    -5.067875297369    -0.078351935767    -4.485801109378
C                    -4.024543502650    -0.576840768255    -3.644776254724
C                    -5.244297708801     1.275606103724    -4.403199266764
C                    -3.409542405749     0.422524597212    -2.920282513776
C                    -1.747869310533    -0.842052294543    -1.650549102317
C                    -0.615865804214    -0.810767443684    -0.631531121850
C                    -1.931652889180     1.640471869567    -1.396901225229
N                    -2.350965618853     0.366651077458    -1.986532884013
O                    -2.100378809675    -1.908238702646    -2.146331341542
S                    -4.128382719009     1.989488963163    -3.282767754770
H                    -5.665036153007    -0.715102390656    -5.130718557246
H                    -3.737241976421    -1.613672150117    -3.571663437931
H                    -5.953535752317     1.905106910203    -4.924354897060
H                    -0.942336535443    -0.423639811725     0.338799448965
H                     0.231918892424    -0.208527375841    -0.973070555160
H                    -0.283999550395    -1.840673912024    -0.503666926745
H                    -2.762281475436     2.103090461872    -0.852950625112
H                    -1.594924126516     2.330921021126    -2.177616647493
H                    -1.112821933120     1.490675972592    -0.701593210857
