18
0 1 C7H7NO3
C                     1.527947161814    -1.434864557076     0.399821021587
C                     0.677456141794    -0.572822016597    -0.351862378914
C                     2.703409849278    -1.809505083268    -0.162988306004
C                     1.029592338164    -0.134279902564    -1.600837099750
C                     2.297661328542    -0.550835312047    -2.181955048645
C                     0.061227687145     0.776464001970    -2.317865039273
C                    -0.446855890186     2.081030651490    -4.318773773646
N                     0.420424605077     1.197850428962    -3.553448507451
O                     2.761168160670    -0.254832318563    -3.271061883903
O                    -1.001275647571     1.102262630515    -1.776052405047
O                     3.086082893936    -1.400324678984    -1.387286503945
H                     1.260827729427    -1.788818815838     1.388607573684
H                    -0.277434604378    -0.236831715438     0.043474569618
H                     3.441734414517    -2.459305704351     0.295893093961
H                    -1.426443109235     1.619954600172    -4.477688314729
H                     0.021089823262     2.277416283779    -5.285135785261
H                    -0.601796612048     3.028271987621    -3.792452966307
H                     1.314452875756     0.888804386717    -3.923528187559
