20
0 1 C8FH10N
C                     2.126049720050    -1.208769037601    -0.149623348162
C                     1.055396971620    -0.639113786770     0.544764183620
C                     3.126678125683    -1.867291837935     0.567381879075
C                     0.969069250475    -0.695778881546     1.939696419825
C                     1.983923728150    -1.352284278433     2.683833922639
C                     3.030717394888    -1.935868304257     1.949904248219
C                    -0.203059604686    -0.066665242282     2.656948317727
C                     3.079986333252    -1.343061222369     4.931592485521
N                     1.890589600191    -1.458511322286     4.077802939901
F                     4.001734885349    -2.629450851666     2.617801952016
H                     2.178441047378    -1.147605375607    -1.232431794547
H                     0.268416689152    -0.130056232323    -0.006376183214
H                     3.971486137009    -2.342739146355     0.077985020165
H                    -0.777457749146    -0.806073509531     3.229655254156
H                     0.115985547878     0.717512612930     3.356863571150
H                    -0.888365000295     0.396963200061     1.943732385618
H                     3.706425532061    -0.476927083697     4.673252605777
H                     3.692525761271    -2.242051989927     4.870408275575
H                     2.740473188275    -1.231812789505     5.964670482221
H                     1.130844714063    -0.895342641035     4.435160522517
