19
0 1 C8H7N3O
C                     1.414824060472    -0.049890483457     1.649620650318
C                     0.244389551363    -0.401504932264     0.961623351405
C                     1.664982093232    -0.611060674054     2.894265606173
C                    -0.617517662628    -1.309311040721     1.574228116934
C                    -0.364619185139    -4.282094342131     6.984657021028
C                    -1.315623955507    -4.331690110924     6.017836932452
C                     0.719846263262    -1.521207645528     3.418851786491
C                     0.259312491582    -2.978716224626     5.424556173460
N                    -0.397639985962    -1.864564913684     2.775149234247
N                     0.650236673689    -3.407750257165     6.597570839520
N                     0.978030988248    -2.081098264463     4.670009776079
O                    -0.916217988774    -3.481595561053     4.992284126735
H                     2.122771292601     0.653571183338     1.219220144634
H                     0.009941276541     0.013480159721    -0.013482392849
H                     2.562921565593    -0.359323999839     3.453190286195
H                    -1.539218297728    -1.614031789533     1.080440537120
H                    -0.330530943921    -4.807451904068     7.929533522414
H                    -2.252084782375    -4.846640043028     5.870713936027
H                     1.832660248141    -1.802292620141     5.134484960168
