
  -OEChem-05262117483D

 19 19  0     0  0  0  0  0  0999 V2000
   -4.3105    0.5096   -4.6197 C   0  0  0  0  0  0  0  0  0  0  0  0
   -3.0795    0.2833   -3.9287 C   0  0  0  0  0  0  0  0  0  0  0  0
   -5.2626    1.1000   -3.8277 C   0  0  0  0  0  0  0  0  0  0  0  0
   -3.1155    0.6932   -2.6198 C   0  0  0  0  0  0  0  0  0  0  0  0
   -1.8413   -0.4952   -0.8924 C   0  0  0  0  0  0  0  0  0  0  0  0
   -2.7410   -1.6923   -1.1456 C   0  0  0  0  0  0  0  0  0  0  0  0
   -1.2824    1.8467   -1.4572 C   0  0  0  0  0  0  0  0  0  0  0  0
   -2.0842    0.6357   -1.6650 N   0  0  0  0  0  0  0  0  0  0  0  0
   -0.9394   -0.5215   -0.0601 O   0  0  0  0  0  0  0  0  0  0  0  0
   -4.6818    1.3859   -2.2213 S   0  0  0  0  0  0  0  0  0  0  0  0
   -4.4798    0.2504   -5.6596 H   0  0  0  0  0  0  0  0  0  0  0  0
   -2.1967   -0.1666   -4.3717 H   0  0  0  0  0  0  0  0  0  0  0  0
   -6.2713    1.3858   -4.0985 H   0  0  0  0  0  0  0  0  0  0  0  0
   -2.5603   -2.1097   -2.1402 H   0  0  0  0  0  0  0  0  0  0  0  0
   -3.7996   -1.4246   -1.0941 H   0  0  0  0  0  0  0  0  0  0  0  0
   -2.5119   -2.4455   -0.3920 H   0  0  0  0  0  0  0  0  0  0  0  0
   -1.9131    2.6658   -1.0951 H   0  0  0  0  0  0  0  0  0  0  0  0
   -0.8146    2.1508   -2.3985 H   0  0  0  0  0  0  0  0  0  0  0  0
   -0.5157    1.6226   -0.7166 H   0  0  0  0  0  0  0  0  0  0  0  0
  1  2  1  0  0  0  0
  1  3  2  0  0  0  0
  1 11  1  0  0  0  0
  2  4  2  0  0  0  0
  2 12  1  0  0  0  0
  3 10  1  0  0  0  0
  3 13  1  0  0  0  0
  4  8  1  0  0  0  0
  4 10  1  0  0  0  0
  5  6  1  0  0  0  0
  5  8  1  0  0  0  0
  5  9  2  0  0  0  0
  6 14  1  0  0  0  0
  6 15  1  0  0  0  0
  6 16  1  0  0  0  0
  7  8  1  0  0  0  0
  7 17  1  0  0  0  0
  7 18  1  0  0  0  0
  7 19  1  0  0  0  0
M  END
$$$$
