
  -OEChem-05262117483D

 20 20  0     0  0  0  0  0  0999 V2000
   -1.5760    2.5031    1.9907 C   0  0  0  0  0  0  0  0  0  0  0  0
   -1.0143    1.1929    2.0429 C   0  0  0  0  0  0  0  0  0  0  0  0
   -0.6680    3.4785    2.3280 C   0  0  0  0  0  0  0  0  0  0  0  0
    0.3072    1.2132    2.4234 C   0  0  0  0  0  0  0  0  0  0  0  0
    1.2087   -0.6758   -0.0867 C   0  0  0  0  0  0  0  0  0  0  0  0
    3.0954    0.7096    0.6960 C   0  0  0  0  0  0  0  0  0  0  0  0
    2.1163   -0.3365    1.0155 N   0  0  0  0  0  0  0  0  0  0  0  0
    2.4372    0.1220    3.4808 O   0  0  0  0  0  0  0  0  0  0  0  0
    0.5137   -1.3714    2.6716 O   0  0  0  0  0  0  0  0  0  0  0  0
    0.8827    2.8253    2.7269 S   0  0  0  0  0  0  0  0  0  0  0  0
    1.3778   -0.2017    2.5275 S   0  0  0  0  0  0  0  0  0  0  0  0
   -2.6075    2.7124    1.7278 H   0  0  0  0  0  0  0  0  0  0  0  0
   -1.5493    0.2723    1.8381 H   0  0  0  0  0  0  0  0  0  0  0  0
   -0.8291    4.5481    2.3851 H   0  0  0  0  0  0  0  0  0  0  0  0
    0.5607   -1.4980    0.2153 H   0  0  0  0  0  0  0  0  0  0  0  0
    1.8176   -1.0047   -0.9329 H   0  0  0  0  0  0  0  0  0  0  0  0
    0.5971    0.1831   -0.4022 H   0  0  0  0  0  0  0  0  0  0  0  0
    3.7357    0.8856    1.5598 H   0  0  0  0  0  0  0  0  0  0  0  0
    2.6170    1.6519    0.3906 H   0  0  0  0  0  0  0  0  0  0  0  0
    3.7147    0.3466   -0.1286 H   0  0  0  0  0  0  0  0  0  0  0  0
  1  2  1  0  0  0  0
  1  3  2  0  0  0  0
  1 12  1  0  0  0  0
  2  4  2  0  0  0  0
  2 13  1  0  0  0  0
  3 10  1  0  0  0  0
  3 14  1  0  0  0  0
  4 10  1  0  0  0  0
  4 11  1  0  0  0  0
  5  7  1  0  0  0  0
  5 15  1  0  0  0  0
  5 16  1  0  0  0  0
  5 17  1  0  0  0  0
  6  7  1  0  0  0  0
  6 18  1  0  0  0  0
  6 19  1  0  0  0  0
  6 20  1  0  0  0  0
  7 11  1  0  0  0  0
  8 11  2  0  0  0  0
  9 11  2  0  0  0  0
M  END
$$$$
