20
0 1 C6H9NO2S2
C                    -0.984657869166     3.512838972045     2.180792583900
C                     0.093312526945     2.653766957254     2.548010494819
C                    -2.117926304813     2.816711563804     1.833119775047
C                    -0.256878112368     1.326158323282     2.470486298044
C                     0.583510369648    -1.038844308471     0.299433765760
C                     2.397708635637     0.582020629965     0.717233900585
N                     1.504588485970    -0.440820433595     1.273785337236
O                     1.917358955453     0.445753793977     3.603015653049
O                    -0.011072816171    -1.186831758203     3.154460918804
S                    -1.902837316772     1.105297292481     1.955266406186
S                     0.825158973564    -0.051717912285     2.769308223821
H                    -0.927392846186     4.596151459723     2.186202515986
H                     1.072775738605     2.981823140448     2.877827007171
H                    -3.078223543420     3.215623326649     1.529963956708
H                    -0.020986374409    -1.801095467829     0.789795584605
H                     1.185047245646    -1.517351324814    -0.478041652613
H                    -0.072199546888    -0.291426706008    -0.171316888537
H                     3.085703807258     0.923907970832     1.489912137039
H                     1.844268020137     1.439935064316     0.306119956859
H                     2.977723895645     0.119384749441    -0.085593032673
