
  -OEChem-05262117483D

 21 22  0     0  0  0  0  0  0999 V2000
   -6.7890   -1.4037   -2.4146 C   0  0  0  0  0  0  0  0  0  0  0  0
   -5.6187   -1.9760   -2.9241 C   0  0  0  0  0  0  0  0  0  0  0  0
   -6.7086   -0.2434   -1.6387 C   0  0  0  0  0  0  0  0  0  0  0  0
   -0.4741    1.3270   -1.3585 C   0  0  0  0  0  0  0  0  0  0  0  0
   -4.3780   -1.3950   -2.6582 C   0  0  0  0  0  0  0  0  0  0  0  0
   -5.4726    0.3469   -1.3646 C   0  0  0  0  0  0  0  0  0  0  0  0
   -1.3110    1.3913   -0.2894 C   0  0  0  0  0  0  0  0  0  0  0  0
   -0.9632    0.7488   -2.5701 C   0  0  0  0  0  0  0  0  0  0  0  0
   -4.3078   -0.2340   -1.8789 C   0  0  0  0  0  0  0  0  0  0  0  0
   -2.6741    0.8890   -0.3674 C   0  0  0  0  0  0  0  0  0  0  0  0
   -2.1762    0.2850   -2.7022 N   0  0  0  0  0  0  0  0  0  0  0  0
   -3.0160    0.3580   -1.6439 N   0  0  0  0  0  0  0  0  0  0  0  0
   -3.4713    0.9077    0.5691 O   0  0  0  0  0  0  0  0  0  0  0  0
   -7.7543   -1.8589   -2.6194 H   0  0  0  0  0  0  0  0  0  0  0  0
   -5.6687   -2.8787   -3.5269 H   0  0  0  0  0  0  0  0  0  0  0  0
   -7.6124    0.2099   -1.2407 H   0  0  0  0  0  0  0  0  0  0  0  0
    0.5458    1.6995   -1.3090 H   0  0  0  0  0  0  0  0  0  0  0  0
   -3.4663   -1.8264   -3.0561 H   0  0  0  0  0  0  0  0  0  0  0  0
   -5.4147    1.2375   -0.7531 H   0  0  0  0  0  0  0  0  0  0  0  0
   -1.0148    1.8042    0.6695 H   0  0  0  0  0  0  0  0  0  0  0  0
   -0.3402    0.6692   -3.4565 H   0  0  0  0  0  0  0  0  0  0  0  0
  1  2  1  0  0  0  0
  1  3  2  0  0  0  0
  1 14  1  0  0  0  0
  2  5  2  0  0  0  0
  2 15  1  0  0  0  0
  3  6  1  0  0  0  0
  3 16  1  0  0  0  0
  4  7  2  0  0  0  0
  4  8  1  0  0  0  0
  4 17  1  0  0  0  0
  5  9  1  0  0  0  0
  5 18  1  0  0  0  0
  6  9  2  0  0  0  0
  6 19  1  0  0  0  0
  7 10  1  0  0  0  0
  7 20  1  0  0  0  0
  8 11  2  0  0  0  0
  8 21  1  0  0  0  0
  9 12  1  0  0  0  0
 10 12  1  0  0  0  0
 10 13  2  0  0  0  0
 11 12  1  0  0  0  0
M  END
$$$$
