
  -OEChem-05262117483D

 25 26  0     0  0  0  0  0  0999 V2000
   -3.8979   -6.7152   -4.2952 C   0  0  0  0  0  0  0  0  0  0  0  0
   -3.4305   -7.9039   -3.7283 C   0  0  0  0  0  0  0  0  0  0  0  0
   -1.5257   -6.6909   -2.8152 C   0  0  0  0  0  0  0  0  0  0  0  0
   -1.9903   -5.4972   -3.3835 C   0  0  0  0  0  0  0  0  0  0  0  0
   -3.1771   -5.5395   -4.1302 C   0  0  0  0  0  0  0  0  0  0  0  0
   -2.2407   -7.8726   -2.9992 C   0  0  0  0  0  0  0  0  0  0  0  0
    0.8116   -3.3897   -1.0329 C   0  0  0  0  0  0  0  0  0  0  0  0
    1.3532   -2.3145   -1.9707 C   0  0  0  0  0  0  0  0  0  0  0  0
   -0.9528   -2.3100   -2.0348 C   0  0  0  0  0  0  0  0  0  0  0  0
   -1.8961   -3.1501   -2.8842 C   0  0  0  0  0  0  0  0  0  0  0  0
   -0.5497   -2.9784   -0.8469 O   0  0  0  0  0  0  0  0  0  0  0  0
    0.2159   -1.9907   -2.7785 O   0  0  0  0  0  0  0  0  0  0  0  0
   -1.2291   -4.3779   -3.2232 O   0  0  0  0  0  0  0  0  0  0  0  0
   -3.6305   -4.4031   -4.7226 F   0  0  0  0  0  0  0  0  0  0  0  0
   -1.5767   -9.4929   -2.2173 Br  0  0  0  0  0  0  0  0  0  0  0  0
   -4.8110   -6.6939   -4.8823 H   0  0  0  0  0  0  0  0  0  0  0  0
   -3.9795   -8.8298   -3.8580 H   0  0  0  0  0  0  0  0  0  0  0  0
   -0.6096   -6.6648   -2.2357 H   0  0  0  0  0  0  0  0  0  0  0  0
    0.8512   -4.3828   -1.4937 H   0  0  0  0  0  0  0  0  0  0  0  0
    1.2967   -3.4077   -0.0544 H   0  0  0  0  0  0  0  0  0  0  0  0
    1.6908   -1.4282   -1.4173 H   0  0  0  0  0  0  0  0  0  0  0  0
    2.1513   -2.6651   -2.6291 H   0  0  0  0  0  0  0  0  0  0  0  0
   -1.4779   -1.3907   -1.7346 H   0  0  0  0  0  0  0  0  0  0  0  0
   -2.1641   -2.5989   -3.7902 H   0  0  0  0  0  0  0  0  0  0  0  0
   -2.8012   -3.3576   -2.3043 H   0  0  0  0  0  0  0  0  0  0  0  0
  1  2  1  0  0  0  0
  1  5  2  0  0  0  0
  1 16  1  0  0  0  0
  2  6  2  0  0  0  0
  2 17  1  0  0  0  0
  3  4  2  0  0  0  0
  3  6  1  0  0  0  0
  3 18  1  0  0  0  0
  4  5  1  0  0  0  0
  4 13  1  0  0  0  0
  5 14  1  0  0  0  0
  6 15  1  0  0  0  0
  7  8  1  0  0  0  0
  7 11  1  0  0  0  0
  7 19  1  0  0  0  0
  7 20  1  0  0  0  0
  8 12  1  0  0  0  0
  8 21  1  0  0  0  0
  8 22  1  0  0  0  0
  9 10  1  0  0  0  0
  9 11  1  0  0  0  0
  9 12  1  0  0  0  0
  9 23  1  0  0  0  0
 10 13  1  0  0  0  0
 10 24  1  0  0  0  0
 10 25  1  0  0  0  0
M  END
$$$$
