
  -OEChem-05262117483D

 22 23  0     0  0  0  0  0  0999 V2000
    1.8339   -0.4536   -0.0044 C   0  0  0  0  0  0  0  0  0  0  0  0
    3.0421   -1.9081    1.5407 C   0  0  0  0  0  0  0  0  0  0  0  0
    0.9335   -0.1320    1.0133 C   0  0  0  0  0  0  0  0  0  0  0  0
    2.1349   -1.5782    2.5497 C   0  0  0  0  0  0  0  0  0  0  0  0
    2.0965    3.0085    4.9727 C   0  0  0  0  0  0  0  0  0  0  0  0
    2.8721   -1.3359    0.2828 C   0  0  0  0  0  0  0  0  0  0  0  0
    1.0842   -0.6863    2.2923 C   0  0  0  0  0  0  0  0  0  0  0  0
    0.9519    2.8360    5.7028 C   0  0  0  0  0  0  0  0  0  0  0  0
    0.7015    1.1321    4.2997 C   0  0  0  0  0  0  0  0  0  0  0  0
    0.4952    3.6839    6.8531 C   0  0  0  0  0  0  0  0  0  0  0  0
    0.1694    1.7623    5.3054 N   0  0  0  0  0  0  0  0  0  0  0  0
    3.7487   -1.6523   -0.7006 F   0  0  0  0  0  0  0  0  0  0  0  0
    2.2316    1.7958    3.7300 S   0  0  0  0  0  0  0  0  0  0  0  0
   -0.0876   -0.2846    3.5869 S   0  0  0  0  0  0  0  0  0  0  0  0
    1.7400   -0.0347   -1.0014 H   0  0  0  0  0  0  0  0  0  0  0  0
    3.8654   -2.5933    1.7167 H   0  0  0  0  0  0  0  0  0  0  0  0
    0.1169    0.5564    0.8194 H   0  0  0  0  0  0  0  0  0  0  0  0
    2.2454   -2.0059    3.5413 H   0  0  0  0  0  0  0  0  0  0  0  0
    2.8589    3.7676    5.0902 H   0  0  0  0  0  0  0  0  0  0  0  0
   -0.4820    4.1278    6.6366 H   0  0  0  0  0  0  0  0  0  0  0  0
    0.3852    3.0752    7.7566 H   0  0  0  0  0  0  0  0  0  0  0  0
    1.2069    4.4876    7.0573 H   0  0  0  0  0  0  0  0  0  0  0  0
  1  3  1  0  0  0  0
  1  6  2  0  0  0  0
  1 15  1  0  0  0  0
  2  4  2  0  0  0  0
  2  6  1  0  0  0  0
  2 16  1  0  0  0  0
  3  7  2  0  0  0  0
  3 17  1  0  0  0  0
  4  7  1  0  0  0  0
  4 18  1  0  0  0  0
  5  8  2  0  0  0  0
  5 13  1  0  0  0  0
  5 19  1  0  0  0  0
  6 12  1  0  0  0  0
  7 14  1  0  0  0  0
  8 10  1  0  0  0  0
  8 11  1  0  0  0  0
  9 11  2  0  0  0  0
  9 13  1  0  0  0  0
  9 14  1  0  0  0  0
 10 20  1  0  0  0  0
 10 21  1  0  0  0  0
 10 22  1  0  0  0  0
M  END
$$$$
