29
0 1 BrC13F4H8N3
C                     0.096294456402     1.291203729011    -5.705811156835
C                    -1.584975272157     0.126469067015    -4.461024005771
C                    -0.921149248322     1.734641647718    -6.557081051625
C                    -2.518276381900     0.614010328994    -5.372670337370
C                    -0.229488826004     0.460941026462    -4.623719459815
C                     2.231585870137    -0.226276397537    -0.996583036361
C                     3.171452486824    -0.877332618555    -0.173852113052
C                     2.320885847380     1.174514158480    -1.046337034432
C                     4.149277508719    -0.192646534911     0.531076454138
C                     3.325333430778     1.864156515880    -0.365508107601
C                     4.251492394462     1.199284472744     0.435420243661
C                     0.810081444807    -0.034968495757    -3.685088731211
C                     2.263671334365     0.081710036137    -4.067535706074
N                    -2.210647486809     1.408598248254    -6.412649058902
N                     0.368097588655    -0.571223864378    -2.594941591767
N                     1.306669811427    -1.032440031239    -1.671168312411
F                     3.102247913612    -2.222076291072    -0.071501932571
F                     1.426667887838     1.903962506275    -1.742476629624
F                     5.006959115680    -0.887710561547     1.291132999185
F                     3.360289908921     3.199943536016    -0.476579329601
Br                    5.588073947722     2.147623216574     1.380112416749
H                     1.116453496397     1.610796056102    -5.891441436945
H                    -1.893422799102    -0.503855329708    -3.634756564704
H                    -0.681135103473     2.385010245285    -7.397030956861
H                    -3.570693202098     0.356071057565    -5.265397951563
H                     2.659028264629     1.081941214897    -3.861552053334
H                     2.863045161472    -0.644163116338    -3.515495187638
H                     2.387823293128    -0.110047544561    -5.135860630412
H                     0.874943415200    -1.721393198822    -1.064529840012
