25
0 1 BrC10FH10O3
C                    -1.273346009024    -4.909235737931     3.335041165541
C                     0.035932640760    -5.229908935934     3.705787069173
C                     0.654151881242    -5.329022017707     1.352674012157
C                    -0.654211598890    -5.005452087777     0.979916107976
C                    -1.604999496562    -4.812905022307     1.990735768173
C                     0.981726095124    -5.442924835210     2.702789791173
C                    -0.753422684282    -0.353170393852    -1.086073723780
C                     0.216263883160    -0.768315207395     0.024190309582
C                    -0.478282851586    -2.654701997510    -1.003953003793
C                    -1.524545547203    -3.752564921693    -0.881551229862
O                    -1.014514857033    -1.583240073625    -1.783175770607
O                    -0.161266141106    -2.126134430737     0.269723709237
O                    -0.964077447762    -4.968480481649    -0.356353738739
F                    -2.889157675522    -4.530083425674     1.649885434719
Br                    2.781784783087    -5.894681509629     3.191279836140
H                    -2.045129597319    -4.747980921217     4.081541899693
H                     0.305946397317    -5.317210401357     4.752320640021
H                     1.391972357562    -5.482833983411     0.572958147434
H                    -1.692774517379     0.040222315274    -0.681184512750
H                    -0.324431208174     0.370805039185    -1.784846716443
H                     1.261748788821    -0.715286332654    -0.309730353047
H                     0.098942776671    -0.208431684726     0.953382162489
H                     0.432492152693    -3.036053591422    -1.493568195929
H                    -1.880752502768    -4.008687400755    -1.880619626370
H                    -2.361710466864    -3.395798017263    -0.278233640799
