21
0 1 C9ClH10N
C                    -3.486968127936    -2.639188648986    -0.077198107194
C                    -1.907197615277    -1.339559810227     1.203840344563
C                    -2.718331217840    -2.324496010731    -1.203083769321
C                    -3.054310755534    -2.129095881037     1.144409383384
C                    -1.218511761561    -1.071866326402     0.012091863309
C                    -0.097782603262     1.197901685066    -0.463037208520
C                     0.201370269942     0.882810396451     0.989917133916
C                     0.033408100332    -0.241353910419    -0.007782090644
C                     1.269703428278    -1.012727042410    -0.445815305536
N                    -1.618015573161    -1.566924534783    -1.174783419720
Cl                   -3.947230119493    -2.483184127469     2.609783858920
H                    -4.376426641187    -3.255217931916    -0.155157991441
H                    -1.551204743645    -0.950457791636     2.150824336524
H                    -3.014492054302    -2.706899683022    -2.179014982397
H                    -1.090825856842     1.564971569244    -0.704353975991
H                     0.697072090106     1.601342141188    -1.084288899008
H                     1.203501358933     1.074367614782     1.363198002767
H                    -0.586483191966     1.075152093538     1.712102820834
H                     2.142224106162    -0.352799615256    -0.489732378429
H                     1.113287773111    -1.447364384264    -1.437227846624
H                     1.493746846155    -1.824536536565     0.255731840445
