
  -OEChem-05262117483D

 25 26  0     0  0  0  0  0  0999 V2000
   -4.4049   -0.1147   -4.6581 C   0  0  0  0  0  0  0  0  0  0  0  0
   -4.1143   -0.9824   -5.7141 C   0  0  0  0  0  0  0  0  0  0  0  0
   -1.7959   -1.0659   -4.9729 C   0  0  0  0  0  0  0  0  0  0  0  0
   -2.0829   -0.1939   -3.9136 C   0  0  0  0  0  0  0  0  0  0  0  0
   -3.4029    0.2592   -3.7716 C   0  0  0  0  0  0  0  0  0  0  0  0
   -2.8066   -1.4515   -5.8506 C   0  0  0  0  0  0  0  0  0  0  0  0
    1.3480    3.2265   -0.7243 C   0  0  0  0  0  0  0  0  0  0  0  0
    0.8698    1.9892    0.0276 C   0  0  0  0  0  0  0  0  0  0  0  0
    0.5306    1.6673   -2.2161 C   0  0  0  0  0  0  0  0  0  0  0  0
   -0.9241    1.4781   -2.6288 C   0  0  0  0  0  0  0  0  0  0  0  0
    0.7336    3.0646   -2.0099 O   0  0  0  0  0  0  0  0  0  0  0  0
    0.8528    0.9972   -1.0052 O   0  0  0  0  0  0  0  0  0  0  0  0
   -1.0660    0.1126   -3.0580 O   0  0  0  0  0  0  0  0  0  0  0  0
   -3.7217    1.0749   -2.7315 F   0  0  0  0  0  0  0  0  0  0  0  0
   -2.3798   -2.6433   -7.2916 Br  0  0  0  0  0  0  0  0  0  0  0  0
   -5.4104    0.2649   -4.5034 H   0  0  0  0  0  0  0  0  0  0  0  0
   -4.8907   -1.2867   -6.4070 H   0  0  0  0  0  0  0  0  0  0  0  0
   -0.7781   -1.4238   -5.0828 H   0  0  0  0  0  0  0  0  0  0  0  0
    1.0032    4.1710   -0.2975 H   0  0  0  0  0  0  0  0  0  0  0  0
    2.4410    3.2395   -0.8235 H   0  0  0  0  0  0  0  0  0  0  0  0
    1.5493    1.6499    0.8120 H   0  0  0  0  0  0  0  0  0  0  0  0
   -0.1342    2.1360    0.4482 H   0  0  0  0  0  0  0  0  0  0  0  0
    1.2030    1.2788   -2.9911 H   0  0  0  0  0  0  0  0  0  0  0  0
   -1.1538    2.1625   -3.4524 H   0  0  0  0  0  0  0  0  0  0  0  0
   -1.5848    1.6925   -1.7852 H   0  0  0  0  0  0  0  0  0  0  0  0
  1  2  1  0  0  0  0
  1  5  2  0  0  0  0
  1 16  1  0  0  0  0
  2  6  2  0  0  0  0
  2 17  1  0  0  0  0
  3  4  2  0  0  0  0
  3  6  1  0  0  0  0
  3 18  1  0  0  0  0
  4  5  1  0  0  0  0
  4 13  1  0  0  0  0
  5 14  1  0  0  0  0
  6 15  1  0  0  0  0
  7  8  1  0  0  0  0
  7 11  1  0  0  0  0
  7 19  1  0  0  0  0
  7 20  1  0  0  0  0
  8 12  1  0  0  0  0
  8 21  1  0  0  0  0
  8 22  1  0  0  0  0
  9 10  1  0  0  0  0
  9 11  1  0  0  0  0
  9 12  1  0  0  0  0
  9 23  1  0  0  0  0
 10 13  1  0  0  0  0
 10 24  1  0  0  0  0
 10 25  1  0  0  0  0
M  END
$$$$
