
  -OEChem-05262117483D

 23 24  0     1  0  0  0  0  0999 V2000
    1.8603   -1.0252   -0.0242 C   0  0  0  0  0  0  0  0  0  0  0  0
    0.6827   -0.6558    0.6304 C   0  0  0  0  0  0  0  0  0  0  0  0
    2.9079   -1.6029    0.6968 C   0  0  0  0  0  0  0  0  0  0  0  0
    0.5683   -0.8611    2.0058 C   0  0  0  0  0  0  0  0  0  0  0  0
    2.8356   -1.7952    2.0832 C   0  0  0  0  0  0  0  0  0  0  0  0
    1.6440   -1.4001    2.7096 C   0  0  0  0  0  0  0  0  0  0  0  0
    4.5841   -3.3045    4.8909 C   0  0  0  0  0  0  0  0  0  0  0  0
    4.9418   -1.4692    3.5480 C   0  0  0  0  0  0  0  0  0  0  0  0
    4.0105   -2.4497    2.7828 C   0  0  1  0  0  0  0  0  0  0  0  0
    3.6511   -3.3556    3.8610 N   0  0  0  0  0  0  0  0  0  0  0  0
    1.4548   -1.5169    4.1711 N   0  3  0  0  0  0  0  0  0  0  0  0
    0.4645   -2.1377    4.5595 O   0  5  0  0  0  0  0  0  0  0  0  0
    4.7141   -4.0843    5.8033 O   0  0  0  0  0  0  0  0  0  0  0  0
    2.2681   -0.9419    4.8985 O   0  0  0  0  0  0  0  0  0  0  0  0
    5.3709   -2.1971    4.7122 O   0  0  0  0  0  0  0  0  0  0  0  0
    1.9576   -0.8824   -1.0967 H   0  0  0  0  0  0  0  0  0  0  0  0
   -0.1449   -0.2213    0.0777 H   0  0  0  0  0  0  0  0  0  0  0  0
    3.8042   -1.9256    0.1722 H   0  0  0  0  0  0  0  0  0  0  0  0
   -0.3400   -0.6022    2.5401 H   0  0  0  0  0  0  0  0  0  0  0  0
    5.8235   -1.1990    2.9646 H   0  0  0  0  0  0  0  0  0  0  0  0
    4.4081   -0.5748    3.8688 H   0  0  0  0  0  0  0  0  0  0  0  0
    4.5928   -2.9733    2.0128 H   0  0  0  0  0  0  0  0  0  0  0  0
    3.2593   -4.2678    3.6624 H   0  0  0  0  0  0  0  0  0  0  0  0
  1  2  1  0  0  0  0
  1  3  2  0  0  0  0
  1 16  1  0  0  0  0
  2  4  2  0  0  0  0
  2 17  1  0  0  0  0
  3  5  1  0  0  0  0
  3 18  1  0  0  0  0
  4  6  1  0  0  0  0
  4 19  1  0  0  0  0
  5  6  2  0  0  0  0
  5  9  1  0  0  0  0
  6 11  1  0  0  0  0
  7 10  1  0  0  0  0
  7 13  2  0  0  0  0
  7 15  1  0  0  0  0
  8  9  1  0  0  0  0
  8 15  1  0  0  0  0
  8 20  1  0  0  0  0
  8 21  1  0  0  0  0
  9 10  1  0  0  0  0
  9 22  1  0  0  0  0
 10 23  1  0  0  0  0
 11 12  1  0  0  0  0
 11 14  2  0  0  0  0
M  CHG  2  11   1  12  -1
M  END
$$$$
