
  -OEChem-05262117483D

 48 51  0     0  0  0  0  0  0999 V2000
    5.1128   -2.8240    0.5012 C   0  0  0  0  0  0  0  0  0  0  0  0
    6.5046   -1.8058    2.1946 C   0  0  0  0  0  0  0  0  0  0  0  0
    3.8282   -2.1780    3.8250 C   0  0  0  0  0  0  0  0  0  0  0  0
    2.9738   -1.0782    1.8496 C   0  0  0  0  0  0  0  0  0  0  0  0
    6.2422   -3.1168   -0.2602 C   0  0  0  0  0  0  0  0  0  0  0  0
    7.6407   -2.0680    1.4251 C   0  0  0  0  0  0  0  0  0  0  0  0
    2.6315   -1.9135    4.4955 C   0  0  0  0  0  0  0  0  0  0  0  0
    1.7879   -0.7832    2.5187 C   0  0  0  0  0  0  0  0  0  0  0  0
    5.7252   -1.5072   -3.2476 C   0  0  0  0  0  0  0  0  0  0  0  0
    6.4120    0.0313   -1.4996 C   0  0  0  0  0  0  0  0  0  0  0  0
   -0.6686   -2.2845    0.6503 C   0  0  0  0  0  0  0  0  0  0  0  0
    0.5451   -3.8923    2.0054 C   0  0  0  0  0  0  0  0  0  0  0  0
    4.3889   -1.1674   -3.0323 C   0  0  0  0  0  0  0  0  0  0  0  0
    5.0751    0.3677   -1.2776 C   0  0  0  0  0  0  0  0  0  0  0  0
    0.1245   -2.6041   -0.4527 C   0  0  0  0  0  0  0  0  0  0  0  0
    1.3445   -4.2086    0.9051 C   0  0  0  0  0  0  0  0  0  0  0  0
    5.2259   -2.1503    1.7282 C   0  0  0  0  0  0  0  0  0  0  0  0
    4.0015   -1.7934    2.4858 C   0  0  0  0  0  0  0  0  0  0  0  0
    7.4931   -2.6999    0.1911 C   0  0  0  0  0  0  0  0  0  0  0  0
    1.6125   -1.2392    3.8240 C   0  0  0  0  0  0  0  0  0  0  0  0
    6.7255   -0.9221   -2.4689 C   0  0  0  0  0  0  0  0  0  0  0  0
   -0.4418   -2.9145    1.8754 C   0  0  0  0  0  0  0  0  0  0  0  0
    4.0746   -0.2400   -2.0383 C   0  0  0  0  0  0  0  0  0  0  0  0
    1.1343   -3.5564   -0.3113 C   0  0  0  0  0  0  0  0  0  0  0  0
    8.6030   -2.8970   -0.6514 O   0  0  0  0  0  0  0  0  0  0  0  0
    0.3614   -1.0367    4.4360 O   0  0  0  0  0  0  0  0  0  0  0  0
    8.0274   -1.3744   -2.7300 O   0  0  0  0  0  0  0  0  0  0  0  0
   -1.2578   -2.4805    2.9307 O   0  0  0  0  0  0  0  0  0  0  0  0
    9.1192   -1.5076   -1.4541 S   0  0  0  0  0  0  0  0  0  0  0  0
   -0.6156   -2.4097    4.4865 S   0  0  0  0  0  0  0  0  0  0  0  0
    2.3887    0.1604   -1.7319 Cl  0  0  0  0  0  0  0  0  0  0  0  0
    2.1663   -3.9324   -1.6861 Cl  0  0  0  0  0  0  0  0  0  0  0  0
    4.1336   -3.1084    0.1312 H   0  0  0  0  0  0  0  0  0  0  0  0
    6.6070   -1.2872    3.1444 H   0  0  0  0  0  0  0  0  0  0  0  0
    4.6169   -2.7289    4.3307 H   0  0  0  0  0  0  0  0  0  0  0  0
    3.0955   -0.7627    0.8190 H   0  0  0  0  0  0  0  0  0  0  0  0
    6.1583   -3.6199   -1.2175 H   0  0  0  0  0  0  0  0  0  0  0  0
    8.6273   -1.7595    1.7590 H   0  0  0  0  0  0  0  0  0  0  0  0
    2.4738   -2.2519    5.5156 H   0  0  0  0  0  0  0  0  0  0  0  0
    0.9840   -0.2477    2.0255 H   0  0  0  0  0  0  0  0  0  0  0  0
    6.0000   -2.2467   -3.9935 H   0  0  0  0  0  0  0  0  0  0  0  0
    7.1919    0.4734   -0.8895 H   0  0  0  0  0  0  0  0  0  0  0  0
   -1.4432   -1.5270    0.5802 H   0  0  0  0  0  0  0  0  0  0  0  0
    0.7247   -4.3695    2.9624 H   0  0  0  0  0  0  0  0  0  0  0  0
    3.6011   -1.6338   -3.6142 H   0  0  0  0  0  0  0  0  0  0  0  0
    4.8162    1.0912   -0.5112 H   0  0  0  0  0  0  0  0  0  0  0  0
   -0.0260   -2.1032   -1.4031 H   0  0  0  0  0  0  0  0  0  0  0  0
    2.1303   -4.9511    0.9990 H   0  0  0  0  0  0  0  0  0  0  0  0
  1  5  1  0  0  0  0
  1 17  2  0  0  0  0
  1 33  1  0  0  0  0
  2  6  2  0  0  0  0
  2 17  1  0  0  0  0
  2 34  1  0  0  0  0
  3  7  2  0  0  0  0
  3 18  1  0  0  0  0
  3 35  1  0  0  0  0
  4  8  1  0  0  0  0
  4 18  2  0  0  0  0
  4 36  1  0  0  0  0
  5 19  2  0  0  0  0
  5 37  1  0  0  0  0
  6 19  1  0  0  0  0
  6 38  1  0  0  0  0
  7 20  1  0  0  0  0
  7 39  1  0  0  0  0
  8 20  2  0  0  0  0
  8 40  1  0  0  0  0
  9 13  2  0  0  0  0
  9 21  1  0  0  0  0
  9 41  1  0  0  0  0
 10 14  1  0  0  0  0
 10 21  2  0  0  0  0
 10 42  1  0  0  0  0
 11 15  2  0  0  0  0
 11 22  1  0  0  0  0
 11 43  1  0  0  0  0
 12 16  1  0  0  0  0
 12 22  2  0  0  0  0
 12 44  1  0  0  0  0
 13 23  1  0  0  0  0
 13 45  1  0  0  0  0
 14 23  2  0  0  0  0
 14 46  1  0  0  0  0
 15 24  1  0  0  0  0
 15 47  1  0  0  0  0
 16 24  2  0  0  0  0
 16 48  1  0  0  0  0
 17 18  1  0  0  0  0
 19 25  1  0  0  0  0
 20 26  1  0  0  0  0
 21 27  1  0  0  0  0
 22 28  1  0  0  0  0
 23 31  1  0  0  0  0
 24 32  1  0  0  0  0
 25 29  1  0  0  0  0
 26 30  1  0  0  0  0
 27 29  1  0  0  0  0
 28 30  1  0  0  0  0
M  END
$$$$
