25
0 1 C7H12N2O3S
C                     1.000049342887     0.359197997453     2.802665269136
C                    -0.893075629989    -0.914334181405     0.403696530266
C                     1.389233796704    -0.164110627367    -0.473997881456
C                     1.236771037091    -1.526736404356     1.699008817599
C                    -1.669372602464     0.150968908223    -0.373342507412
C                     0.814548234934     0.965229281337    -1.332178523695
C                     0.539712927847    -0.499734341013     0.755885877195
N                     1.427581935634    -0.833948310694     2.973516227722
N                     1.064190050033     1.399087706087     3.700572101847
O                    -0.719355885325    -0.729747115956    -2.700407535914
O                    -1.462236825101     1.715907943652    -2.547310028237
O                     0.464347419543     0.708187478583     1.588009225026
S                    -0.837492617940     0.530217329645    -1.939396942566
H                    -1.430816563085    -1.133075910395     1.332557060029
H                    -0.857748653714    -1.838790887837    -0.181374255974
H                     1.497689909597    -1.067313989487    -1.082939639999
H                     2.388855109312     0.128909484141    -0.136392579077
H                     0.622625783784    -2.423922047905     1.838097141806
H                     2.200979694342    -1.853202394157     1.290964122861
H                    -2.668650992364    -0.191317601598    -0.655536812087
H                    -1.752403195038     1.091463102623     0.175738222341
H                     0.711767547625     1.899681044591    -0.776156825183
H                     1.411935726588     1.144029222476    -2.230234134578
H                     0.334478066152     2.094546652384     3.601472678138
H                     1.221295217814     1.092259270904     4.652936466055
