48
0 1 C24Cl2H16O4S2
C                     5.613653405691    -3.115279256974    -0.101941856762
C                     4.891885699977    -5.293408200925     0.634079480544
C                     2.797792409585    -3.774725910757     2.222333608783
C                     2.721954420117    -2.297358707971     0.320154784257
C                     6.804769075669    -3.658139921374    -0.586562182248
C                     6.080776904757    -5.851020637883     0.164683212984
C                     1.613702852979    -3.224038757745     2.715384081784
C                     1.534094290673    -1.741211377497     0.793678644643
C                    10.826570768313    -3.415170311220    -4.100064668431
C                     9.629312700321    -5.514446738929    -3.832443454337
C                    -1.358304701100    -1.939299219411     6.961388924447
C                    -0.900229285653    -0.232513211349     5.291330312522
C                    11.179729911858    -3.776606982279    -5.401518369508
C                     9.991434534158    -5.879228820689    -5.132040558338
C                    -1.525721834058    -0.950917519630     7.933105331000
C                    -1.077366779542     0.756401925519     6.262832518724
C                     4.636690016590    -3.915765470093     0.514592118350
C                     3.375141770057    -3.325926421469     1.022133082661
C                     7.030757886559    -5.027904775195    -0.441357760135
C                     0.986740715959    -2.210561860644     1.988535454623
C                    10.057565519128    -4.285668521431    -3.325465312323
C                    -1.049313179982    -1.573995189001     5.649819842234
C                    10.761632654612    -5.009870463481    -5.906494020289
C                    -1.387071091778     0.391754635779     7.574260691629
O                     8.175730510291    -5.666789163644    -0.938256034096
O                    -0.177209467281    -1.564867697050     2.428622284559
O                     9.702960859240    -3.823402334690    -2.052991445551
O                    -0.843253119345    -2.628005668703     4.752394624287
S                     9.665623501699    -4.911650733384    -0.770817146663
S                    -1.383214480017    -2.469142997570     3.167367582723
Cl                   11.208877897515    -5.471351234822    -7.541374301817
Cl                   -1.601333954817     1.639199431214     8.792339591524
H                     5.452993130157    -2.044334455642    -0.188420647417
H                     4.144653923384    -5.942522182827     1.081712837888
H                     3.300308725154    -4.542063315085     2.804531835911
H                     3.126441509385    -1.950430827169    -0.626513257160
H                     7.545102873860    -3.026510451939    -1.065493439962
H                     6.278654266435    -6.915104148668     0.253501940597
H                     1.198060189516    -3.562746039916     3.658120315358
H                     1.019110073177    -0.958685158444     0.244370823782
H                    11.143904149019    -2.466196163146    -3.678728148141
H                     9.015514354427    -6.175455238083    -3.230586950012
H                    -1.466951444791    -2.990559999074     7.210027774104
H                    -0.640607114275     0.040962173808     4.274627122511
H                    11.780121336157    -3.110832527955    -6.013118428601
H                     9.666644649671    -6.830291551837    -5.541834771143
H                    -1.769015274205    -1.221034799125     8.955664708239
H                    -0.964184320391     1.803739856311     6.001647872256
