15
0 1 C6Cl2H5OP
C                     1.876527525459    -1.031552347051    -0.116487287250
C                     2.931465943859    -1.635748052777     0.580056027820
C                     0.805396676003    -0.462832782072     0.578216713671
C                     2.918353816304    -1.672997154143     1.973730071121
C                     0.781020217754    -0.493973495643     1.975554658269
C                     1.840597366540    -1.100520314549     2.665292966080
O                     0.541858175217    -0.460103873406     5.042999708591
P                     1.739080216824    -1.101848385303     4.461929470313
Cl                    1.975657032892    -3.083724118270     5.011449433026
Cl                    3.525444565882    -0.273511464459     5.101094978863
H                     1.892120779742    -1.005483902880    -1.202785615005
H                     3.762489963077    -2.076855104625     0.037051305508
H                    -0.011573682401     0.005137834456     0.036229763180
H                     3.735886033903    -2.141255468445     2.514497569773
H                    -0.043873569235    -0.056616675061     2.529661682505
