8
0 1 Br2C2ClF3
C                     0.395773091097     0.354140735519     0.405521106829
C                    -0.278099880676     0.323990392974    -1.005055745599
F                     0.540202496144    -0.907871885184     0.848959099622
F                     1.611315491160     0.919518244782     0.320335540608
F                    -1.494035110149    -0.250564292688    -0.878680697499
Cl                   -0.457436211711     1.957862856504    -1.669220511642
Br                   -0.690676830053     1.342120810964     1.706074254130
Br                    0.809691266574    -0.796144388190    -2.206517840774
