20
0 1 C4H10NO3PS
C                    -1.062409696809    -1.761707897854     0.605389492471
C                    -1.374603158101    -1.477835180653     2.055089416229
C                     1.264105627698     1.317938968218    -1.848168220225
C                     1.020280470289     2.572458487244     2.347069075380
N                    -0.516540924555    -0.702861992596    -0.149338232773
O                    -1.249575411055    -2.838267279975     0.062479466421
O                    -1.553876083122     1.591799869556     0.869424678987
O                     0.011455406002     1.571844464647    -1.178012257972
P                    -0.375604819364     0.940770885289     0.254999877235
S                     1.338323461759     0.976736768961     1.487725698516
H                    -2.084008040607    -0.649647572451     2.137061918971
H                    -0.467334053386    -1.186059768030     2.592430741155
H                    -1.792900735380    -2.380536724024     2.499235802678
H                     1.209302802779     1.854112436082    -2.795378181439
H                     1.401802549223     0.248510185510    -2.038860366111
H                     2.098176146578     1.690141342162    -1.248984886330
H                     1.731639667736     2.618231670370     3.173809463288
H                    -0.001363044076     2.587307718369     2.726221181258
H                     1.183182922583     3.415949614623     1.674978155490
H                    -0.440172239138    -0.945911910683    -1.134959823599
