20
0 1 C4Cl3H7NO4P
C                    -1.305715773709     0.467607235829     1.152174667360
C                     2.551549721964     0.336993282477    -1.402881425137
C                     1.355240860302    -1.952129676519     1.155297929466
C                    -2.672250434584     1.163498789787     1.502298783805
N                    -1.176315641750     0.127541799181    -0.167774973171
O                    -0.470385072220     0.259281000246     2.006985943046
O                    -0.157812063866    -0.935572724630    -2.307806952155
O                     1.333118289503     0.432994257198    -0.622914211823
O                     0.521244013474    -1.918085171798    -0.031460199020
P                     0.168234664123    -0.635733587961    -0.901858701661
Cl                   -4.011423871363     0.011369965050     1.120232805951
Cl                   -2.719844236029     1.597982649083     3.218713880312
Cl                   -2.849264476722     2.648448821539     0.487293813423
H                     3.143461144964     1.212856248915    -1.138721225796
H                     2.316030096128     0.342107907220    -2.469122624248
H                     3.100478053972    -0.573836856776    -1.145468499821
H                     2.077899885651    -2.755517892170     1.001286363410
H                     0.717690765730    -2.165316246029     2.012647535938
H                     1.860131371761    -0.998551284538     1.308600900779
H                    -1.929578768519     0.345534366702    -0.814172074605
