
  -OEChem-05262117483D

 14 14  0     0  0  0  0  0  0999 V2000
    0.1129   -3.2539    0.7587 C   0  0  0  0  0  0  0  0  0  0  0  0
    0.4617   -2.0091    0.2884 C   0  0  0  0  0  0  0  0  0  0  0  0
    0.7617   -0.7660    1.0728 C   0  0  0  0  0  0  0  0  0  0  0  0
   -0.1371   -4.1868   -0.2168 N   0  0  0  0  0  0  0  0  0  0  0  0
    0.0002   -3.7570   -1.4162 N   0  0  0  0  0  0  0  0  0  0  0  0
    2.0732    1.2130    1.1360 N   0  0  0  0  0  0  0  0  0  0  0  0
    1.8522   -0.0189    0.4405 N   0  0  0  0  0  0  0  0  0  0  0  0
    0.4682   -2.0820   -1.4249 S   0  0  0  0  0  0  0  0  0  0  0  0
    0.0226   -3.5416    1.8001 H   0  0  0  0  0  0  0  0  0  0  0  0
   -0.1110   -0.1060    1.0819 H   0  0  0  0  0  0  0  0  0  0  0  0
    0.9658   -1.0454    2.1198 H   0  0  0  0  0  0  0  0  0  0  0  0
    2.7442    1.1034    1.8994 H   0  0  0  0  0  0  0  0  0  0  0  0
    2.4574    1.8780    0.4688 H   0  0  0  0  0  0  0  0  0  0  0  0
    2.6925   -0.6001    0.4203 H   0  0  0  0  0  0  0  0  0  0  0  0
  1  2  2  0  0  0  0
  1  4  1  0  0  0  0
  1  9  1  0  0  0  0
  2  3  1  0  0  0  0
  2  8  1  0  0  0  0
  3  7  1  0  0  0  0
  3 10  1  0  0  0  0
  3 11  1  0  0  0  0
  4  5  2  0  0  0  0
  5  8  1  0  0  0  0
  6  7  1  0  0  0  0
  6 12  1  0  0  0  0
  6 13  1  0  0  0  0
  7 14  1  0  0  0  0
M  END
$$$$
