20   
torsion grid (-165,)
C       -0.1893323938    2.8606431302    2.3918566850
C       -0.0254072795    0.8870908299    3.7215692382
C       -0.1205891956    2.2800962502    3.6564255062
C       -0.1111623908    0.7825854762    1.4383050439
C       -1.0258159153   -1.2275961077    0.1310549196
C        0.2607599316    0.5535171328   -1.1356724985
C        1.2841802630   -0.2922737205   -0.4511128932
C       -0.0763821804   -0.0769664451    0.2146105233
N       -0.1883796800    2.1122900894    1.2826446705
N       -0.0112880082    0.1415809928    2.6170551898
O       -0.9313894548   -2.1440998730   -0.6659007383
O       -2.0716329821   -1.1173249997    0.9876892930
Br      -0.1393093877    3.3444733662    5.2385900077
H       -0.2488189178    3.9399577338    2.2667140620
H        0.0489968653    0.3706636164    4.6767685336
H        0.3766863034    1.6309145849   -1.1242646157
H       -0.2491110148    0.1332744433   -1.9956067469
H        1.4660312476   -1.2921234174   -0.8301009547
H        2.1257681594    0.1998155438    0.0259620315
H       -2.6342346422   -1.8986579308    0.8255396418
20   
torsion grid (-150,)
C       -0.0071385596    2.8959611534    2.3674245818
C       -0.2123143937    0.9348938555    3.7091157203
C       -0.1258887652    2.3273735492    3.6345016590
C       -0.1024678275    0.8120193199    1.4281689878
C       -0.8774252138   -1.2914954034    0.1816630182
C        0.1925584633    0.5800413855   -1.1583690533
C        1.3163184010   -0.1451492740   -0.4918700131
C       -0.0362508640   -0.0540948542    0.2144530196
N        0.0002291348    2.1401354395    1.2647242462
N       -0.1914094080    0.1786648964    2.6113366120
O       -0.5915638197   -2.3130921407   -0.4156052047
O       -2.0629394190   -1.1320534963    0.8207585406
Br      -0.1551009038    3.4065491644    5.2064820257
H        0.0801328403    3.9727268165    2.2364377515
H       -0.2900631279    0.4247901295    4.6673968645
H        0.2041921871    1.6635970594   -1.1705436182
H       -0.3003002657    0.0943029775   -1.9939136570
H        1.5872791569   -1.1308426928   -0.8540882709
H        2.1163435723    0.4439121367   -0.0554113052
H       -2.5375735620   -1.9797175304    0.7242942169
20   
torsion grid (-135,)
C        0.1350923167    2.8842068967    2.3883931110
C       -0.3574306859    0.9690913580    3.7217406406
C       -0.1156773209    2.3424301578    3.6490060639
C       -0.1320404324    0.8144507851    1.4515440174
C       -0.8807890295   -1.3308208964    0.2867806735
C        0.0419655700    0.5702013026   -1.1432435418
C        1.2273826342   -0.1029333370   -0.5266716242
C       -0.0893927600   -0.0571586120    0.2435326888
N        0.1235244419    2.1230981183    1.2907952723
N       -0.3586973248    0.2050818285    2.6280317371
O       -0.4845646548   -2.4206542472   -0.0797137438
O       -2.1502544320   -1.1239517513    0.7182274585
Br      -0.1169336875    3.4330739621    5.2132737027
H        0.3451441544    3.9442822133    2.2603680495
H       -0.5447645521    0.4783532766    4.6748766389
H        0.0151920105    1.6535914075   -1.1682951902
H       -0.4740147266    0.0597704752   -1.9502412031
H        1.5222664936   -1.0814144820   -0.8898457158
H        2.0226747735    0.5256151184   -0.1399684991
H       -2.5822085641   -1.9994200418    0.7209940323
20   
torsion grid (-120,)
C        0.2776467099    2.8507030244    2.3895052728
C       -0.4324887992    0.9909264169    3.7035225277
C       -0.0794598636    2.3395921944    3.6382577558
C       -0.0933586290    0.7985657867    1.4505088231
C       -0.7854496838   -1.3882487358    0.3640350285
C       -0.0148212138    0.5479091426   -1.1429899301
C        1.2243101002   -0.0758035495   -0.5773991329
C       -0.0577643797   -0.0771391511    0.2470120153
N        0.2682714501    2.0836280699    1.2971559442
N       -0.4355438698    0.2198907624    2.6137690013
O       -0.2876430095   -2.4901483583    0.2475345740
O       -2.1136054037   -1.2031433821    0.5737896146
Br      -0.0771226288    3.4404975672    5.1952653934
H        0.5722143011    3.8913445787    2.2684733765
H       -0.7117496196    0.5246472990    4.6463028130
H       -0.0796206468    1.6299454933   -1.1734247864
H       -0.5482019967    0.0180709753   -1.9261897696
H        1.5441278054   -1.0432367448   -0.9493592916
H        2.0100317048    0.5865815309   -0.2301093659
H       -2.5007584679   -2.0936475554    0.6757748577
20   
torsion grid (-105,)
C        0.4124960194    2.8076790235    2.4136441334
C       -0.5354402516    1.0177542829    3.6740031550
C       -0.0603753146    2.3288957983    3.6372704660
C       -0.0720494727    0.7936103175    1.4459127229
C       -0.7268113726   -1.4117106717    0.4118227201
C       -0.1003268173    0.5663326924   -1.1441898509
C        1.1826256556   -0.0312676834   -0.6489505413
C       -0.0546228969   -0.0741558610    0.2373436006
N        0.4059795243    2.0437838542    1.3199173321
N       -0.5403893285    0.2499771675    2.5811716458
O       -0.1590414115   -2.4773162450    0.5355133688
O       -2.0794823712   -1.2969225785    0.3985182929
Br      -0.0536132544    3.4257295900    5.1970404946
H        0.7997594924    3.8199835463    2.3155357658
H       -0.9148391137    0.5788319071    4.5946163162
H       -0.1888204193    1.6472771168   -1.1610096000
H       -0.6633347625    0.0338524682   -1.9044790460
H        1.5098311062   -0.9844131898   -1.0507461733
H        1.9682545303    0.6472104418   -0.3346055671
H       -2.4310974231   -2.1911537755    0.5734082613
20   
torsion grid (-90,)
C        0.5430951881    2.7704925201    2.4321342384
C       -0.6326689817    1.0813852780    3.6389809124
C       -0.0387906314    2.3435271696    3.6278498551
C       -0.0550165856    0.7972232199    1.4448432659
C       -0.6826945408   -1.4260143579    0.4531878249
C       -0.1933618656    0.5892453058   -1.1343752717
C        1.1241917526    0.0077784970   -0.7143135946
C       -0.0634331279   -0.0677722368    0.2338447344
N        0.5358467640    2.0004404986    1.3429569140
N       -0.6427177686    0.3091192094    2.5491536341
O       -0.0823886786   -2.4187149769    0.8082967239
O       -2.0173555811   -1.4244991285    0.2035851476
Br      -0.0231155181    3.4464323014    5.1832542622
H        1.0205366926    3.7452990777    2.3535563388
H       -1.1069500258    0.6867680908    4.5353084298
H       -0.2967650691    1.6691933351   -1.1345020106
H       -0.7889832869    0.0582231606   -1.8700325098
H        1.4460816217   -0.9319215494   -1.1512550164
H        1.9148424569    0.6936243478   -0.4305070521
H       -2.3350215098   -2.3224406719    0.4208624127
20   
torsion grid (-75,)
C        0.6631715592    2.7177774504    2.4940931562
C       -0.7299446405    1.1542674744    3.6367521430
C       -0.0227433208    2.3568373040    3.6555087174
C       -0.0440703195    0.7915499272    1.4859789688
C       -0.6384042177   -1.4526148398    0.5190250571
C       -0.2883998704    0.6003871642   -1.0763955965
C        1.0570894230    0.0329250603   -0.7344639366
C       -0.0771567573   -0.0741626443    0.2747474290
N        0.6546482663    1.9372104432    1.4119330390
N       -0.7448476317    0.3744289800    2.5528180462
O       -0.0464825034   -2.3465608981    1.0866286388
O       -1.8906994179   -1.6073615268    0.0154128233
Br       0.0013012035    3.4695884659    5.2038425334
H        1.2272263410    3.6467453252    2.4374331555
H       -1.2942804654    0.8158826562    4.5034361845
H       -0.4038041716    1.6790657422   -1.0553456663
H       -0.9159093821    0.0726890742   -1.7866809180
H        1.3674613306   -0.8932462848   -1.2077593496
H        1.8533275030    0.7228665355   -0.4782066461
H       -2.1609743639   -2.5185973883    0.2418783803
20   
torsion grid (-60,)
C        0.7922432814    2.6515277263    2.5532250051
C       -0.8099838789    1.2451261226    3.6231289253
C        0.0118487318    2.3722063585    3.6758449620
C       -0.0405624142    0.7897788824    1.5193003717
C       -0.6201186578   -1.4666816395    0.5545232916
C       -0.3923135846    0.6247038861   -1.0228023813
C        0.9698917712    0.0577830335   -0.7629186029
C       -0.1083883476   -0.0735760563    0.3059527115
N        0.7694842975    1.8604925085    1.4779693224
N       -0.8418366707    0.4588579938    2.5450499371
O       -0.0955682587   -2.2657453151    1.3019527643
O       -1.7107768227   -1.7787944770   -0.1960939744
Br       0.0583703279    3.4944995120    5.2168937655
H        1.4454035838    3.5213967860    2.5214486774
H       -1.4548324586    0.9758660781    4.4573346976
H       -0.5086912359    1.7024221071   -0.9729077698
H       -1.0541643497    0.1092856401   -1.7094514313
H        1.2545805761   -0.8567411309   -1.2738215432
H        1.7784515013    0.7417630436   -0.5311959629
H       -1.9263477318   -2.7066449689    0.0208262578
20   
torsion grid (-45,)
C        0.9047797554    2.5531301977    2.6201843153
C       -0.8884358811    1.3198273949    3.5958957251
C        0.0398823710    2.3584510588    3.6965866433
C       -0.0482299066    0.7757339584    1.5415028866
C       -0.6079939345   -1.4874013392    0.5685697344
C       -0.4847440188    0.6312887767   -0.9844150109
C        0.8907213644    0.0760426188   -0.7889643478
C       -0.1414259008   -0.0834670361    0.3246088134
N        0.8641754070    1.7603585467    1.5454379901
N       -0.9388183430    0.5358202368    2.5179666589
O       -0.2080845359   -2.2006685126    1.4655190158
O       -1.4722562466   -1.9366231374   -0.3844016366
Br       0.1121960485    3.4770175228    5.2394821524
H        1.6413624039    3.3541589052    2.6240791028
H       -1.6048579089    1.1233612143    4.3911902354
H       -0.6100292448    1.7066371037   -0.9092763756
H       -1.1675524786    0.1210062392   -1.6534245420
H        1.1586582500   -0.8276028961   -1.3271010938
H        1.7031732743    0.7607200978   -0.5746225594
H       -1.6422984130   -2.8731070958   -0.1658662231
20   
torsion grid (-30,)
C       -0.5659969487    1.1278588961    3.5775842542
C        0.7244802445    2.7549542745    2.4041776693
C        0.0940495618    2.3596476973    3.5823311884
C        0.0801997871    0.7985346643    1.4105018516
C        0.1948278118   -1.5338312005    0.4528599461
C       -0.8755232797    0.4117582793   -0.9460605104
C        0.6091429785    0.4387736600   -1.1205765090
C        0.0235225670   -0.0713063155    0.1957913304
N       -0.5817290113    0.3543145090    2.4922717919
N        0.7218198464    1.9726676659    1.3193585126
O        0.8485579706   -2.0108456894    1.3580391164
O       -0.3950783515   -2.3112343582   -0.5011419878
Br       0.1158323204    3.4646209078    5.1365629526
H       -1.0950450876    0.7673464659    4.4577073374
H        1.2413045249    3.7097584943    2.3312667103
H       -1.3834666303    1.3548583061   -0.7708459422
H       -1.4521662737   -0.3442182097   -1.4658711022
H        1.0593183104   -0.3081396808   -1.7656491360
H        1.1258928275    1.3890900051   -1.0562114940
H       -0.1512165838   -3.2299137845   -0.2789646022
20   
torsion grid (-15,)
C       -0.7032809503    1.2337905485    3.5122938042
C        0.9209224936    2.6384808112    2.4724114777
C        0.1402851840    2.3459404050    3.5882709751
C        0.0633994901    0.8095339138    1.4016544187
C        0.2349542467   -1.5121770894    0.4540083874
C       -0.9871035581    0.3494611468   -0.9148906951
C        0.4837532714    0.4804822148   -1.1516173605
C       -0.0078309446   -0.0644087881    0.1870460640
N       -0.7487243401    0.4738823988    2.4186986080
N        0.8855139202    1.8672750680    1.3788695353
O        0.7209398051   -1.9673595068    1.4700144634
O       -0.1048014543   -2.3059140164   -0.6040615907
Br       0.2047624809    3.4315367241    5.1548732282
H       -1.3538924227    0.9608847597    4.3409745570
H        1.5857093315    3.4997142891    2.4556754340
H       -1.5585086150    1.2508089941   -0.7162486791
H       -1.5280455290   -0.4484558908   -1.4103605771
H        0.9573009803   -0.2315829191   -1.8181139663
H        0.9371699486    1.4638321547   -1.1071059898
H        0.1409146094   -3.2129823619   -0.3414352154
20   
torsion grid (0,)
C        0.9930162589    1.2627451876    3.4463435879
C       -0.7880051371    2.5936216491    2.5779566820
C        0.1092458911    2.3314297789    3.6122319612
C        0.0558841791    0.8207456791    1.4100349966
C       -0.6965198478   -1.3544859320    0.4510070415
C       -0.1127484452    0.5757870881   -1.1770142423
C        1.1872490027   -0.0462547188   -0.7673931312
C        0.0064265452   -0.0647336497    0.1995096547
N        0.9693335381    0.5112394166    2.3438649907
N       -0.8151036301    1.8371667577    1.4748983091
O       -1.1891364522   -1.6857394880    1.5121595740
O       -0.7388823054   -2.1586025319   -0.6507936996
Br       0.1410340423    3.4026918710    5.1895755347
H        1.7288663240    1.0139620733    4.2085362403
H       -1.4932343228    3.4202392555    2.6357662471
H       -0.1998488978    1.6569422208   -1.1750124503
H       -0.7229777688    0.0576034606   -1.9078036816
H        1.4719066831   -0.9937599690   -1.2108992391
H        2.0108300044    0.6016663285   -0.4845687330
H       -1.2155729884   -2.9632133931   -0.3724784393
20   
torsion grid (15,)
C        0.7528637854    1.0754781170    3.5920056507
C       -0.4668552319    2.7914427559    2.4696509061
C        0.1707258568    2.3459890068    3.6251768082
C        0.0238532371    0.8087847524    1.4426488799
C       -0.5988853597   -1.4293455640    0.4825847993
C       -0.3265362844    0.5549963062   -1.1294317025
C        1.0667602361    0.1106112657   -0.8167623031
C       -0.0342248058   -0.0712338525    0.2318225027
N        0.6881699423    0.3134328731    2.5008660531
N       -0.5439264510    2.0206996446    1.3779967836
O       -1.2236818493   -1.7593274652    1.4707265620
O       -0.3856755181   -2.2874437834   -0.5581121773
Br       0.2631030572    3.4344668279    5.1884021824
H        1.2834165050    0.6747990935    4.4536586268
H       -0.9248034771    3.7771737060    2.4191226661
H       -0.5569784615    1.6137219840   -1.1054901696
H       -0.9091373581   -0.0428963745   -1.8212116031
H        1.4467457848   -0.7900911983   -1.2848856950
H        1.8087673319    0.8689173448   -0.5869773346
H       -0.8358047052   -3.1171680954   -0.3109258196
20   
torsion grid (30,)
C        1.0197870506    1.2322534065    3.5937678910
C       -0.7105689141    2.5656398650    2.6353315681
C        0.1530653117    2.3231659053    3.7017111465
C        0.1235883400    0.7327487653    1.5516911323
C        0.3009706397   -1.6057043255    0.6182831955
C       -0.7107249413    0.2139311802   -0.8668869311
C        0.7616979492    0.4664209450   -0.9254231785
C        0.1541503197   -0.1441968250    0.3412054028
N        1.0122646710    0.4455301665    2.5178436905
N       -0.7290132716    1.7679067584    1.5620459223
O       -0.1046324265   -2.1710371011    1.6132627507
O        0.8714287246   -2.2858333384   -0.4184602814
Br       0.1645257883    3.4472173409    5.2422738075
H        1.7334741413    0.9978312010    4.3812868399
H       -1.3988145596    3.4084414176    2.6442506359
H       -1.3801194015    1.0535230343   -0.7210460002
H       -1.1065919083   -0.6201306601   -1.4363701155
H        1.3826197265   -0.1838161564   -1.5302700416
H        1.1057962431    1.4912364060   -0.8283036574
H        0.8407851314   -3.2274624594   -0.1631446084
20   
torsion grid (45,)
C        0.9181766590    1.1430318840    3.6469220008
C       -0.5750661455    2.6529119285    2.5603157923
C        0.1789458989    2.3273206185    3.6872895790
C        0.1179118652    0.7225431833    1.5479204817
C        0.3340693706   -1.6167769770    0.6190355072
C       -0.7907004636    0.1618444310   -0.8317180617
C        0.6690780932    0.4691936157   -0.9467990791
C        0.1318495576   -0.1570733254    0.3421414273
N        0.8950795387    0.3468125179    2.5770217465
N       -0.6092883977    1.8495845852    1.4932116529
O       -0.2343523559   -2.2377937062    1.4933538154
O        1.1615862754   -2.2215298929   -0.2789274635
Br       0.2111064625    3.4636112963    5.2184909999
H        1.5422190140    0.8375551133    4.4845506671
H       -1.1610464893    3.5688662917    2.5168601475
H       -1.4836494984    0.9792298194   -0.6689876170
H       -1.1790471146   -0.6897173244   -1.3812509846
H        1.2910793723   -0.1605606035   -1.5718466381
H        0.9736618961    1.5078611247   -0.8686439364
H        1.1543181742   -3.1701199836   -0.0469735393
20   
torsion grid (60,)
C        0.8263013904    1.0828501246    3.6698155921
C       -0.4428880563    2.7294590653    2.5000897870
C        0.2103408893    2.3354828545    3.6685822192
C        0.1140085364    0.7372934311    1.5252247776
C        0.3502553824   -1.5987296971    0.6056076752
C       -0.8735739963    0.1575878883   -0.8103093144
C        0.5787898744    0.4779699063   -0.9907914510
C        0.1020910488   -0.1419962375    0.3214736294
N        0.7844718826    0.2877086196    2.5985862025
N       -0.4945264509    1.9311127987    1.4312344070
O       -0.3468752974   -2.2849437605    1.3235417148
O        1.4122474946   -2.1045411707   -0.0775830452
Br       0.2687676338    3.4707102811    5.1996931131
H        1.3649047136    0.7182421469    4.5422893590
H       -0.9325309938    3.6984990540    2.4257760767
H       -1.5638560061    0.9738390447   -0.6299402396
H       -1.2817110281   -0.7014927800   -1.3335927829
H        1.1801100045   -0.1535067151   -1.6348718605
H        0.8760943678    1.5202679342   -0.9385967072
H        1.4513244398   -3.0525010348    0.1553771789
20   
torsion grid (75,)
C        0.7388133659    0.9943037642    3.7135480333
C       -0.2853503621    2.7637815041    2.4840645428
C        0.2573575936    2.3035291334    3.6854261385
C        0.1239766902    0.7281832995    1.5274009122
C        0.3637567902   -1.5996264442    0.6065466946
C       -0.9655935304    0.1446647627   -0.7509535479
C        0.4767798299    0.4592680337   -1.0153621517
C        0.0718265933   -0.1471640182    0.3238186357
N        0.6767027060    0.2086933546    2.6354835432
N       -0.3539240668    1.9785510103    1.4074650141
O       -0.4094412100   -2.3659292706    1.1419238192
O        1.5952313356   -1.9815599952    0.1782748300
Br       0.3430940635    3.4252259998    5.2250741430
H        1.1830423402    0.5736348043    4.6134496750
H       -0.6705804295    3.7772728516    2.3903914164
H       -1.6395014421    0.9687604072   -0.5450107256
H       -1.4084323279   -0.7185335845   -1.2376940283
H        1.0400092844   -0.1817142526   -1.6851665589
H        0.7807556927    1.5005935014   -0.9921187406
H        1.6854759705   -2.9229173569    0.4240169202
20   
torsion grid (90,)
C        0.6283402137    0.9400969936    3.7108868080
C       -0.1525936709    2.7941269893    2.4284098577
C        0.2722328689    2.2877790048    3.6587842436
C        0.1387304923    0.7306898592    1.4873363403
C        0.4167040879   -1.5829364601    0.5428045978
C       -1.0375493241    0.1316265515   -0.7335768394
C        0.3840302615    0.4645023960   -1.0781335410
C        0.0622761770   -0.1396616220    0.2825826798
N        0.5636441117    0.1619895950    2.6271193954
N       -0.2196181252    2.0186179197    1.3451025136
O       -0.3693356190   -2.4487213427    0.8659337959
O        1.7425133151   -1.8212815859    0.3717738633
Br       0.3637841503    3.3988140658    5.2057609888
H        0.9708964224    0.4805103461    4.6358140268
H       -0.4417778240    3.8373777402    2.3169921030
H       -1.7084298346    0.9506521036   -0.4987083965
H       -1.4960904850   -0.7422324893   -1.1848632994
H        0.9164682860   -0.1739143769   -1.7758930548
H        0.6773824342    1.5089873435   -1.0766155503
H        1.8826545807   -2.7581949446    0.6104153014
20   
torsion grid (105,)
C        0.7840097583    2.7244653399    2.4168092525
C       -0.4756684152    1.0716415636    3.5883125152
C        0.1707940398    2.3078274363    3.6002409299
C        0.1153834850    0.7901026127    1.3974905712
C       -0.5565530737   -1.4079114302    0.3576316336
C       -0.2170635736    0.6598949566   -1.1543787601
C        1.1478291429    0.0997047271   -0.8866271065
C        0.0569727360   -0.0446786464    0.1670863714
N        0.7583528352    1.9680472182    1.3181399711
N       -0.5052958068    0.3137672314    2.4890318994
O       -1.6668871319   -1.7405351676   -0.0026923608
O        0.2990583579   -2.2581493030    0.9803989486
Br       0.2143552031    3.3894862297    5.1699980643
H        1.3027137616    3.6792472758    2.3559199696
H       -0.9780075424    0.6872056080    4.4737378840
H       -0.3416073004    1.7360435583   -1.1019322895
H       -0.8752981927    0.1379134904   -1.8409042386
H        1.4466615236   -0.8092743812   -1.3994626252
H        1.9477197127    0.7919775085   -0.6468743839
H       -0.1931487457   -3.0910072981    1.1141889008
20   
torsion grid (120,)
C        0.9005445724    2.6581017734    2.4656050815
C       -0.5649575550    1.1282915093    3.5620422012
C        0.1884424526    2.3020179813    3.6120312262
C        0.1292901979    0.7807756744    1.4112747340
C       -0.4854688861   -1.4399602602    0.3471887714
C       -0.3029946271    0.6713670432   -1.1213798458
C        1.0864838508    0.1456737442   -0.9288644479
C        0.0528792921   -0.0460817189    0.1756022401
N        0.8739986708    1.8985200877    1.3683341979
N       -0.5989050710    0.3708171771    2.4633122184
O       -1.4723508305   -1.8924334491   -0.1977528436
O        0.3027334935   -2.1804724734    1.1672899061
Br       0.2377792963    3.3824246146    5.1825388760
H        1.5011857941    3.5650274787    2.4328153374
H       -1.1522112950    0.7965896611    4.4160630345
H       -0.4531108622    1.7429116675   -1.0439870387
H       -0.9809239653    0.1401856486   -1.7808081441
H        1.3807225094   -0.7463914366   -1.4731582708
H        1.8796929787    0.8525637206   -0.7119653441
H       -0.1341312529   -3.0492632011    1.2546941979
20   
torsion grid (135,)
C        1.0056819287    2.5830098586    2.5359075940
C       -0.6314774533    1.1683505150    3.5391516650
C        0.2061580662    2.2811594385    3.6382659608
C        0.1615697183    0.7655802414    1.4326276437
C       -0.3569333659   -1.4803709234    0.3343986904
C       -0.3469478759    0.6646395067   -1.0841871600
C        1.0691754313    0.2005640159   -0.9505638923
C        0.0859039910   -0.0543202693    0.1905459881
N        0.9867910996    1.8251484610    1.4361659847
N       -0.6599833704    0.4162931462    2.4375525743
O       -1.1645569731   -2.0439165080   -0.3791822159
O        0.3127647381   -2.1212134419    1.3250234390
Br       0.2472686648    3.3532688639    5.2147577919
H        1.6714437695    3.4438344158    2.5393207357
H       -1.2929302492    0.8848897091    4.3555575376
H       -0.5436465424    1.7268509357   -0.9836557151
H       -1.0219702175    0.1100651127   -1.7268834854
H        1.3782805014   -0.6704301574   -1.5196169413
H        1.8390568757    0.9356993310   -0.7457793388
H       -0.0432386742   -3.0298837899    1.3497850433
20   
torsion grid (150,)
C        1.1046296832    2.4893015993    2.5846373916
C       -0.7320418536    1.2419140715    3.4556679045
C        0.2083240532    2.2608673899    3.6273886752
C        0.1536630927    0.7795768266    1.3985845873
C       -0.2840558205   -1.4713941717    0.2494471683
C       -0.4425502806    0.7029002028   -1.1023603407
C        0.9968349974    0.3077970901   -1.0299294213
C        0.0709128957   -0.0214552043    0.1419315528
N        1.0808122287    1.7470499012    1.4729721132
N       -0.7660644793    0.5096542125    2.3420810063
O       -0.8775593654   -2.1087285643   -0.6012231610
O        0.2114059799   -2.0466141917    1.3732843597
Br       0.2540314990    3.3073207237    5.2209521855
H        1.8533670443    3.2767106239    2.6444675632
H       -1.4717043981    1.0213630232    4.2230065968
H       -0.6916267010    1.7505527961   -0.9685459798
H       -1.1092644065    0.1268959194   -1.7347432417
H        1.3223957897   -0.5356465950   -1.6295983066
H        1.7390399182    1.0720888066   -0.8315267685
H       -0.0561604929   -2.9847982958    1.3366825030
20   
torsion grid (165,)
C       -1.1022424694    2.4157223650    2.6328249802
C        0.8733933850    1.3485583302    3.4376395824
C       -0.1363781891    2.2878513013    3.6350951520
C       -0.0713333469    0.7594996257    1.4391006192
C       -1.2882015198   -0.7886249083   -0.2063134922
C        0.8209237523    0.4469935907   -0.9648506315
C        1.2479579341   -0.7714374970   -0.2134372967
C       -0.0439246881   -0.0625283418    0.1897733211
N       -1.0650855327    1.6614928623    1.5348252989
N        0.9043515946    0.5815544560    2.3416512340
O       -1.4860553885   -1.2693267650   -1.3080520221
O       -2.1649284532   -0.9384838001    0.8177089092
Br      -0.1913072616    3.3697612133    5.2044961452
H       -1.9086314102    3.1420052836    2.7157411954
H        1.6663684396    1.2072935659    4.1693158135
H        1.3492330751    1.3775811857   -0.7833849321
H        0.3981713080    0.3215095064   -1.9557766226
H        1.1290223536   -1.7329690753   -0.7006419020
H        2.0591910428   -0.6910039204    0.5005686514
H       -2.9157485016   -1.4464432912    0.4550959310
20   
torsion grid (180,)
C       -0.5947626826    2.7957586842    2.3995342017
C        0.3184041889    0.9906434242    3.6646539854
C       -0.1775742960    2.2959226900    3.6325316026
C       -0.0632151845    0.8009151778    1.4184259471
C       -1.1300201352   -1.0546493267    0.0345749283
C        0.5046277321    0.5258977864   -1.1093850543
C        1.3237786523   -0.4854820698   -0.3703776362
C       -0.0289113999   -0.0591404586    0.1913005557
N       -0.5382249247    2.0487873804    1.2915764726
N        0.3791007823    0.2454563868    2.5593648687
O       -1.2444202804   -1.8240024518   -0.9024264726
O       -2.0298485197   -1.0066520279    1.0504898959
Br      -0.2664798470    3.3583999001    5.2136886411
H       -0.9790575561    3.8089934498    2.3005629717
H        0.6735942991    0.5441890513    4.5914702312
H        0.7932577912    1.5704278743   -1.0633645559
H        0.0028002153    0.2100005108   -2.0173298766
H        1.3772976335   -1.4922003556   -0.7706504268
H        2.1917857645   -0.1514284721    0.1890044467
H       -2.7037691332   -1.6832484444    0.8465932117
