56
0 1 C24FH28NO2
C                     1.567157859599    -4.342494136822    -0.291633005744
C                     2.079168974313    -3.289850114388     1.826500175608
C                     1.211739796128     5.281960552660    -3.704639490182
C                     2.012689674319     4.255161301774    -4.229419211773
C                     0.781850015246    -5.293748737043     0.361829246465
C                     1.299052300187    -4.228397518748     2.496211046909
C                     0.168478006263     3.553636243650    -5.657781366286
C                     2.225094807842    -3.330765392512     0.428265952985
C                    -0.094159300442     5.446981634710    -4.153609914293
C                    -0.608170027666     4.578487048172    -5.132120612266
C                     1.489878126820     3.391530382979    -5.203887186360
C                     0.663216231768    -5.216505242320     1.746191305473
C                     3.084192376601    -2.284048435301    -0.218997258081
C                    -1.146570447861     6.453100560826    -3.732707769117
C                    -2.047544068886     4.934469817811    -5.444821697381
C                    -2.181268663469     6.372762686488    -4.883831188905
C                     4.382712795482    -1.441411161811    -2.228321031959
C                     1.877117711510    -1.544972904099    -2.296094741744
C                     4.366545145795    -1.309984275843    -3.751482214536
C                     1.958736051820    -1.411189486177    -3.817341255338
C                     3.154184683008    -2.214908733924    -1.739429489659
C                     4.010519237630     0.844364835996    -6.016570775432
C                     3.166074612294    -0.385116335217    -5.657106966974
C                     3.522311011278     2.106629482638    -5.320872476991
N                     3.143489424194    -0.655397416226    -4.218411198643
O                     3.689881388665    -1.473586326868     0.475324994400
O                     2.191297386544     2.364870792543    -5.781130870143
F                    -0.097266089262    -6.135542904235     2.387918730238
H                     1.661153178606    -4.404550367310    -1.370281267278
H                     2.592334510279    -2.505225855865     2.373143250540
H                     1.627914081600     5.946796490035    -2.950496368170
H                     3.032133219099     4.144071140522    -3.878928851780
H                     0.269274882294    -6.082493005284    -0.179944006393
H                     1.176794092033    -4.208575016696     3.574841110038
H                    -0.210137302253     2.874551167399    -6.417761265306
H                    -1.602281065605     6.152833076371    -2.778912393312
H                    -0.748195985097     7.463439532320    -3.593318110239
H                    -2.286065759372     4.869035510514    -6.511292532943
H                    -2.725078941665     4.246615375578    -4.920458316544
H                    -3.198892944625     6.611006379019    -4.560796415889
H                    -1.904817831276     7.089093313326    -5.665311393949
H                     5.300086687204    -1.948376201397    -1.910395131530
H                     4.388805657217    -0.448020926733    -1.772486422702
H                     1.778948941178    -0.547271541663    -1.854278952275
H                     0.982429228759    -2.115222516190    -2.025754445805
H                     5.229488763937    -0.718150790063    -4.070200166247
H                     4.477528799550    -2.312043767158    -4.215948011022
H                     1.947667082768    -2.422638539164    -4.274711997244
H                     1.073009857187    -0.881618530620    -4.182432768180
H                     3.203316411013    -3.234746124134    -2.142521032787
H                     5.062417723458     0.691920904508    -5.749853560059
H                     3.978007706370     0.989613677245    -7.102467293639
H                     2.139377349731    -0.191887467245    -5.979032896771
H                     3.523621836147    -1.261218733176    -6.229925125869
H                     3.516861353859     1.953812941600    -4.235908025064
H                     4.170159836305     2.960197075460    -5.561890312255
