
  -OEChem-05262117483D

 57 60  0     0  0  0  0  0  0999 V2000
    1.9311   -0.0974   -2.2469 C   0  0  0  0  0  0  0  0  0  0  0  0
   -0.3678   -0.8609   -2.4299 C   0  0  0  0  0  0  0  0  0  0  0  0
    0.0504   -9.2787    7.7939 C   0  0  0  0  0  0  0  0  0  0  0  0
    0.3698   -8.2354    6.9084 C   0  0  0  0  0  0  0  0  0  0  0  0
    1.8702    0.4153   -3.5404 C   0  0  0  0  0  0  0  0  0  0  0  0
   -0.4473   -0.3477   -3.7177 C   0  0  0  0  0  0  0  0  0  0  0  0
    0.5560   -6.6987    8.7922 C   0  0  0  0  0  0  0  0  0  0  0  0
    0.8176   -0.7432   -1.6733 C   0  0  0  0  0  0  0  0  0  0  0  0
   -0.0104   -9.0354    9.1610 C   0  0  0  0  0  0  0  0  0  0  0  0
    0.2443   -7.7430    9.6545 C   0  0  0  0  0  0  0  0  0  0  0  0
    0.6189   -6.9555    7.4150 C   0  0  0  0  0  0  0  0  0  0  0  0
    0.6786    0.2826   -4.2521 C   0  0  0  0  0  0  0  0  0  0  0  0
    0.8245   -1.3288   -0.3138 C   0  0  0  0  0  0  0  0  0  0  0  0
   -0.3453   -9.9782   10.2986 C   0  0  0  0  0  0  0  0  0  0  0  0
    0.0998   -7.7190   11.1619 C   0  0  0  0  0  0  0  0  0  0  0  0
    0.1768   -9.2186   11.5442 C   0  0  0  0  0  0  0  0  0  0  0  0
    2.9341   -2.4955    0.3845 C   0  0  0  0  0  0  0  0  0  0  0  0
    1.7421   -1.0471    2.0581 C   0  0  0  0  0  0  0  0  0  0  0  0
    2.2721   -3.7228    1.0016 C   0  0  0  0  0  0  0  0  0  0  0  0
    1.1465   -2.2856    2.7226 C   0  0  0  0  0  0  0  0  0  0  0  0
    2.0773   -1.2227    0.5654 C   0  0  0  0  0  0  0  0  0  0  0  0
    1.3694   -4.6898    4.6330 C   0  0  0  0  0  0  0  0  0  0  0  0
    1.4273   -4.7636    3.1114 C   0  0  0  0  0  0  0  0  0  0  0  0
    1.0159   -6.0537    5.2283 C   0  0  0  0  0  0  0  0  0  0  0  0
    2.0067   -3.5140    2.4803 N   0  3  0  0  0  0  0  0  0  0  0  0
   -0.1466   -1.9575    0.1166 O   0  0  0  0  0  0  0  0  0  0  0  0
    0.9456   -5.8606    6.6245 O   0  0  0  0  0  0  0  0  0  0  0  0
    0.6115    0.7800   -5.4977 F   0  0  0  0  0  0  0  0  0  0  0  0
    2.8617    0.0123   -1.7005 H   0  0  0  0  0  0  0  0  0  0  0  0
   -1.2218   -1.3592   -1.9834 H   0  0  0  0  0  0  0  0  0  0  0  0
   -0.1407  -10.2729    7.3967 H   0  0  0  0  0  0  0  0  0  0  0  0
    0.4228   -8.4440    5.8454 H   0  0  0  0  0  0  0  0  0  0  0  0
    2.7179    0.9138   -3.9995 H   0  0  0  0  0  0  0  0  0  0  0  0
   -1.3530   -0.4236   -4.3111 H   0  0  0  0  0  0  0  0  0  0  0  0
    0.7586   -5.6936    9.1533 H   0  0  0  0  0  0  0  0  0  0  0  0
   -1.4320  -10.1249   10.3581 H   0  0  0  0  0  0  0  0  0  0  0  0
    0.1064  -10.9684   10.1850 H   0  0  0  0  0  0  0  0  0  0  0  0
    0.8626   -7.1111   11.6579 H   0  0  0  0  0  0  0  0  0  0  0  0
   -0.8765   -7.2956   11.4332 H   0  0  0  0  0  0  0  0  0  0  0  0
   -0.3847   -9.4539   12.4519 H   0  0  0  0  0  0  0  0  0  0  0  0
    1.2225   -9.4917   11.7208 H   0  0  0  0  0  0  0  0  0  0  0  0
    3.9203   -2.3373    0.8395 H   0  0  0  0  0  0  0  0  0  0  0  0
    3.1106   -2.7065   -0.6745 H   0  0  0  0  0  0  0  0  0  0  0  0
    1.0274   -0.2316    2.1996 H   0  0  0  0  0  0  0  0  0  0  0  0
    2.6580   -0.7533    2.5863 H   0  0  0  0  0  0  0  0  0  0  0  0
    1.3039   -3.9337    0.5456 H   0  0  0  0  0  0  0  0  0  0  0  0
    2.9095   -4.6053    0.9154 H   0  0  0  0  0  0  0  0  0  0  0  0
    1.0800   -2.1518    3.8021 H   0  0  0  0  0  0  0  0  0  0  0  0
    0.1647   -2.5181    2.3144 H   0  0  0  0  0  0  0  0  0  0  0  0
    2.6762   -0.3635    0.2620 H   0  0  0  0  0  0  0  0  0  0  0  0
    0.6193   -3.9706    4.9702 H   0  0  0  0  0  0  0  0  0  0  0  0
    2.3388   -4.3774    5.0410 H   0  0  0  0  0  0  0  0  0  0  0  0
    0.4388   -4.8996    2.6669 H   0  0  0  0  0  0  0  0  0  0  0  0
    2.0649   -5.5903    2.7863 H   0  0  0  0  0  0  0  0  0  0  0  0
    1.7847   -6.7976    4.9722 H   0  0  0  0  0  0  0  0  0  0  0  0
    0.0536   -6.4087    4.8311 H   0  0  0  0  0  0  0  0  0  0  0  0
    2.9138   -3.3429    2.9290 H   0  0  0  0  0  0  0  0  0  0  0  0
  1  5  1  0  0  0  0
  1  8  2  0  0  0  0
  1 29  1  0  0  0  0
  2  6  2  0  0  0  0
  2  8  1  0  0  0  0
  2 30  1  0  0  0  0
  3  4  2  0  0  0  0
  3  9  1  0  0  0  0
  3 31  1  0  0  0  0
  4 11  1  0  0  0  0
  4 32  1  0  0  0  0
  5 12  2  0  0  0  0
  5 33  1  0  0  0  0
  6 12  1  0  0  0  0
  6 34  1  0  0  0  0
  7 10  1  0  0  0  0
  7 11  2  0  0  0  0
  7 35  1  0  0  0  0
  8 13  1  0  0  0  0
  9 10  2  0  0  0  0
  9 14  1  0  0  0  0
 10 15  1  0  0  0  0
 11 27  1  0  0  0  0
 12 28  1  0  0  0  0
 13 21  1  0  0  0  0
 13 26  2  0  0  0  0
 14 16  1  0  0  0  0
 14 36  1  0  0  0  0
 14 37  1  0  0  0  0
 15 16  1  0  0  0  0
 15 38  1  0  0  0  0
 15 39  1  0  0  0  0
 16 40  1  0  0  0  0
 16 41  1  0  0  0  0
 17 19  1  0  0  0  0
 17 21  1  0  0  0  0
 17 42  1  0  0  0  0
 17 43  1  0  0  0  0
 18 20  1  0  0  0  0
 18 21  1  0  0  0  0
 18 44  1  0  0  0  0
 18 45  1  0  0  0  0
 19 25  1  0  0  0  0
 19 46  1  0  0  0  0
 19 47  1  0  0  0  0
 20 25  1  0  0  0  0
 20 48  1  0  0  0  0
 20 49  1  0  0  0  0
 21 50  1  0  0  0  0
 22 23  1  0  0  0  0
 22 24  1  0  0  0  0
 22 51  1  0  0  0  0
 22 52  1  0  0  0  0
 23 25  1  0  0  0  0
 23 53  1  0  0  0  0
 23 54  1  0  0  0  0
 24 27  1  0  0  0  0
 24 55  1  0  0  0  0
 24 56  1  0  0  0  0
 25 57  1  0  0  0  0
M  CHG  1  25   1
M  END
$$$$
