25
0 1 C7H8N2O6S2
C                     2.287445874705    -0.681324062072     0.489033266541
C                     1.289068827055    -0.120483945760     1.284608693978
C                     2.445481510650    -0.909047923325     3.268635855105
C                     3.393928106088    -1.332729735845     1.051499835469
C                     1.387047665103    -0.231058222733     2.669415505264
C                     3.448919408055    -1.439223537930     2.456479935089
C                     4.390588709245    -1.868954237559     0.033511871983
N                     0.745879427189     2.010644441442     4.073582275387
N                     6.104456489538    -1.387011919182     2.985283012179
O                     3.993604638435    -2.407191242539    -0.975338783314
O                    -1.072132984090     0.690061105910     2.864600868387
O                     0.075960642162    -0.274005287340     4.960673614929
O                     4.428120740498    -2.308119420714     4.754829617346
O                     4.989138993734    -3.629349590718     2.636779347480
O                     5.695913669708    -1.625485962552     0.233462094881
S                     0.104052972201     0.484840039865     3.710715248910
S                     4.728191662078    -2.371475918985     3.326244515182
H                     2.217477021431    -0.633778124706    -0.592537407890
H                     0.432546086435     0.374677282841     0.838113792609
H                     2.481424883124    -1.047944224997     4.344246544198
H                     0.153224420248     2.738581072824     3.675822600123
H                     0.829085055709     2.112697954595     5.084624745648
H                     6.182245962848    -0.647750620320     3.687378115869
H                     6.930273315043    -1.990325190159     3.041861073179
H                     5.873631035985    -1.243834399247     1.125575384361
