
  -OEChem-05262117483D

 30 30  0     1  0  0  0  0  0999 V2000
    0.8395   -0.1825   -0.1773 C   0  0  0  0  0  0  0  0  0  0  0  0
    1.1668    2.3097   -0.1804 C   0  0  0  0  0  0  0  0  0  0  0  0
   -0.7478   -0.4868    1.6553 C   0  0  0  0  0  0  0  0  0  0  0  0
    1.2220    1.0505    0.6723 C   0  0  1  0  0  0  0  0  0  0  0  0
   -0.5362   -0.7384    0.1604 C   0  0  1  0  0  0  0  0  0  0  0  0
   -1.4371   -0.2745   -2.2143 C   0  0  0  0  0  0  0  0  0  0  0  0
    4.3599    3.6808   -1.7723 C   0  0  0  0  0  0  0  0  0  0  0  0
   -1.6303   -0.0701   -0.7102 C   0  0  0  0  0  0  0  0  0  0  0  0
    2.9357    4.2280   -1.9150 C   0  0  0  0  0  0  0  0  0  0  0  0
    2.2186    4.4107   -0.5819 C   0  0  0  0  0  0  0  0  0  0  0  0
    1.6028   -0.6364   -1.0041 O   0  0  0  0  0  0  0  0  0  0  0  0
    0.3408    2.5163   -1.0487 O   0  0  0  0  0  0  0  0  0  0  0  0
    2.1476    3.1622    0.1677 O   0  0  0  0  0  0  0  0  0  0  0  0
    0.0171    1.1527    2.0579 S   0  0  0  0  0  0  0  0  0  0  0  0
   -1.8056   -0.4308    1.9216 H   0  0  0  0  0  0  0  0  0  0  0  0
   -0.2715   -1.2612    2.2623 H   0  0  0  0  0  0  0  0  0  0  0  0
    2.2365    0.9132    1.0511 H   0  0  0  0  0  0  0  0  0  0  0  0
   -0.5178   -1.8114   -0.0561 H   0  0  0  0  0  0  0  0  0  0  0  0
   -0.5296    0.2194   -2.5693 H   0  0  0  0  0  0  0  0  0  0  0  0
   -2.2844    0.1494   -2.7628 H   0  0  0  0  0  0  0  0  0  0  0  0
   -1.3663   -1.3379   -2.4690 H   0  0  0  0  0  0  0  0  0  0  0  0
    4.9795    4.3405   -1.1538 H   0  0  0  0  0  0  0  0  0  0  0  0
    4.3577    2.6905   -1.3073 H   0  0  0  0  0  0  0  0  0  0  0  0
    4.8405    3.5895   -2.7514 H   0  0  0  0  0  0  0  0  0  0  0  0
   -2.5876   -0.5031   -0.3951 H   0  0  0  0  0  0  0  0  0  0  0  0
   -1.6683    0.9987   -0.4838 H   0  0  0  0  0  0  0  0  0  0  0  0
    2.3355    3.5739   -2.5547 H   0  0  0  0  0  0  0  0  0  0  0  0
    2.9562    5.2110   -2.4030 H   0  0  0  0  0  0  0  0  0  0  0  0
    2.7724    5.0799    0.0807 H   0  0  0  0  0  0  0  0  0  0  0  0
    1.2045    4.7901   -0.7237 H   0  0  0  0  0  0  0  0  0  0  0  0
  1  4  1  0  0  0  0
  1  5  1  0  0  0  0
  1 11  2  0  0  0  0
  2  4  1  0  0  0  0
  2 12  2  0  0  0  0
  2 13  1  0  0  0  0
  3  5  1  0  0  0  0
  3 14  1  0  0  0  0
  3 15  1  0  0  0  0
  3 16  1  0  0  0  0
  4 14  1  0  0  0  0
  4 17  1  0  0  0  0
  5  8  1  0  0  0  0
  5 18  1  0  0  0  0
  6  8  1  0  0  0  0
  6 19  1  0  0  0  0
  6 20  1  0  0  0  0
  6 21  1  0  0  0  0
  7  9  1  0  0  0  0
  7 22  1  0  0  0  0
  7 23  1  0  0  0  0
  7 24  1  0  0  0  0
  8 25  1  0  0  0  0
  8 26  1  0  0  0  0
  9 10  1  0  0  0  0
  9 27  1  0  0  0  0
  9 28  1  0  0  0  0
 10 13  1  0  0  0  0
 10 29  1  0  0  0  0
 10 30  1  0  0  0  0
M  END
$$$$
