29   
torsion grid (-165,)
C        1.4494805090   -0.5523743105    6.5373492629
C       -0.6810186660   -1.0949625706    6.9191474302
C        0.1529284906   -0.5213901230    5.9687972986
C        1.1842836380   -1.6248892635    1.2138736073
C       -0.6153666195    0.1326875726    1.3045054076
C        1.7839486482    0.7280161229    1.8543761160
C       -0.2689979606   -2.0486475380    9.2196506923
C        0.7002175156   -0.3568307280    1.9340949501
N        1.4206935657   -1.1104497965    7.7455129799
N        0.1154095089   -1.4328759067    7.9594933449
N        0.5450386320   -0.7794944912    3.3715915347
O       -1.8178269490   -0.1492930972    4.3346050268
O        0.0747702707    1.5425857525    4.2952411907
S       -0.3823134109    0.1583729056    4.4383602588
H        2.3791674192   -0.1998096139    6.1109515552
H       -1.7484809512   -1.2640681726    6.9039167159
H        2.0977327345   -2.0113327770    1.6766447834
H        0.4202766431   -2.4115347953    1.2347032747
H        1.3990433337   -1.3979823086    0.1657078366
H       -0.9635236579    1.0558435282    1.7736826836
H       -1.4056296401   -0.6175560919    1.4043608089
H       -0.4603307050    0.3328117316    0.2391001648
H        1.4756766319    1.6310952572    2.3823652007
H        2.7148958734    0.3660070654    2.3011899432
H        1.9754547968    0.9812141893    0.8063494999
H        0.2988781576   -2.9698890276    9.3669536438
H       -0.0653974033   -1.3629933364   10.0456741343
H       -1.3352662798   -2.2772327277    9.1898621474
H        0.1682617246   -1.7274040091    3.4245005010
29   
torsion grid (-150,)
C        1.3639564498   -0.4694226217    6.4500365123
C       -0.7152518331   -1.1105785519    6.9426776633
C        0.0458583860   -0.5313943391    5.9369999219
C        1.1498363262   -1.6168282632    1.1832958479
C       -0.5242134435    0.2623329777    1.2170377061
C        1.8373610461    0.6283962294    2.0667431638
C       -0.1587879250   -1.9407076536    9.2612276102
C        0.6761398504   -0.3681887997    1.9445022568
N        1.4151091932   -0.9776355809    7.6793952738
N        0.1402964089   -1.3621921904    7.9611281475
N        0.3224277057   -0.8821535173    3.3130579843
O       -1.9990403512   -0.3412453826    4.3602525880
O       -0.1931579189    1.4482157862    4.2055635624
S       -0.5815882182    0.0492875683    4.4004242689
H        2.2554256067   -0.0857751141    5.9718547232
H       -1.7710306383   -1.3391615457    6.9792016790
H        1.9773263551   -2.1034737142    1.7087687464
H        0.3364639543   -2.3424879830    1.0621901003
H        1.4939320427   -1.3340614788    0.1843588826
H       -0.8564842827    1.1737732311    1.7184245247
H       -1.3671987026   -0.4351036978    1.1763042320
H       -0.2429916906    0.5207394824    0.1906490993
H        1.5359427657    1.5197268956    2.6176202872
H        2.6809287103    0.1630471081    2.5861671719
H        2.1692821280    0.9301325350    1.0678811967
H        0.4937573421   -2.7981180173    9.4388681775
H       -0.0004460428   -1.1975866123   10.0467959374
H       -1.2001084415   -2.2657701464    9.2716983424
H       -0.1388993110   -1.7905037067    3.2551019977
29   
torsion grid (-135,)
C        1.2269015641   -0.2237513980    6.4485584675
C       -0.7290776524   -1.1703286234    6.9504233840
C       -0.0803572962   -0.4520515503    5.9565260114
C        0.9772949841   -1.6001516230    1.2327847115
C       -0.5103652460    0.4310673665    1.2087409054
C        1.7751238048    0.5197074666    2.3080944964
C       -0.0107889678   -1.9935771278    9.2270172588
C        0.5439133459   -0.3485790483    2.0137237418
N        1.3766128744   -0.7636303654    7.6567364879
N        0.1765807017   -1.3361400143    7.9437408244
N       -0.0025067760   -0.8924169246    3.3016878699
O       -2.2111869376   -0.3518541001    4.4923388954
O       -0.4333008747    1.4655000793    4.2020910806
S       -0.8036114999    0.0685161484    4.4396302221
H        2.0427657629    0.3067964219    5.9755743540
H       -1.7425656142   -1.5426673328    6.9985616908
H        1.7073668061   -2.1819930774    1.8033060872
H        0.1195427379   -2.2440827503    1.0038859820
H        1.4329291955   -1.3057083620    0.2829277440
H       -0.8174938413    1.3359688209    1.7362526543
H       -1.3981760899   -0.1859669787    1.0329222741
H       -0.0998080613    0.7215106620    0.2357341636
H        1.5030219010    1.4197466913    2.8604396655
H        2.5063710933   -0.0477687624    2.8925216975
H        2.2450274345    0.8201969536    1.3660810758
H        0.7466052551   -2.7699114846    9.3552224918
H        0.0783950868   -1.2650247387   10.0366708660
H       -1.0037267134   -2.4448799730    9.2506500778
H       -0.5941611659   -1.7073566454    3.1427668937
29   
torsion grid (-120,)
C        1.0985275707    0.0063494011    6.4065215046
C       -0.6917865499   -1.2323848830    6.8893034519
C       -0.1732022093   -0.3827171969    5.9234143922
C        0.8992792283   -1.6250236108    1.2950211586
C       -0.3766228389    0.5439367583    1.1915440465
C        1.7524776526    0.3654191059    2.5594432037
C        0.1827111165   -2.0471771514    9.1135637056
C        0.4912205058   -0.3662366507    2.0781677460
N        1.3500281068   -0.5642314249    7.5840412658
N        0.2502356486   -1.3146843836    7.8592952739
N       -0.2586804899   -0.8969840437    3.2613805242
O       -2.3710815160   -0.3686680308    4.5514488030
O       -0.6434406515    1.4899169332    4.1690347219
S       -0.9796948866    0.0886408985    4.4320349496
H        1.8176340558    0.6742703265    5.9511489949
H       -1.6423739909   -1.7443604667    6.9374414011
H        1.5064199272   -2.2898726727    1.9162048664
H        0.0193970725   -2.1802421822    0.9484202919
H        1.4807490801   -1.3421825097    0.4125307554
H       -0.6695079299    1.4487469377    1.7263955089
H       -1.2845022724    0.0200456418    0.8720500892
H        0.1794837881    0.8340546114    0.2935306264
H        1.4998024233    1.2794081586    3.0993955122
H        2.3419074347   -0.2846773500    3.2136719384
H        2.3692462314    0.6379623840    1.6973784691
H        1.0461409259   -2.7106759647    9.1969006109
H        0.1811884973   -1.3492491322    9.9545160444
H       -0.7343039176   -2.6379512907    9.1284321342
H       -0.9677601327   -1.5767749739    2.9886503569
29   
torsion grid (-105,)
C        0.8767231038    0.3295019109    6.4264704448
C       -0.6293297495   -1.2744807336    6.7861868373
C       -0.2934836715   -0.2630886234    5.8972131211
C        0.7652714493   -1.7324202444    1.4480924583
C       -0.2318296454    0.5711857199    1.2220503812
C        1.6680225213    0.1466189259    2.8436484745
C        0.3954064141   -2.0749562873    8.9497966950
C        0.4053075921   -0.4370780337    2.1942341753
N        1.2409069197   -0.2725981885    7.5586105720
N        0.3132433838   -1.2464305702    7.7575009721
N       -0.5486632621   -0.8742933944    3.2599792924
O       -2.5634224724   -0.2819608084    4.6180374458
O       -0.8461216706    1.5625732424    4.1362082149
S       -1.1766892170    0.1663025138    4.4370040333
H        1.4439404817    1.1627357997    6.0340914995
H       -1.4595950196   -1.9664320126    6.7861973250
H        1.2189061877   -2.4586779006    2.1285052028
H       -0.1231515618   -2.1893667123    0.9962151547
H        1.4726164331   -1.5157039333    0.6418104489
H       -0.4990253886    1.4954139648    1.7368856384
H       -1.1379164310    0.1516581523    0.7699112940
H        0.4680295072    0.8090077382    0.4136095980
H        1.4580652003    1.0970391323    3.3381971571
H        2.0826173891   -0.5525004486    3.5761085412
H        2.4231415565    0.3284078195    2.0729004373
H        1.3747265340   -2.5561898647    8.9934518417
H        0.2552030821   -1.4599132795    9.8421229750
H       -0.3842267441   -2.8367288571    8.9052847123
H       -1.3488510085   -1.3791759634    2.8793509110
29   
torsion grid (-90,)
C        0.5576392577    0.6909716786    6.5085393945
C       -0.4143885762   -1.3159085255    6.5192172875
C       -0.3659310197   -0.1222738695    5.8120831080
C        0.6530908228   -1.8943250189    1.6227185422
C        0.0720140458    0.5353832196    1.2768704270
C        1.6326992018   -0.1546967913    3.1422444163
C        0.7483247012   -2.1270754561    8.6072965038
C        0.3981319380   -0.5481740981    2.3199223554
N        1.0524047158    0.0459306643    7.5649140696
N        0.4491651559   -1.1731080856    7.5510421515
N       -0.7606875069   -0.8068977788    3.2292389185
O       -2.7047814179   -0.0678157978    4.5898603942
O       -0.9261373888    1.6849720860    4.0558863760
S       -1.3003086239    0.3038306136    4.3839274188
H        0.8667702164    1.7006373695    6.2736042450
H       -0.9891577126   -2.2158635877    6.3519789891
H        0.9025215602   -2.6681818358    2.3543808577
H       -0.2295556311   -2.2226430342    1.0614598433
H        1.4811622818   -1.7996888847    0.9134345869
H       -0.1433877522    1.4894965443    1.7610632954
H       -0.7999783366    0.2460023637    0.6788788939
H        0.9176073014    0.6697898686    0.5936606254
H        1.5140149227    0.8292138604    3.6009850537
H        1.8302101355   -0.8881652969    3.9289355227
H        2.5042388964   -0.1119840321    2.4821897521
H        1.8259425263   -2.2984600453    8.6501775964
H        0.4062968680   -1.7372271876    9.5691197376
H        0.2367771690   -3.0661089560    8.3912490137
H       -1.5925449096   -1.1157984272    2.7255293763
29   
torsion grid (-75,)
C        0.1631012423    0.7786628352    6.4358579706
C       -0.5027150073   -1.3489849339    6.3763011933
C       -0.6261319988   -0.1396966438    5.7057604217
C        0.4832427872   -1.9967643773    1.6520116836
C        0.1578738192    0.4901822579    1.3667337207
C        1.4304831155   -0.4104011755    3.3452403587
C        0.7655997992   -2.0476193164    8.4442839764
C        0.2637228203   -0.6624187944    2.3831281065
N        0.7465359780    0.1791034514    7.4731396011
N        0.3300051672   -1.1150104719    7.4167195536
N       -1.0214894309   -0.8423153451    3.1223914807
O       -2.9936048661   -0.2732240020    4.5099989092
O       -1.3634223727    1.6123889065    3.9807003728
S       -1.6222396947    0.2007563116    4.2980642263
H        0.3207657367    1.8294442053    6.2328920385
H       -0.9382947410   -2.3177312358    6.1758654971
H        0.5703916975   -2.8203119080    2.3667540800
H       -0.3484267155   -2.2170083826    0.9727264082
H        1.3978408911   -1.9515390179    1.0527982048
H       -0.0457532360    1.4350637927    1.8748275413
H       -0.6540763060    0.3033003177    0.6548376829
H        1.0893343103    0.5867619073    0.7984107239
H        1.3514252296    0.5611419703    3.8370206549
H        1.4927008982   -1.1865082101    4.1120863955
H        2.3621664317   -0.4155430511    2.7716389289
H        1.8565236884   -2.0551345416    8.4916471811
H        0.3642643488   -1.7464317732    9.4149965695
H        0.4031758697   -3.0455096252    8.1931816802
H       -1.8049164322   -1.1169980336    2.5314692597
29   
torsion grid (-60,)
C       -0.0280395540    0.6879146762    5.9418812834
C       -0.7804205588   -1.3682582512    6.3587965987
C       -0.8773691946   -0.3284666611    5.4438934741
C        0.4194666306   -1.5154823205    0.8683964845
C        0.4966056161    0.7294824512    1.9814086982
C        1.4859359232   -1.2872249012    3.1382873613
C        0.4937280481   -1.6480220403    8.5211211279
C        0.3593835815   -0.7797823714    2.2178532889
N        0.5587518330    0.3023934285    7.0755066367
N        0.0901449151   -0.9517146258    7.3094997841
N       -0.9832658668   -1.1163212953    2.7712224980
O       -2.9953717752   -1.1880023795    4.1961706481
O       -1.9761133479    1.0848677785    3.5737361025
S       -1.8402038215   -0.3162172606    3.9633185384
H        0.1591835724    1.6683355875    5.5244372428
H       -1.2776951313   -2.3274623744    6.3948653163
H        0.2987264312   -2.5972687313    1.0007554115
H       -0.3726053335   -1.1600895284    0.2040881634
H        1.3882060466   -1.3451387777    0.3884987141
H        0.5300692636    1.2925113147    2.9159286205
H       -0.3393335217    1.1114894743    1.3921685780
H        1.4297230474    0.9146257275    1.4405151449
H        1.4799415756   -0.7730679767    4.1018739404
H        1.3824524812   -2.3626220617    3.3242170792
H        2.4620209251   -1.1197103953    2.6711350268
H        1.5836662967   -1.6716384121    8.5805140944
H        0.0952760229   -1.1335940906    9.3991943236
H        0.1071324864   -2.6676746858    8.4887323876
H       -1.1643044342   -2.1145000390    2.8480509891
29   
torsion grid (-45,)
C       -0.1283440460    0.7602401230    5.8713454855
C       -0.6905661396   -1.3593990353    6.2730557313
C       -0.8907667062   -0.3219770785    5.3713928709
C        0.4734938817   -1.4361837636    0.8599707249
C        0.6022635554    0.6890639655    2.1837616472
C        1.3717092775   -1.4937935579    3.2080264741
C        0.6419438536   -1.5534443824    8.4091452043
C        0.3545547329   -0.8228123734    2.2662711406
N        0.5095018567    0.4131299759    6.9892243571
N        0.1571404408   -0.8810636948    7.2137015817
N       -1.0563245014   -1.0926352991    2.6693639477
O       -2.9982873503   -1.3238576794    4.1860245044
O       -2.1521251485    1.0212752563    3.5737160613
S       -1.9090372306   -0.3748853358    3.9310952152
H       -0.0384043986    1.7594649969    5.4669945260
H       -1.0999788897   -2.3594674578    6.3022432447
H        0.2683044157   -2.5131000270    0.8792261465
H       -0.2368558234   -0.9637983965    0.1766532879
H        1.4870306327   -1.2969465255    0.4710562129
H        0.5978000878    1.1604498115    3.1683434062
H       -0.1634447830    1.1748073036    1.5752846409
H        1.5836457455    0.8661031380    1.7333955444
H        1.3512751290   -1.0565997244    4.2076578331
H        1.1715135174   -2.5680685397    3.2967314656
H        2.3845523634   -1.3745525559    2.8094546658
H        1.7308678720   -1.4849725597    8.4482252624
H        0.2181426411   -1.0836696302    9.3001987999
H        0.3423677068   -2.6017512876    8.3713193838
H       -1.2763127731   -2.0871849892    2.6852734543
29   
torsion grid (-30,)
C       -0.2174060155    0.7756753216    5.8551694816
C       -0.6256706571   -1.3843378608    6.2282543009
C       -0.8992908198   -0.3522647723    5.3394874735
C        0.5182302684   -1.3496925219    0.8456796999
C        0.7043225519    0.6663753175    2.3232361903
C        1.2851915914   -1.6324010236    3.2203776689
C        0.7207060325   -1.5115338696    8.3604404192
C        0.3626367729   -0.8289062772    2.2859174901
N        0.4455439797    0.4597602697    6.9669936507
N        0.1869132777   -0.8599544573    7.1743207794
N       -1.0892826540   -1.0165938318    2.5817403548
O       -2.9436271284   -1.5084755480    4.1642905155
O       -2.3384973400    0.9314764775    3.6536732394
S       -1.9514913158   -0.4522395202    3.9278238480
H       -0.2052666806    1.7854612461    5.4677014778
H       -0.9631526610   -2.4112032501    6.2426830767
H        0.2591965058   -2.4131035587    0.7790375285
H       -0.1332416559   -0.7942311519    0.1662671003
H        1.5551144124   -1.2380291451    0.5139950316
H        0.6628134910    1.0694027562    3.3366103188
H        0.0067585668    1.2337048460    1.7025697945
H        1.7209841555    0.8185362218    1.9482382702
H        1.2823823698   -1.2390153192    4.2374896463
H        0.9843209647   -2.6859806465    3.2550972365
H        2.3142214443   -1.5910093396    2.8485160784
H        1.8026674522   -1.3700614766    8.3970621858
H        0.2694353824   -1.0812569671    9.2578870501
H        0.4923647521   -2.5771457058    8.3114321879
H       -1.3577140958   -1.9955575793    2.4830674938
29   
torsion grid (-15,)
C       -0.3324842531    0.8115010135    5.8514830411
C       -0.5500850384   -1.3787330583    6.2100592504
C       -0.8996819213   -0.3714774730    5.3192859426
C        0.5356047077   -1.2513611175    0.8109331072
C        0.8337554994    0.6028334798    2.4677782105
C        1.2039274595   -1.8078759123    3.1657148773
C        0.7716978912   -1.3959918524    8.3606730629
C        0.3766587427   -0.8508809269    2.2891293366
N        0.3406342322    0.5505287249    6.9706712812
N        0.1978708923   -0.7886135887    7.1697574425
N       -1.0961548646   -0.9456339675    2.5246093765
O       -2.8355243485   -1.7158247824    4.1536612956
O       -2.5342754786    0.7901269644    3.7302093926
S       -1.9733747444   -0.5458767270    3.9327003483
H       -0.4072620178    1.8201027603    5.4676538791
H       -0.7978637397   -2.4309407468    6.2159843447
H        0.1984830604   -2.2807753589    0.6408549731
H       -0.0499076551   -0.5875339484    0.1697413228
H        1.5878166284   -1.1924046988    0.5161950557
H        0.8059039042    0.9132275195    3.5135126242
H        0.1948490522    1.2755471947    1.8898475446
H        1.8660654168    0.7101545956    2.1208743347
H        1.1937206949   -1.5115248605    4.2151576225
H        0.8234866366   -2.8330777293    3.0906067049
H        2.2460340926   -1.8114458377    2.8296843491
H        1.8363575881   -1.1597322094    8.4123720786
H        0.2723332655   -1.0112362966    9.2532925674
H        0.6389545153   -2.4773477735    8.3049336808
H       -1.4196536586   -1.8872749075    2.3004034683
29   
torsion grid (0,)
C       -3.1369449793   -1.1409169609    2.9485040266
C       -2.6033188736    1.0112565619    3.1869619400
C       -2.1716545186   -0.2694268456    3.5089913797
C        2.2455396829   -1.3924294100    1.9923675955
C       -0.1087334987   -2.0908906754    1.4700663203
C        0.5154489759    0.3660226503    1.5817458286
C       -4.5878805745    1.8888790798    1.8987175025
C        0.7589760129   -1.0305111652    2.1693036846
N       -4.0774643447   -0.4530806095    2.3040988466
N       -3.7303552322    0.8549636868    2.4576792558
N        0.5823692969   -1.0037456400    3.6549482903
O       -0.5518660817    0.6032056639    5.2938773472
O       -1.1203800086   -1.8821621586    5.3049068860
S       -0.8196530712   -0.6434059692    4.5728315750
H       -3.1823122487   -2.2204319199    3.0072272609
H       -2.1870394103    1.9749065061    3.4441912391
H        2.8816900166   -0.6533249217    2.4861635194
H        2.4666568320   -2.3778429704    2.4188713351
H        2.4997990787   -1.4257985545    0.9285266785
H       -1.1692853133   -1.8402726694    1.5109010012
H        0.0323607100   -3.0749051605    1.9304723737
H        0.1727961955   -2.1690152774    0.4146591606
H       -0.5417846190    0.6349461249    1.5935468081
H        1.0745380969    1.1175828512    2.1462086370
H        0.8505369797    0.3890840705    0.5401512066
H       -4.7097477378    1.7225052255    0.8263904018
H       -5.5670863689    1.8606278821    2.3825311856
H       -4.1241333608    2.8615856275    2.0679545531
H        0.8743600777   -1.9036885327    4.0393552677
29   
torsion grid (15,)
C       -3.1699819297   -1.1484178505    3.0646258383
C       -2.6358411693    1.0156646264    3.1203494030
C       -2.1939880946   -0.2349390830    3.5324873996
C        2.1926732025   -1.4925596235    1.9922916176
C       -0.2076933020   -1.9111806339    1.3876909588
C        0.6460559985    0.4563243349    1.7074196718
C       -4.6589652908    1.7894177058    1.8245300521
C        0.7457073559   -1.0003192725    2.1797191229
N       -4.1283012126   -0.5138473723    2.3922458379
N       -3.7818074320    0.8024160344    2.4350930771
N        0.5399162466   -1.0637319913    3.6593774502
O       -0.4614094187    0.7899878065    5.1059303823
O       -1.0975381344   -1.6617853914    5.4584189932
S       -0.8002289952   -0.5310946287    4.5705419147
H       -3.2077399389   -2.2213118556    3.2009382328
H       -2.2172868358    1.9968752493    3.2935966097
H        2.8873299524   -0.8614216754    2.5523617247
H        2.3072686408   -2.5253541948    2.3418000781
H        2.4647750262   -1.4676468937    0.9325514468
H       -1.2381487276   -1.5565509393    1.4228126153
H       -0.1810292030   -2.9356848120    1.7758503291
H        0.0977052024   -1.9441378872    0.3365775594
H       -0.3790108769    0.8287267402    1.7545291446
H        1.2776692310    1.1004306366    2.3248766075
H        0.9768299356    0.5291327021    0.6668520109
H       -4.8159696932    1.5384664051    0.7734477765
H       -5.6218010946    1.8013700508    2.3409573576
H       -4.1912684011    2.7719797520    1.9002901801
H        0.6857711935   -2.0205136720    3.9838080633
29   
torsion grid (30,)
C       -3.2449576155   -1.2172280925    3.1473654109
C       -2.6992955816    0.9416737375    3.0372949693
C       -2.2614369254   -0.2765292366    3.5393451843
C        2.1102901580   -1.6224411469    2.0164928265
C       -0.2919048359   -1.7733025429    1.2987167907
C        0.7434394634    0.4720512093    1.8575214851
C       -4.7320665344    1.6288214202    1.7075439809
C        0.7041710440   -1.0234024447    2.2003414591
N       -4.2054840835   -0.6295353340    2.4363037683
N       -3.8523418989    0.6839210133    2.3779423265
N        0.4248700143   -1.1964450508    3.6570398807
O       -0.4307553157    0.8340387395    4.9401502849
O       -1.1449247695   -1.5496172059    5.5534428020
S       -0.8405894090   -0.5186610337    4.5560020883
H       -3.2847411425   -2.2778573583    3.3586208632
H       -2.2751259524    1.9311564561    3.1319172360
H        2.8343115386   -1.0981086191    2.6453680576
H        2.1254814311   -2.6848047474    2.2869393831
H        2.4221081437   -1.5405082597    0.9706140652
H       -1.2926024540   -1.3424807335    1.3440514853
H       -0.3591424009   -2.8292826534    1.5846061621
H        0.0452980874   -1.7307478316    0.2577633790
H       -0.2494480011    0.9245819017    1.8995506884
H        1.3930881150    1.0082793939    2.5533735898
H        1.1249368325    0.6027744824    0.8403157025
H       -4.9234214357    1.2881168110    0.6880093487
H       -5.6794077470    1.7045689578    2.2470222044
H       -4.2471165023    2.6056464889    1.6818481161
H        0.4446984093   -2.1817833890    3.9194197078
29   
torsion grid (45,)
C       -3.2713583616   -1.2284324056    3.2744242143
C       -2.7348500136    0.9189742484    3.0085649689
C       -2.2896848600   -0.2588187013    3.5926831827
C        2.0560531545   -1.7146112861    2.0365045944
C       -0.3236597440   -1.5955802600    1.2320161791
C        0.8840012004    0.5006530919    1.9716970144
C       -4.7867339514    1.5064778177    1.6591752587
C        0.7030407509   -1.0035753887    2.2146849694
N       -4.2417970611   -0.6942950980    2.5344605791
N       -3.8951680432    0.6124549487    2.3814789579
N        0.3365900905   -1.2550006417    3.6390117692
O       -0.3391457525    0.9173342006    4.7856809286
O       -1.1028608852   -1.3737150409    5.6487772580
S       -0.8204798474   -0.4448087803    4.5515074390
H       -3.3048988201   -2.2725690569    3.5570352608
H       -2.3109605944    1.9129925838    3.0234860075
H        2.7985072203   -1.2995828821    2.7229742492
H        1.9668663756   -2.7891559964    2.2348576039
H        2.4146368168   -1.5941333069    1.0094431043
H       -1.2875781300   -1.0880358970    1.2942462957
H       -0.4858305872   -2.6612462273    1.4302358403
H        0.0437962823   -1.4991945866    0.2049782779
H       -0.0648677564    1.0392727503    2.0186336059
H        1.5551544848    0.9367669199    2.7145606437
H        1.3064404827    0.6524426998    0.9737333749
H       -4.9883050698    1.0973077705    0.6671291224
H       -5.7282465816    1.6153803049    2.2032190680
H       -4.3064254890    2.4811350823    1.5620273992
H        0.2538935454   -2.2469070200    3.8559700250
29   
torsion grid (60,)
C       -3.2995887501   -1.2413247816    3.4002574971
C       -2.8122365421    0.8920621336    2.9768534801
C       -2.3276043326   -0.2364293398    3.6226739707
C        2.0025850628   -1.8495597949    2.0403836351
C       -0.2902238958   -1.3456116133    1.1308504046
C        1.1542859017    0.5098333510    2.0532465186
C       -4.9215550704    1.3573060702    1.6675946325
C        0.7546094968   -0.9642327488    2.1967306317
N       -4.3061789354   -0.7713346920    2.6642963532
N       -3.9896993572    0.5271194885    2.4144388361
N        0.2607862640   -1.2518901748    3.5736015709
O       -0.2860010867    1.0170198995    4.5953834957
O       -1.0278628307   -1.1872692420    5.6768544859
S       -0.7993224318   -0.3488042329    4.4985029052
H       -3.3052163414   -2.2649667108    3.7516444889
H       -2.4021316796    1.8893985204    2.9036886635
H        2.7541242576   -1.5869226603    2.7896508933
H        1.7533000101   -2.9106885140    2.1591413064
H        2.4352726092   -1.7192271764    1.0436812016
H       -1.1839818691   -0.7221094751    1.2037063433
H       -0.5976958864   -2.3916422966    1.2402187168
H        0.1303676266   -1.2213283118    0.1274191916
H        0.2893986325    1.1752447498    2.0869953512
H        1.8361019213    0.8101816858    2.8514182953
H        1.6513652487    0.6455935400    1.0877104168
H       -5.1450229057    0.8842371304    0.7091422090
H       -5.8480387264    1.4819718188    2.2336181791
H       -4.4650453660    2.3331491171    1.4958889952
H        0.1138534119   -2.2401042535    3.7661152811
29   
torsion grid (75,)
C       -2.9552829675   -1.4969264413    3.0654896963
C       -3.0459619161    0.7172036254    2.8161645520
C       -2.2468001354   -0.2986052936    3.3192926601
C        1.5258971737   -2.1273462807    1.5329534730
C       -0.1564054371   -0.3539946119    0.9792151120
C        2.0177120630    0.2911489256    2.0732567400
C       -5.3003301421    0.7319686739    1.6808274415
C        0.9213675027   -0.7870722918    1.9802999526
N       -4.1008273157   -1.2430024738    2.4351605387
N       -4.1363843279    0.1103082409    2.2920504402
N        0.3395655495   -1.0592207082    3.3275687700
O       -0.4045285596    1.3644045203    3.9818038980
O       -0.7711090008   -0.6457385947    5.5014037784
S       -0.7208150623   -0.0619191089    4.1581226001
H       -2.6673274164   -2.5123641098    3.3036008098
H       -2.8920900599    1.7868002035    2.8001430801
H        2.2853614442   -2.4749897933    2.2428012227
H        0.7504775699   -2.8948811689    1.4558470359
H        2.0097578999   -2.0153315777    0.5577468859
H       -0.5729903612    0.6238130989    1.2302274025
H       -0.9705444530   -1.0805567524    0.9244049483
H        0.3029074974   -0.2748865841   -0.0107093233
H        1.5993023779    1.2332618282    2.4345520029
H        2.8069629590   -0.0202001421    2.7668486927
H        2.4766892080    0.4593426907    1.0929654559
H       -5.5091132297    0.2476190346    0.7250523242
H       -6.1695155989    0.6288780840    2.3356879161
H       -5.0908792148    1.7899924923    1.5165656302
H        0.9937936764   -1.4506838491    4.0027491950
29   
torsion grid (90,)
C       -2.9661405500   -1.4863753238    3.1492294552
C       -3.0703318467    0.7117501839    2.7857386100
C       -2.2450506942   -0.2781341830    3.2988424771
C        1.5770066021   -2.1638243543    1.4569274842
C        0.0319181113   -0.2712658344    0.8850243737
C        2.1710630191    0.1867536954    2.1532755633
C       -5.3847392117    0.6723650328    1.7795776075
C        1.0207153952   -0.8104620787    1.9278485480
N       -4.1483741263   -1.2620010590    2.5783568053
N       -4.1923006973    0.0813232266    2.3653235107
N        0.3008643837   -1.1193603154    3.2011494375
O       -0.3158544859    1.3907203715    3.7043353493
O       -0.6552435923   -0.4775068448    5.4042080704
S       -0.6640692854   -0.0028123392    4.0169190625
H       -2.6636772068   -2.4888227064    3.4213021846
H       -2.9169075805    1.7780774507    2.6988749837
H        2.2578372338   -2.5923798703    2.2016601081
H        0.7659022670   -2.8763939700    1.2821483724
H        2.1401718294   -2.0355480943    0.5274009585
H       -0.3441025554    0.7164415311    1.1613126540
H       -0.8168400160   -0.9498181195    0.7623417410
H        0.5432630002   -0.1775225099   -0.0777416466
H        1.7912482692    1.1440167991    2.5147828947
H        2.8814617071   -0.2037577206    2.8911187011
H        2.7163707550    0.3535770942    1.2180532773
H       -5.6182381661    0.1672979324    0.8400810103
H       -6.2296858844    0.5689291399    2.4650826875
H       -5.1974225961    1.7301169269    1.5890402602
H        0.9055353895   -1.5440529847    3.9044899160
29   
torsion grid (105,)
C       -3.1298463803   -1.4330512412    3.4811101582
C       -3.1024443981    0.6544637504    2.6970001830
C       -2.3187671738   -0.2796443287    3.3579540260
C        1.6176537947   -2.1272882165    1.3650215511
C        0.2418361521   -0.1053682471    0.8036961941
C        2.2701666121    0.1170975437    2.3085963466
C       -5.4733856446    0.6078846202    1.8290746605
C        1.0933222836   -0.7803078731    1.8887672894
N       -4.3258496324   -1.2281728860    2.9325718303
N       -4.2892978918    0.0467366937    2.4592725183
N        0.2192598171   -1.1452104598    3.0472465949
O       -0.3297732074    1.3685169360    3.5528716737
O       -0.5813082724   -0.4692452169    5.3148854859
S       -0.6757658606   -0.0090982659    3.9251605903
H       -2.8870684102   -2.3830407417    3.9384555049
H       -2.8839054615    1.6709046762    2.4018045342
H        2.2011854060   -2.6505393049    2.1317330430
H        0.7897030153   -2.7739050130    1.0608961260
H        2.2726945974   -1.9648062291    0.5036280547
H       -0.1084926768    0.8772518425    1.1257681808
H       -0.6240094669   -0.7266523107    0.5551886618
H        0.8430833184    0.0287264165   -0.1006899312
H        1.9150302182    1.0753289802    2.6911880769
H        2.8669023160   -0.3686588337    3.0891261904
H        2.9261097879    0.3029516032    1.4511892470
H       -5.8050077035   -0.0516296945    1.0244694933
H       -6.2759683123    0.7131402138    2.5635934733
H       -5.2243392242    1.5876055741    1.4186866055
H        0.7223956280   -1.6943090286    3.7445521968
29   
torsion grid (120,)
C       -3.2767252227   -1.2654626080    3.8945820447
C       -3.1259389172    0.5407834042    2.5952215188
C       -2.3845077709   -0.2613104449    3.4502747555
C        1.6124283965   -2.0929177976    1.2541913246
C        0.4653311016    0.0794499126    0.7487783234
C        2.3270264394   -0.0064635982    2.4703128759
C       -5.5396824418    0.4964652184    1.8552498339
C        1.1365987408   -0.7567189155    1.8479357172
N       -4.4823006335   -1.0973860892    3.3527247423
N       -4.3691543914    0.0039408703    2.5634999050
N        0.1110658032   -1.1514514146    2.8660040508
O       -0.3313278317    1.3314217333    3.4719898280
O       -0.5091752876   -0.5286681147    5.2319352980
S       -0.6889171800   -0.0369747856    3.8611566157
H       -3.0870415766   -2.0775081419    4.5839701852
H       -2.8490205738    1.4298896410    2.0466209809
H        2.0855991559   -2.7211061913    2.0183282908
H        0.7742778633   -2.6464736358    0.8212269941
H        2.3539206529   -1.9094488806    0.4708915268
H        0.1369502172    1.0469538609    1.1322009219
H       -0.3989052746   -0.4543802391    0.3411358577
H        1.1771789105    0.2579222267   -0.0632112939
H        2.0129178629    0.9513741136    2.8881196850
H        2.7831924864   -0.6009294791    3.2698589160
H        3.0927017483    0.1790658148    1.7092701790
H       -5.9666797515   -0.3086552749    1.2537692227
H       -6.2885191420    0.8505935176    2.5683139076
H       -5.2387988541    1.3184704254    1.2040588957
H        0.4690183687   -1.8709148543    3.4941333294
29   
torsion grid (135,)
C       -3.3091750950   -1.2319700888    4.1563353890
C       -3.2105934608    0.3722177924    2.6102371047
C       -2.4334201979   -0.3119392777    3.5340011558
C        1.6689927881   -2.0394103223    1.2702104248
C        0.7330188392    0.2404853255    0.8091048534
C        2.3448429212   -0.1083240973    2.7374039026
C       -5.6567082032    0.2550103006    1.9976054285
C        1.2017684885   -0.7215601758    1.9098956335
N       -4.5388790483   -1.1266637280    3.6526783775
N       -4.4563368994   -0.1482139395    2.7126936675
N        0.0264586219   -1.1221117457    2.7541085445
O       -0.3952712972    1.3159215712    3.4475372755
O       -0.4617726459   -0.5553728662    5.1997832759
S       -0.7207791687   -0.0579218057    3.8432059927
H       -3.0894158865   -1.9392635426    4.9450849415
H       -2.9577593292    1.1736431660    1.9304665197
H        2.0129408119   -2.7511650284    2.0302738446
H        0.8593004918   -2.5040071150    0.6997064455
H        2.5066357683   -1.8473385918    0.5933598679
H        0.4007027694    1.1904811595    1.2293510761
H       -0.0914815380   -0.2058533656    0.2441075935
H        1.5588586065    0.4381812791    0.1181357205
H        2.0428858219    0.8410189211    3.1835092887
H        2.6496181494   -0.7871432748    3.5412022190
H        3.2149624222    0.0727083141    2.0972171673
H       -6.1133227346   -0.6200082623    1.5305685285
H       -6.3704720246    0.7086206093    2.6898853885
H       -5.3837090346    0.9789565321    1.2284724125
H        0.2314245675   -1.9677607170    3.2863271292
29   
torsion grid (150,)
C       -3.3375914900   -0.9940866865    4.2701631528
C       -3.2979746087    0.3123896084    2.4619132718
C       -2.4831804323   -0.2165447332    3.4538478947
C        1.6130557985   -1.9806158819    1.1373968934
C        0.9616898088    0.4077864675    0.7320679430
C        2.2971473992   -0.2155381515    2.7958491019
C       -5.7720949345    0.1386180591    1.9950689190
C        1.2037121036   -0.6596302344    1.8084784026
N       -4.5896998305   -0.9529276915    3.8141408228
N       -4.5423052516   -0.1545894024    2.7142312629
N       -0.1011395498   -0.9796291076    2.4860153779
O       -0.4453644718    1.4306904773    3.2523649831
O       -0.4177743137   -0.4322422400    5.0008636695
S       -0.7586093984    0.0574454317    3.6588539452
H       -3.0831083839   -1.5578452504    5.1578725801
H       -3.0712452396    0.9731575615    1.6370833158
H        1.8148977031   -2.7600074747    1.8820008730
H        0.8268949039   -2.3358011892    0.4640809979
H        2.5270206367   -1.8335561353    0.5547449327
H        0.6446044799    1.3512578088    1.1773385915
H        0.1897810923    0.0704180013    0.0331251832
H        1.8858763127    0.5802918731    0.1706981335
H        2.0473862628    0.7410049547    3.2597252008
H        2.4323867590   -0.9574356765    3.5894383117
H        3.2498586091   -0.0999930246    2.2682055926
H       -6.2641696531   -0.7966811577    1.7209484911
H       -6.4425297022    0.7282891693    2.6253174017
H       -5.5290030638    0.7020154482    1.0930521338
H       -0.0653695228   -1.9049079759    2.9155304799
29   
torsion grid (165,)
C       -3.2726665976   -0.9534051131    4.3033747777
C       -3.3782646582    0.2686830739    2.4400185008
C       -2.4924076868   -0.1821550449    3.4100506777
C        1.5743486029   -1.9869508095    1.1034763740
C        1.2201059834    0.4737599276    0.7530980523
C        2.2560570351   -0.3668513869    2.9050702462
C       -5.8629810569   -0.0233218993    2.1102797206
C        1.2332917250   -0.6565026146    1.7926704011
N       -4.5464889271   -0.9831020377    3.9119394856
N       -4.5874068189   -0.2340089041    2.7770221907
N       -0.1675706731   -0.8521043000    2.3104598129
O       -0.5241537069    1.5511759859    3.0679181235
O       -0.3462451194   -0.2538822392    4.8549298052
S       -0.7757502578    0.1790763950    3.5181110095
H       -2.9507648636   -1.4649279906    5.2007986021
H       -3.2192857268    0.8982803724    1.5759020736
H        1.6141374688   -2.8111027147    1.8259757826
H        0.8326504252   -2.2296208169    0.3360830576
H        2.5552561267   -1.9172296757    0.6246292753
H        0.9590958478    1.4275820634    1.2130039509
H        0.4903503650    0.2555445827   -0.0326821047
H        2.2101454725    0.5641493137    0.2939256532
H        2.0628030011    0.5952865716    3.3851398564
H        2.2315276816   -1.1413844653    3.6774460424
H        3.2639985772   -0.3348633923    2.4780870819
H       -6.3258630546   -0.9890491313    1.8978362292
H       -6.5267179816    0.5623388887    2.7511425816
H       -5.6897396064    0.5129957321    1.1762552901
H       -0.2815757925   -1.8018217390    2.6691489565
29   
torsion grid (180,)
C        1.5272984038   -0.6578145326    6.6187377817
C       -0.6653671387   -0.9820337072    6.8817886525
C        0.2682719163   -0.4417512829    6.0072375811
C        1.2596903721   -1.6077679601    1.3088072017
C       -0.7270919887   -0.0646621395    1.3985366129
C        1.6166167059    0.8522506080    1.6627071896
C       -0.4630430525   -2.1302174528    9.1206013495
C        0.6842567074   -0.3341277334    1.9482609382
N        1.3833496663   -1.2928924996    7.7798694692
N        0.0420859018   -1.4792544744    7.9220435522
N        0.7045560503   -0.6243487873    3.4259754546
O       -1.5869039013    0.3077927312    4.3690360485
O        0.5238173128    1.7061693945    4.4429773382
S       -0.1234952474    0.3948672056    4.5101418557
H        2.5078284870   -0.3810104890    6.2547901654
H       -1.7434096584   -1.0249974824    6.8162316782
H        2.2494243889   -1.8338556103    1.7165059477
H        0.6050405264   -2.4710494095    1.4806303662
H        1.3525123632   -1.4722726694    0.2273426276
H       -1.1458985335    0.8624271406    1.7954286890
H       -1.4151497304   -0.8764779640    1.6545268264
H       -0.6828902229    0.0193300417    0.3074863153
H        1.2452005311    1.7714524405    2.1178488998
H        2.6155283115    0.6551782347    2.0623196779
H        1.6944091175    1.0031315653    0.5810385548
H       -0.0017740212   -3.1145603539    9.2256191097
H       -0.2273266652   -1.5253541901    9.9994907806
H       -1.5447919332   -2.2405655448    9.0330476468
H        0.3306687609   -1.5613850630    3.5918627331
