18   
torsion grid (-165,)
C       -2.4692210283    0.5498192938    0.0448213273
C       -0.0284697265    1.0435836821    1.8740978065
C        0.7643040914    0.9354665487    3.8924497077
C        0.3473155686   -0.2812925566   -0.2223854945
C       -0.1164369069    1.0581517462    0.3620042812
N       -3.3198276891   -0.2351955911    0.2132319182
N        1.0972627685    1.0358018853    2.5207172753
N       -1.1550876915    1.0257456026    2.6769757209
N       -0.6502522033    0.7514369153    3.9670080620
N       -1.4596589877    1.4164311657   -0.1442193120
O        1.4986325148    0.9959870169    4.8567488690
H       -0.3106408327   -1.0970700853    0.0910045772
H        0.3441178375   -0.2275373442   -1.3136629906
H        1.3574430143   -0.4957150217    0.1305368147
H        0.5584170793    1.8451505773    0.0164395812
H       -1.9415082789    0.4373440544    2.3991808754
H       -1.1187626749    1.2590136848    4.7127245082
H       -1.7260233046    2.3871610755   -0.0083230310
18   
torsion grid (-150,)
C       -2.4717374899    0.6696128437    0.0259291608
C       -0.0242382325    1.0564311696    1.8773603241
C        0.7628852932    1.0948511248    3.9013142999
C        0.2748995980   -0.3244158656   -0.1985634878
C       -0.1037038575    1.0497272885    0.3665379948
N       -3.3494575862   -0.0884881034    0.1767281403
N        1.0780384363    1.2680754589    2.5327406486
N       -1.1280742587    0.8262314713    2.6734033345
N       -0.5922528345    0.6446120270    3.9663068034
N       -1.4201397315    1.4888515598   -0.1513082807
O        1.4665995446    1.2869904151    4.8714832726
H       -0.4363927166   -1.0945691187    0.1135337810
H        0.2861909573   -0.2828630766   -1.2903565194
H        1.2672265418   -0.6008189983    0.1632616022
H        0.6236201964    1.7864567268    0.0190415744
H       -1.8215298362    0.1353542857    2.3883240247
H       -1.1524147222    1.0547520918    4.7090444208
H       -1.6361367720    2.4675980735    0.0151611411
18   
torsion grid (-135,)
C       -2.4655033365    0.7864950832    0.0108413959
C       -0.0148028491    1.0445749888    1.8716711943
C        0.7230460953    1.2456971046    3.9058237971
C        0.2097183860   -0.3671796806   -0.2031251889
C       -0.0841648379    1.0265977572    0.3615118338
N       -3.3781320146    0.0675248494    0.1426566277
N        1.0200900904    1.4630809994    2.5385962209
N       -1.0692780054    0.6286008095    2.6581247337
N       -0.5283871525    0.5576567014    3.9597785422
N       -1.3693490197    1.5485741003   -0.1610187356
O        1.3668397903    1.5726270199    4.8816414075
H       -0.5494462478   -1.0945520715    0.0986659833
H        0.2310756487   -0.3248334843   -1.2947317854
H        1.1814619762   -0.7077346201    0.1614459757
H        0.6884168642    1.7181853842    0.0202947838
H       -1.6357879595   -0.1682612645    2.3735922293
H       -1.1639373204    0.8679051423    4.6903702228
H       -1.5276847930    2.5347849486    0.0262548047
18   
torsion grid (-120,)
C       -2.4675486287    0.8964881811    0.0050117730
C       -0.0107550706    1.0220104687    1.8612968127
C        0.6404663778    1.3927489433    3.9021655892
C        0.1320198259   -0.4151889958   -0.2171214665
C       -0.0728837221    0.9911984505    0.3518048171
N       -3.4250229663    0.2360435199    0.1211949462
N        0.9187047513    1.6345766270    2.5347338937
N       -0.9835364755    0.4334848959    2.6420240683
N       -0.4634866101    0.4865048173    3.9529321488
N       -1.3268055228    1.5918530953   -0.1664126986
O        1.1959430840    1.8503356029    4.8796471910
H       -0.6845782412   -1.0895955234    0.0573285413
H        0.1793092021   -0.3672672279   -1.3075460407
H        1.0690371088   -0.8309599815    0.1615893417
H        0.7368936473    1.6386117926    0.0112540083
H       -1.3860690564   -0.4595838386    2.3678015581
H       -1.1591855724    0.6893408091    4.6663859194
H       -1.4226576413    2.5845501738    0.0299570845
18   
torsion grid (-105,)
C       -2.4496727290    1.0167373402    0.0130593255
C        0.0060987254    1.0024402669    1.8631670521
C        0.5388179608    1.5265204704    3.9048212848
C        0.0650375203   -0.4511929048   -0.2218597572
C       -0.0481256710    0.9609092102    0.3540419310
N       -3.4512875759    0.4232324373    0.1153835570
N        0.7965098756    1.7865789814    2.5367732500
N       -0.8550400176    0.2585087878    2.6420506844
N       -0.3805812570    0.4335111019    3.9594975448
N       -1.2668882442    1.6398172343   -0.1553584491
O        0.9820151237    2.0975528903    4.8798199860
H       -0.7937526899   -1.0737204460    0.0472519691
H        0.1100126969   -0.3998780723   -1.3121152417
H        0.9757692295   -0.9308354811    0.1464940202
H        0.7944336090    1.5637230818    0.0116767090
H       -1.0658306661   -0.7019161993    2.3832394417
H       -1.1164358283    0.5188583408    4.6562309632
H       -1.2976303004    2.6350454626    0.0500322387
18   
torsion grid (-90,)
C       -2.4291642518    1.1343740730    0.0128498242
C        0.0142868279    0.9904598581    1.8600801010
C        0.4157006273    1.6503752713    3.8921469215
C       -0.0152847789   -0.4892762371   -0.2179715201
C       -0.0328406285    0.9282735548    0.3512557726
N       -3.4710924747    0.6137794642    0.1069614018
N        0.6389768447    1.9211829017    2.5206117071
N       -0.7021744436    0.1156400767    2.6496520629
N       -0.2851761555    0.4061151293    3.9662913052
N       -1.2089367218    1.6828907950   -0.1548539020
O        0.7320932838    2.3159058578    4.8562150867
H       -0.9114227201   -1.0523920013    0.0601646757
H        0.0223049252   -0.4449024673   -1.3086712725
H        0.8677220406   -1.0269370850    0.1389698207
H        0.8412308199    1.4788665394   -0.0003011779
H       -0.7110813470   -0.8731182734    2.4126218064
H       -1.0341999422    0.3704988371    4.6533109868
H       -1.1766005742    2.6742397805    0.0704697376
18   
torsion grid (-75,)
C       -2.3851457919    1.2606969023    0.0009460697
C        0.0122975614    0.9951248933    1.8798123080
C        0.2635619307    1.7576208864    3.9001415745
C       -0.0830909890   -0.5061899370   -0.1879473034
C       -0.0136127549    0.9126018687    0.3697180322
N       -3.4575729523    0.8034322700    0.0773269259
N        0.4433493722    2.0389758231    2.5254112091
N       -0.5306900899    0.0143562432    2.6825593563
N       -0.1870619696    0.4026768883    3.9954090212
N       -1.1327767130    1.7405907886   -0.1505112645
O        0.4388750433    2.4878485933    4.8530154343
H       -0.9972429625   -1.0210800323    0.1219781986
H       -0.0740809720   -0.4703923225   -1.2794807945
H        0.7843214259   -1.0852727178    0.1429074957
H        0.8956730472    1.4046733948    0.0186841819
H       -0.3446834659   -0.9613612293    2.4643496492
H       -0.9227736105    0.2392568717    4.6783613626
H       -1.0469028909    2.7200651613    0.1129231127
18   
torsion grid (-60,)
C       -2.3521286164    1.3668837731   -0.0645078393
C       -0.0169530594    0.9774564649    1.8759654777
C        0.1196538982    1.8040600908    3.8825073618
C       -0.1833966677   -0.5420636482   -0.1779242427
C       -0.0239913297    0.8750737560    0.3649131164
N       -3.4511131488    0.9732350544   -0.0220279221
N        0.2126158267    2.0943330419    2.5025828578
N       -0.3422379630   -0.0777046371    2.6995327442
N       -0.0552070721    0.3866509557    4.0010080816
N       -1.0700024042    1.7775312473   -0.1796370769
O        0.1689420463    2.5657563980    4.8251073293
H       -1.1154871966   -1.0035325781    0.1593019734
H       -0.1935323553   -0.5147191533   -1.2696420729
H        0.6593378413   -1.1663653781    0.1352387896
H        0.9238014797    1.2949664615    0.0182574532
H        0.0179975457   -1.0044137305    2.4858243146
H       -0.7360529862    0.0965222993    4.6988441738
H       -0.9394070965    2.7381520798    0.1338056888
18   
torsion grid (-45,)
C       -2.3498211366    0.7398782453   -0.5877571487
C       -0.0853044576    1.1589541382    2.2292579128
C       -0.2297866343    1.7259398468    4.3237267484
C        0.4826966054    0.0393031045    0.0091260883
C       -0.3707588804    1.0670122936    0.7508867366
N       -2.7869690352    0.6921752382   -1.6705896650
N       -0.8646029929    1.7832915510    3.0612600796
N        1.0328746751    0.5990975200    2.8086834160
N        1.0581504666    1.1374727414    4.1141080792
N       -1.8088364907    0.7285564828    0.6445465684
O       -0.6489838076    2.0882458393    5.4017618171
H        0.3719075106   -0.9536717284    0.4515153064
H        0.1740694371   -0.0097825621   -1.0377728229
H        1.5391403578    0.3274309834    0.0201489991
H       -0.1841790475    2.0664106308    0.3317190619
H        1.9192909491    0.6467489017    2.3114802510
H        1.3482659871    0.4726720733    4.8268833939
H       -2.3710022189    1.1878460406    1.3606914953
18   
torsion grid (-30,)
C       -2.3505795182    0.9034415203   -0.5929379774
C       -0.0782752006    1.1145943418    2.2356232182
C       -0.2700664951    1.6122935510    4.3445598740
C        0.4306858073   -0.0898256278    0.0519072831
C       -0.3602133018    1.0131530559    0.7585812358
N       -2.7869678798    0.9552067146   -1.6761506563
N       -0.9394839473    1.5627036987    3.0988631243
N        1.1432185620    0.7695517682    2.7770632202
N        1.0993573000    1.2847016176    4.0928504164
N       -1.8119944035    0.7811711751    0.6320669485
O       -0.7226084974    1.8743960794    5.4376670939
H        0.2295707206   -1.0614717207    0.5088080181
H        0.1421961726   -0.1298518354   -1.0012821326
H        1.5064941261    0.1089742295    0.0898520688
H       -0.0912114503    1.9869624756    0.3206074280
H        1.9868368941    1.0092316399    2.2603794725
H        1.5290335321    0.6762540266    4.7851948283
H       -2.3506256825    1.1917548477    1.3947679654
18   
torsion grid (-15,)
C       -2.3367456515    1.0614223107   -0.5934796205
C       -0.0669927206    1.0885830213    2.2390879034
C       -0.2891833823    1.4740549862    4.3685339208
C        0.3790878455   -0.2040149148    0.1038528225
C       -0.3487502145    0.9724744126    0.7644055477
N       -2.7662985593    1.2038362575   -1.6716536944
N       -0.9711866041    1.3491321427    3.1332422086
N        1.2106084937    0.9396688749    2.7454040416
N        1.1083686389    1.3955956347    4.0811360253
N       -1.8064909072    0.8415862852    0.6185381674
O       -0.7556086611    1.6190643657    5.4772780303
H        0.0932334898   -1.1440126167    0.5815231220
H        0.1113328996   -0.2501661123   -0.9546984014
H        1.4646764751   -0.0849349329    0.1729225160
H       -0.0055731951    1.9104092273    0.3001363508
H        1.9795018247    1.3567055653    2.2239703853
H        1.6515711570    0.8468788143    4.7428904529
H       -2.3362495074    1.1802266019    1.4211989366
18   
torsion grid (0,)
C       -2.3072518388    1.1936439049   -0.6133364948
C       -0.0548027296    1.0644803546    2.2248830178
C       -0.2934676116    1.3075973666    4.3734387423
C        0.3302710649   -0.3154499122    0.1471672139
C       -0.3315476486    0.9314452742    0.7514895293
N       -2.7247806952    1.4118435932   -1.6840697081
N       -0.9713187807    1.1337637849    3.1403610076
N        1.2418517963    1.0977484339    2.7078754778
N        1.0923393464    1.4656803957    4.0672165454
N       -1.7889463087    0.8987736826    0.5837176452
O       -0.7568276358    1.3213926443    5.4927388081
H       -0.0304050818   -1.2155356445    0.6510223136
H        0.0787255075   -0.3807856396   -0.9145007638
H        1.4189780212   -0.2649344041    0.2424653846
H        0.0795136738    1.8248078052    0.2570584419
H        1.9139443770    1.6717207716    2.2015413622
H        1.7276964046    0.9788160292    4.6943513066
H       -2.3283163999    1.1331377996    1.4152520830
18   
torsion grid (15,)
C       -2.2578584109    1.1041011899   -0.5761171245
C        0.0087670374    1.0476965747    2.2810553481
C       -0.2301978615    1.0480782968    4.4422021591
C        0.2259185450   -0.3107307017    0.1902152978
C       -0.2669507905    1.0137422343    0.8025797629
N       -2.7039881069    1.0249657920   -1.6545739804
N       -0.9045091527    0.9624974772    3.1975905906
N        1.3042072988    1.1248526735    2.7638784768
N        1.1388853895    1.3327357187    4.1544037020
N       -1.7076296583    1.2371637190    0.6350439761
O       -0.6845798816    0.9069182884    5.5563918038
H       -0.2658155911   -1.1585732456    0.6751455282
H       -0.0075823443   -0.3321615469   -0.8772170598
H        1.3078708326   -0.4115125881    0.3137910358
H        0.2682403843    1.8456162458    0.3261362703
H        1.9215744435    1.8039389425    2.3218588213
H        1.8115232031    0.8297643327    4.7274450648
H       -2.2764673753    1.0157041999    1.4497118235
18   
torsion grid (30,)
C       -2.2186022307    1.2493141071   -0.8366795621
C       -0.0342652281    1.0233351778    2.0763776749
C       -0.2803299326    0.9029463339    4.2319510977
C        0.1044745048   -0.4067367742    0.0357802527
C       -0.2940585168    0.9712406908    0.5963819080
N       -2.6201066571    1.2497215947   -1.9349063626
N       -0.9260567204    0.7552401569    2.9783499359
N        1.2295932957    1.2901652101    2.5733658472
N        1.0282838090    1.4118062053    3.9693891822
N       -1.7152217668    1.3012977869    0.4048044652
O       -0.7109812358    0.6507285361    5.3360452127
H       -0.4610657214   -1.1965129629    0.5378487823
H       -0.1095562302   -0.4434474595   -1.0355587819
H        1.1729588279   -0.5864590509    0.1858150082
H        0.3009621458    1.7458611141    0.0983448523
H        1.7269801060    2.0792832447    2.1637750818
H        1.7702080670    0.9998158703    4.5293484016
H       -2.3196683936    0.9798407648    1.1588696526
18   
torsion grid (45,)
C       -2.1269582731    1.3859991853   -0.8686935399
C       -0.0131226756    0.9827860634    2.0770318785
C       -0.2282924393    0.7886332981    4.2295300088
C        0.0249829665   -0.5041688218    0.0713327629
C       -0.2718157365    0.9099784216    0.5976436498
N       -2.4861038514    1.4747449217   -1.9775897115
N       -0.8377987270    0.5399448637    2.9746789346
N        1.1810181078    1.4673524234    2.5766456175
N        0.9676274571    1.5293218723    3.9734224278
N       -1.6689509765    1.3426304149    0.3938795499
O       -0.6029434388    0.4514469654    5.3316007809
H       -0.5959549620   -1.2383042879    0.5913596629
H       -0.1869828585   -0.5493749206   -1.0002932921
H        1.0775235917   -0.7573983550    0.2300636692
H        0.3712401389    1.6309751255    0.0816400414
H        1.5320037277    2.3354663054    2.1751547474
H        1.7737332778    1.2512822406    4.5271627573
H       -2.3134178263    0.9564369792    1.0816545402
18   
torsion grid (60,)
C       -1.6483181256    1.8875248880   -1.2231366448
C        0.0043250850    1.0506803894    1.9155511231
C       -0.4396756937    0.5563742144    3.9825993242
C        0.3134461134   -0.2302839905   -0.2145137759
C       -0.0493610678    1.1219629247    0.4134349528
N       -1.8180496613    2.1969770891   -2.3373347578
N       -0.7798198407    0.3044883942    2.6305544527
N        0.9379922948    1.7679656900    2.6381155570
N        0.5285536065    1.6086551320    3.9813351512
N       -1.4104002392    1.5952947201    0.0689756281
O       -0.8525423752    0.0069155093    4.9811024504
H       -0.3644158125   -1.0081814600    0.1455945217
H        0.2415342065   -0.1613707450   -1.3033561707
H        1.3374102908   -0.5110162409    0.0504834368
H        0.6496634497    1.8885962710    0.0650884239
H        1.0905215557    2.7373888744    2.3631561324
H        1.2962343314    1.4915880245    4.6375828397
H       -2.1453019716    1.0579036768    0.5253458246
18   
torsion grid (75,)
C       -1.5332386902    2.0388126788   -1.1719786372
C        0.0910132895    0.9716722100    1.9009416051
C       -0.2635395427    0.4403286197    3.9761342248
C        0.2531927151   -0.3243577159   -0.2493031816
C        0.0068339098    1.0406579123    0.3984261132
N       -1.6735721034    2.4601791540   -2.2529262972
N       -0.5283011822    0.0932282294    2.6274516244
N        0.8452883905    1.8843862141    2.6139662666
N        0.4597362876    1.6730889783    3.9565647485
N       -1.3280406962    1.6150234854    0.0901488251
O       -0.5638444365   -0.1623459999    4.9843368788
H       -0.4593516061   -1.0602143186    0.1308640314
H        0.1484190797   -0.2401743710   -1.3344025231
H        1.2638804202   -0.6764986270   -0.0219862677
H        0.7437704138    1.7635910999    0.0365497884
H        0.7923436836    2.8574443281    2.3144065973
H        1.2240042399    1.7390058167    4.6237792867
H       -2.0954820930    1.0684406254    0.4760756630
18   
torsion grid (90,)
C       -1.4098913011    2.1621348027   -1.1460250000
C        0.1248954037    0.9377568502    1.9039712319
C       -0.1368695722    0.3949623718    3.9898236068
C        0.1599414831   -0.4010932846   -0.2354213144
C        0.0282505163    0.9823512400    0.3999886044
N       -1.4991457084    2.6519718065   -2.2030904686
N       -0.3205956047   -0.0269781536    2.6476751856
N        0.6813938180    1.9966639616    2.5997570052
N        0.3274709218    1.7442495010    3.9440675006
N       -1.2638144366    1.6568417947    0.0953155233
O       -0.3220236763   -0.2344145718    5.0095796588
H       -0.5987200064   -1.0798925618    0.1610610242
H        0.0474583059   -0.3180074384   -1.3197773285
H        1.1424684397   -0.8284047018   -0.0157829142
H        0.8100882774    1.6468609371    0.0214083445
H        0.4341988811    2.9312782597    2.2751644442
H        1.0528496813    1.9786941005    4.6166179149
H       -2.0732083742    1.1313125627    0.4199680604
18   
torsion grid (105,)
C       -1.2736022211    2.2410071176   -1.1261168947
C        0.1462679647    0.9456083121    1.9484285175
C       -0.0013753493    0.4078445309    4.0471709171
C        0.0786083978   -0.4480333887   -0.1603373217
C        0.0470800571    0.9539615637    0.4423917634
N       -1.3082321691    2.7479245067   -2.1780516656
N       -0.1117682970   -0.0686206359    2.7141780236
N        0.4993092667    2.1046397161    2.6195949437
N        0.2012354473    1.8178620250    3.9712958082
N       -1.1920505221    1.7138020610    0.1132558962
O       -0.0606727629   -0.2251667686    5.0799203434
H       -0.7343352462   -1.0601051669    0.2376908123
H       -0.0127069356   -0.3801794189   -1.2477317658
H        1.0202496928   -0.9459999286    0.0851456817
H        0.8747237696    1.5519595107    0.0501066082
H        0.0757503692    2.9664637578    2.2763541429
H        0.8708721760    2.1984349576    4.6347416413
H       -2.0417210483    1.2308748281    0.3993778778
18   
torsion grid (120,)
C       -1.1615286280    2.3081067224   -1.1190000225
C        0.1612456958    0.9228808958    1.9600979362
C        0.1782607456    0.3663253860    4.0588002521
C       -0.0164167895   -0.4885788726   -0.1321565145
C        0.0472277309    0.9187247685    0.4544776622
N       -1.1489945242    2.8336915854   -2.1619401937
N        0.1100442239   -0.1218293954    2.7270156103
N        0.3233186897    2.1252184846    2.6279429195
N        0.1233799088    1.7899122042    3.9862085603
N       -1.1386889799    1.7562312073    0.1134422687
O        0.2661345870   -0.2680311847    5.0888288487
H       -0.8750231903   -1.0372695530    0.2637261007
H       -0.0934738602   -0.4267995858   -1.2210038844
H        0.8827510489   -1.0507589797    0.1304033267
H        0.9118113101    1.4548330480    0.0518828173
H       -0.2499345588    2.9007608457    2.2974356556
H        0.7354434055    2.2827470804    4.6311262442
H       -2.0203156708    1.3085575494    0.3582915442
18   
torsion grid (135,)
C       -1.0439167426    2.3876349405   -1.1584381703
C        0.1492592153    0.9007106987    1.9179685743
C        0.3456466730    0.3439531267    4.0068252724
C       -0.1153329942   -0.5246652050   -0.1547659627
C        0.0251725935    0.8848546650    0.4130671821
N       -0.9613312159    2.9551701742   -2.1757354176
N        0.3141535722   -0.1412396526    2.6741389503
N        0.1232353075    2.1067250665    2.5935352511
N        0.0356219260    1.7368412643    3.9538847044
N       -1.1068309611    1.7834924146    0.0483913858
O        0.5839600423   -0.2686457517    5.0263624254
H       -1.0149735480   -1.0123968789    0.2317901148
H       -0.1692332879   -0.4765388859   -1.2456571587
H        0.7403134301   -1.1371331146    0.1366478172
H        0.9228569679    1.3619471847    0.0077415673
H       -0.5661635150    2.7902001283    2.2850977512
H        0.5776087153    2.3262045465    4.5803528058
H       -2.0164724682    1.3585963337    0.2208221636
18   
torsion grid (150,)
C       -0.8871772557    2.4909359918   -1.1256711304
C        0.1439009627    0.8997560226    1.9278428769
C        0.5136029268    0.3962843341    4.0064038634
C       -0.2002527752   -0.5628214425   -0.1052603962
C        0.0110894948    0.8537274917    0.4239480257
N       -0.7092081827    3.1333131707   -2.0846210178
N        0.5274470372   -0.0904032187    2.6762875348
N       -0.0725996246    2.0817880969    2.6050139646
N       -0.0457545883    1.7121072408    3.9670185504
N       -1.0672538613    1.7962504541    0.0181806759
O        0.8910237139   -0.1571416207    5.0180271499
H       -1.1381652242   -0.9830599052    0.2718334956
H       -0.2255102664   -0.5487458556   -1.1981288841
H        0.6095104937   -1.2131956857    0.2304352325
H        0.9388307730    1.2645459608    0.0136127968
H       -0.8595476524    2.6578618158    2.3146565824
H        0.4084032007    2.3920668051    4.5713299773
H       -1.9961853035    1.3833926709    0.0776524465
18   
torsion grid (165,)
C       -0.6769047566    2.8229165029   -0.6818871218
C        0.2343471303    0.8818440674    1.7846358997
C        0.8030297166    0.5785675288    3.8560665768
C       -0.3254989063   -0.7461629758   -0.0405767451
C        0.0341636948    0.7008607944    0.2971647234
N       -0.3738287065    3.8854023956   -1.0611550772
N        0.8784835190    0.0486756498    2.5463896508
N       -0.2432986684    2.0002022674    2.4297865047
N       -0.0624522871    1.7176407601    3.7996712525
N       -1.0277557054    1.6190107771   -0.1876645670
O        1.3451005561    0.1823156843    4.8668515586
H       -1.2975856960   -1.0134825951    0.3870261615
H       -0.3564896237   -0.8850942416   -1.1252121314
H        0.4224577323   -1.4154617432    0.3859714226
H        0.9802956934    0.9602064255   -0.1902909772
H       -1.1644153215    2.3432313657    2.1657239515
H        0.2423107971    2.5176977583    4.3482705691
H       -1.7705982538    1.1622852271   -0.7071095950
18   
torsion grid (180,)
C       -2.4707561462    0.4431019721    0.1286272846
C       -0.0211814044    1.0347670634    1.8767482047
C        0.7749015346    0.8040787186    3.8838512414
C        0.4205289403   -0.2058945599   -0.2609737958
C       -0.1328837356    1.0782544999    0.3649828120
N       -3.2896039245   -0.3629915827    0.3475479564
N        1.0925225826    0.8142328619    2.5041990229
N       -1.1195089653    1.2372439253    2.6988125829
N       -0.6457118659    0.8918219380    3.9843838644
N       -1.5063323829    1.3458583618   -0.1128705237
O        1.5278681811    0.7406948464    4.8332203736
H       -0.1864283654   -1.0699958703    0.0246368083
H        0.4162002773   -0.1160651114   -1.3497100206
H        1.4395467868   -0.3693823284    0.0926462392
H        0.4704165945    1.9251641756    0.0258172842
H       -1.9873904530    0.7622525908    2.4470002724
H       -0.9988145461    1.4842677229    4.7307960268
H       -1.8162693060    2.3100006681   -0.0428746644
