75
0 1 C35H36O3S
C                     3.345907094589    -1.275288623856    -4.384311185830
C                     2.394649276971   -15.849252776110    -8.722550362162
C                     3.665887234491    -1.953803416411    -3.202518925082
C                     2.399134630634    -0.246306278846    -4.349151302551
C                     1.907428638172   -14.643651626130    -9.237529954649
C                     2.917348855864   -15.888420599956    -7.424944102205
C                     3.039523972612    -1.613192133469    -2.003593419699
C                     1.780426906669     0.099315624350    -3.144956959602
C                     1.001413969202    -3.574717436032     0.731692355507
C                     0.135039128984    -2.947229196321    -1.420069328485
C                    -0.801171545233    -1.157857062208     2.037874948184
C                     1.945881368978   -13.484209212500    -8.457598942348
C                     2.959579562697   -14.729287098815    -6.646869020217
C                     0.833708942675    -4.928124030536     0.420331856188
C                    -0.047641591439    -4.285710051258    -1.742708181696
C                    -1.255893744616    -0.779195122597     3.300474283536
C                     0.790428327088     0.476696404767     3.625470070876
C                     0.676312192959    -2.560072856498    -0.178770413050
C                     2.078835216954    -0.585989093913    -1.953593110804
C                     0.433590195405    -0.718488923717     1.536008308768
C                     1.244849572808     0.103128414946     2.358556131471
C                     2.477283695734   -13.514057659447    -7.159814376129
C                     0.308136386620    -5.289950303025    -0.827402780189
C                    -0.454159964472     0.046960095860     4.096917027130
C                     0.879379502465    -1.130852799890     0.177734739164
C                     1.426762674060    -0.217110894787    -0.671126748429
C                     2.607437894635     0.546769669996     1.877207179501
C                     1.442590946526     1.250603067906    -0.282703595406
C                     2.547151005193     1.586713995010     0.739462523788
C                     2.494686000522   -12.277298359507    -6.310855340009
C                     0.997824935898    -9.171118500466    -2.323828374303
C                     0.163551414057    -8.958488942888    -1.055763051123
C                     0.686489921753   -10.506323748469    -3.010918383013
C                     0.459842904373    -7.641825492835    -0.353160281275
C                     1.515359935719   -10.703741551490    -4.278055582283
O                     1.664510956178   -13.375721147887    -3.976417893984
O                    -0.831755125161     0.457674775381     5.354042294117
O                     0.095567642087    -6.578383826380    -1.238485555378
S                     1.168664739429   -12.365548449164    -5.002448885396
H                     3.831585308821    -1.542019253872    -5.319501548175
H                     2.366444592026   -16.751857257797    -9.327586882850
H                     4.406957255768    -2.749317046533    -3.215253733410
H                     2.140567993164     0.287318740364    -5.260542983493
H                     1.499459367062   -14.605338873279   -10.244328947566
H                     3.289990843776   -16.824522358920    -7.017169039131
H                     3.288889017447    -2.147452922056    -1.091936647434
H                     1.037098849192     0.892652711562    -3.135911267864
H                     1.401262910179    -3.305178414934     1.705616843932
H                    -0.144644748420    -2.184278591693    -2.139615183137
H                    -1.419182607400    -1.806457900969     1.423472509461
H                     1.565049765761   -12.548737857056    -8.862558417529
H                     3.343205729597   -14.762582076935    -5.631384922205
H                     1.109535054712    -5.678157906295     1.152821062614
H                    -0.468961654317    -4.579327275747    -2.699968916799
H                    -2.223005589756    -1.125211363358     3.662533012991
H                     1.403274878976     1.100062549803     4.271279917901
H                     3.188828787844     0.946193147204     2.713919388058
H                     3.144445605080    -0.333452256129     1.505980825296
H                     1.578033827139     1.877310183845    -1.168261993237
H                     0.475094140841     1.515766110979     0.156543943598
H                     2.350110912990     2.585288658597     1.147905614881
H                     3.525372640115     1.626640653685     0.246195130465
H                     3.429480231391   -12.172168808021    -5.751801371411
H                     2.313847605266   -11.373679656777    -6.900574969212
H                     0.816605263171    -8.341174616603    -3.015581148628
H                     2.064800521851    -9.135599268819    -2.065035095525
H                    -0.904905587621    -8.994218093843    -1.299764800259
H                     0.354091590832    -9.770770404905    -0.343027199162
H                     0.888768407958   -11.337581478803    -2.326716406556
H                    -0.381494768098   -10.551024405809    -3.259643488555
H                     1.527846750439    -7.567303588257    -0.104422740069
H                    -0.116757146460    -7.562570320362     0.578160684388
H                     1.276794683365    -9.954197508617    -5.041564294240
H                     2.588246563409   -10.668781866534    -4.058719492033
H                    -1.708082333475     0.092157894022     5.553829795022
