
  -OEChem-05262117483D

 42 42  0     1  0  0  0  0  0999 V2000
    1.6030   -1.2279    0.2130 C   0  0  0  0  0  0  0  0  0  0  0  0
    1.5407   -1.6367    1.6898 C   0  0  0  0  0  0  0  0  0  0  0  0
    1.0123   -2.4340   -0.5183 C   0  0  0  0  0  0  0  0  0  0  0  0
    0.1690   -2.3001    1.8392 C   0  0  2  0  0  0  0  0  0  0  0  0
   -0.0009   -3.3106    2.9697 C   0  0  0  0  0  0  0  0  0  0  0  0
    0.1813   -2.6296    4.3338 C   0  0  0  0  0  0  0  0  0  0  0  0
    0.0579   -4.2200   10.8642 C   0  0  0  0  0  0  0  0  0  0  0  0
    0.2633   -3.2091    9.7282 C   0  0  0  0  0  0  0  0  0  0  0  0
    0.2902   -3.5749   12.2350 C   0  0  0  0  0  0  0  0  0  0  0  0
   -0.0334   -3.5953    5.5003 C   0  0  0  0  0  0  0  0  0  0  0  0
    0.0245   -3.8689    8.3674 C   0  0  0  0  0  0  0  0  0  0  0  0
    0.1072   -4.5518   13.3772 C   0  0  0  0  0  0  0  0  0  0  0  0
   -0.0379   -2.9832    0.4594 N   0  3  0  0  0  0  0  0  0  0  0  0
   -0.7545   -1.6198    7.1284 O   0  0  0  0  0  0  0  0  0  0  0  0
    1.7107   -2.2826    7.0128 O   0  0  0  0  0  0  0  0  0  0  0  0
    0.3130   -3.9565   14.5744 F   0  0  0  0  0  0  0  0  0  0  0  0
    0.9724   -5.5961   13.2918 F   0  0  0  0  0  0  0  0  0  0  0  0
   -1.1458   -5.0770   13.3976 F   0  0  0  0  0  0  0  0  0  0  0  0
    0.2859   -2.6594    7.0405 S   0  0  0  0  0  0  0  0  0  0  0  0
    0.9999   -0.3332    0.0312 H   0  0  0  0  0  0  0  0  0  0  0  0
    2.6183   -1.0220   -0.1304 H   0  0  0  0  0  0  0  0  0  0  0  0
    2.3364   -2.3498    1.9339 H   0  0  0  0  0  0  0  0  0  0  0  0
    1.6367   -0.7855    2.3655 H   0  0  0  0  0  0  0  0  0  0  0  0
    0.5281   -2.2117   -1.4690 H   0  0  0  0  0  0  0  0  0  0  0  0
    1.7492   -3.2243   -0.6665 H   0  0  0  0  0  0  0  0  0  0  0  0
   -0.6097   -1.5345    1.8930 H   0  0  0  0  0  0  0  0  0  0  0  0
   -0.9973   -3.7670    2.9136 H   0  0  0  0  0  0  0  0  0  0  0  0
    0.7395   -4.1140    2.8533 H   0  0  0  0  0  0  0  0  0  0  0  0
   -0.5240   -1.7976    4.4301 H   0  0  0  0  0  0  0  0  0  0  0  0
    1.1895   -2.2126    4.4087 H   0  0  0  0  0  0  0  0  0  0  0  0
    0.7454   -5.0635   10.7389 H   0  0  0  0  0  0  0  0  0  0  0  0
   -0.9587   -4.6254   10.8218 H   0  0  0  0  0  0  0  0  0  0  0  0
   -0.4247   -2.3660    9.8456 H   0  0  0  0  0  0  0  0  0  0  0  0
    1.2814   -2.8089    9.7612 H   0  0  0  0  0  0  0  0  0  0  0  0
    1.3054   -3.1746   12.3136 H   0  0  0  0  0  0  0  0  0  0  0  0
   -0.4060   -2.7479   12.4029 H   0  0  0  0  0  0  0  0  0  0  0  0
   -1.0607   -3.9673    5.5457 H   0  0  0  0  0  0  0  0  0  0  0  0
    0.6690   -4.4333    5.4756 H   0  0  0  0  0  0  0  0  0  0  0  0
    0.7252   -4.6893    8.1861 H   0  0  0  0  0  0  0  0  0  0  0  0
   -1.0038   -4.2287    8.2660 H   0  0  0  0  0  0  0  0  0  0  0  0
   -0.9876   -2.8133    0.1167 H   0  0  0  0  0  0  0  0  0  0  0  0
    0.0543   -3.9993    0.5542 H   0  0  0  0  0  0  0  0  0  0  0  0
  1  2  1  0  0  0  0
  1  3  1  0  0  0  0
  1 20  1  0  0  0  0
  1 21  1  0  0  0  0
  2  4  1  0  0  0  0
  2 22  1  0  0  0  0
  2 23  1  0  0  0  0
  3 13  1  0  0  0  0
  3 24  1  0  0  0  0
  3 25  1  0  0  0  0
  4  5  1  0  0  0  0
  4 13  1  0  0  0  0
  4 26  1  0  0  0  0
  5  6  1  0  0  0  0
  5 27  1  0  0  0  0
  5 28  1  0  0  0  0
  6 10  1  0  0  0  0
  6 29  1  0  0  0  0
  6 30  1  0  0  0  0
  7  8  1  0  0  0  0
  7  9  1  0  0  0  0
  7 31  1  0  0  0  0
  7 32  1  0  0  0  0
  8 11  1  0  0  0  0
  8 33  1  0  0  0  0
  8 34  1  0  0  0  0
  9 12  1  0  0  0  0
  9 35  1  0  0  0  0
  9 36  1  0  0  0  0
 10 19  1  0  0  0  0
 10 37  1  0  0  0  0
 10 38  1  0  0  0  0
 11 19  1  0  0  0  0
 11 39  1  0  0  0  0
 11 40  1  0  0  0  0
 12 16  1  0  0  0  0
 12 17  1  0  0  0  0
 12 18  1  0  0  0  0
 13 41  1  0  0  0  0
 13 42  1  0  0  0  0
 14 19  2  0  0  0  0
 15 19  2  0  0  0  0
M  CHG  1  13   1
M  END
$$$$
