
  -OEChem-05262117483D

 38 41  0     1  0  0  0  0  0999 V2000
    1.7433   -4.9804   -5.3511 C   0  0  0  0  0  0  0  0  0  0  0  0
    2.7799   -4.0215   -5.4982 C   0  0  0  0  0  0  0  0  0  0  0  0
    0.9989   -5.0262   -4.1906 C   0  0  0  0  0  0  0  0  0  0  0  0
    3.0508   -3.1281   -4.4828 C   0  0  0  0  0  0  0  0  0  0  0  0
    0.5125   -4.1357   -1.9141 C   0  0  0  0  0  0  0  0  0  0  0  0
    0.7805   -3.2389   -0.9041 C   0  0  0  0  0  0  0  0  0  0  0  0
    2.5477   -2.2386   -2.2126 C   0  0  0  0  0  0  0  0  0  0  0  0
    1.2539   -4.1170   -3.1276 C   0  0  0  0  0  0  0  0  0  0  0  0
    2.2989   -3.1491   -3.2755 C   0  0  0  0  0  0  0  0  0  0  0  0
    1.8076   -2.2606   -1.0455 C   0  0  0  0  0  0  0  0  0  0  0  0
   -0.3879   -0.5936    0.2860 C   0  0  0  0  0  0  0  0  0  0  0  0
    0.6237    2.2719    0.5205 C   0  0  0  0  0  0  0  0  0  0  0  0
    0.8640    2.1893   -0.9993 C   0  0  0  0  0  0  0  0  0  0  0  0
    1.3490    1.0303    1.0571 C   0  0  0  0  0  0  0  0  0  0  0  0
   -0.4349    0.1149   -1.9114 C   0  0  0  0  0  0  0  0  0  0  0  0
    0.8781    0.6757   -1.3422 C   0  0  2  0  0  0  0  0  0  0  0  0
    1.0264   -0.0622    0.0159 C   0  0  2  0  0  0  0  0  0  0  0  0
    2.0362   -1.2333    0.0400 C   0  0  0  0  0  0  0  0  0  0  0  0
   -0.7844   -1.1002    1.3122 O   0  0  0  0  0  0  0  0  0  0  0  0
   -1.1894   -0.4171   -0.7934 O   0  0  0  0  0  0  0  0  0  0  0  0
    1.5401   -5.6793   -6.1582 H   0  0  0  0  0  0  0  0  0  0  0  0
    3.3607   -3.9959   -6.4166 H   0  0  0  0  0  0  0  0  0  0  0  0
    0.2053   -5.7611   -4.0753 H   0  0  0  0  0  0  0  0  0  0  0  0
    3.8466   -2.3948   -4.5951 H   0  0  0  0  0  0  0  0  0  0  0  0
   -0.2764   -4.8741   -1.7899 H   0  0  0  0  0  0  0  0  0  0  0  0
    0.2018   -3.2706    0.0149 H   0  0  0  0  0  0  0  0  0  0  0  0
    3.3469   -1.5085   -2.3317 H   0  0  0  0  0  0  0  0  0  0  0  0
    0.9919    3.2045    0.9581 H   0  0  0  0  0  0  0  0  0  0  0  0
   -0.4472    2.2057    0.7452 H   0  0  0  0  0  0  0  0  0  0  0  0
    0.1206    2.7430   -1.5816 H   0  0  0  0  0  0  0  0  0  0  0  0
    1.8426    2.6207   -1.2375 H   0  0  0  0  0  0  0  0  0  0  0  0
    2.4324    1.2023    1.0716 H   0  0  0  0  0  0  0  0  0  0  0  0
    1.0388    0.7327    2.0621 H   0  0  0  0  0  0  0  0  0  0  0  0
   -1.0621    0.8708   -2.3891 H   0  0  0  0  0  0  0  0  0  0  0  0
   -0.2600   -0.7080   -2.6098 H   0  0  0  0  0  0  0  0  0  0  0  0
    1.6930    0.4407   -2.0297 H   0  0  0  0  0  0  0  0  0  0  0  0
    1.9790   -1.7033    1.0279 H   0  0  0  0  0  0  0  0  0  0  0  0
    3.0398   -0.8072   -0.0618 H   0  0  0  0  0  0  0  0  0  0  0  0
  1  2  1  0  0  0  0
  1  3  2  0  0  0  0
  1 21  1  0  0  0  0
  2  4  2  0  0  0  0
  2 22  1  0  0  0  0
  3  8  1  0  0  0  0
  3 23  1  0  0  0  0
  4  9  1  0  0  0  0
  4 24  1  0  0  0  0
  5  6  2  0  0  0  0
  5  8  1  0  0  0  0
  5 25  1  0  0  0  0
  6 10  1  0  0  0  0
  6 26  1  0  0  0  0
  7  9  1  0  0  0  0
  7 10  2  0  0  0  0
  7 27  1  0  0  0  0
  8  9  2  0  0  0  0
 10 18  1  0  0  0  0
 11 17  1  0  0  0  0
 11 19  2  0  0  0  0
 11 20  1  0  0  0  0
 12 13  1  0  0  0  0
 12 14  1  0  0  0  0
 12 28  1  0  0  0  0
 12 29  1  0  0  0  0
 13 16  1  0  0  0  0
 13 30  1  0  0  0  0
 13 31  1  0  0  0  0
 14 17  1  0  0  0  0
 14 32  1  0  0  0  0
 14 33  1  0  0  0  0
 15 16  1  0  0  0  0
 15 20  1  0  0  0  0
 15 34  1  0  0  0  0
 15 35  1  0  0  0  0
 16 17  1  0  0  0  0
 16 36  1  0  0  0  0
 17 18  1  0  0  0  0
 18 37  1  0  0  0  0
 18 38  1  0  0  0  0
M  END
$$$$
