38
0 1 C18H18O2
C                     5.547642999040    -4.914873105091    -1.435356490795
C                     6.006418944571    -3.600777651498    -1.715299437486
C                     4.418406745569    -5.107038686710    -0.667026826279
C                     5.327303403588    -2.506129563538    -1.222597380052
C                     2.537013784915    -4.153272309816     0.660640969705
C                     1.859992610913    -3.054902682579     1.142585531793
C                     3.434681609446    -1.563646017374     0.088722544363
C                     3.696337588764    -3.997830473011    -0.147346044619
C                     4.157367638708    -2.671930594586    -0.430377994485
C                     2.291446168662    -1.728603132482     0.848525761696
C                    -0.369131579758     1.062070631803     1.097939967093
C                     0.152888932480    -0.585329633273    -2.005602160515
C                    -1.178606899696    -0.905434833625    -1.311628461187
C                     0.860771806076     0.359257847396    -1.016549120066
C                    -1.816664697467    -0.741778928235     1.202958343738
C                    -0.764097765569    -1.113457305614     0.156402139981
C                     0.365756297004    -0.081135116848     0.392019176758
C                     1.500790332415    -0.543950547200     1.350985619348
O                     0.040514855020     2.182134217465     1.298279505664
O                    -1.605436522853     0.657809353035     1.511082321153
H                     6.092377686323    -5.769041181753    -1.828954430718
H                     6.898241112501    -3.461690046972    -2.320764882762
H                     4.066806457543    -6.113054396812    -0.448989654411
H                     5.679691170804    -1.499575394457    -1.436675925376
H                     2.194001751971    -5.156591740319     0.903445942245
H                     0.990283097000    -3.197902822313     1.780111749889
H                     3.808145716489    -0.562457213075    -0.115666237057
H                     0.737790450805    -1.505037810339    -2.123356795434
H                     0.025905399381    -0.142239955504    -2.997935057191
H                    -1.858658396411    -0.047297737379    -1.391398523087
H                    -1.693892843453    -1.776184143714    -1.728695410404
H                     1.946706403876     0.305011007804    -1.102839200837
H                     0.579476107806     1.400603671793    -1.196944440535
H                    -2.844514291031    -0.844397147557     0.846851915969
H                    -1.704704140247    -1.309753395826     2.132861410816
H                    -0.418581073386    -2.139656824092     0.293648948662
H                     1.061994911836    -0.787233959439     2.326268944890
H                     2.159845051098     0.314613081753     1.510644686308
