
  -OEChem-05262117483D

 23 24  0     0  0  0  0  0  0999 V2000
    0.5453   -6.5357    4.3470 C   0  0  0  0  0  0  0  0  0  0  0  0
    0.8773   -5.3714    5.0434 C   0  0  0  0  0  0  0  0  0  0  0  0
   -0.1798   -6.4833    3.1540 C   0  0  0  0  0  0  0  0  0  0  0  0
   -0.2540   -4.0599    3.3371 C   0  0  0  0  0  0  0  0  0  0  0  0
    0.4806   -4.1353    4.5336 C   0  0  0  0  0  0  0  0  0  0  0  0
   -0.5848   -5.2451    2.6556 C   0  0  0  0  0  0  0  0  0  0  0  0
   -0.1433   -2.1814    1.8018 C   0  0  0  0  0  0  0  0  0  0  0  0
    1.0544   -1.7558   -0.1180 C   0  0  0  0  0  0  0  0  0  0  0  0
    0.2191   -0.5292    0.2979 C   0  0  0  0  0  0  0  0  0  0  0  0
    0.8833   -2.6081    1.0729 N   0  3  0  0  0  0  0  0  0  0  0  0
   -0.6867   -2.7871    2.8469 N   0  0  0  0  0  0  0  0  0  0  0  0
   -0.6348   -1.0287    1.3948 O   0  0  0  0  0  0  0  0  0  0  0  0
    0.8892   -2.6696    5.3803 Cl  0  0  0  0  0  0  0  0  0  0  0  0
   -1.5109   -5.1695    1.1775 Cl  0  0  0  0  0  0  0  0  0  0  0  0
    0.8532   -7.4993    4.7413 H   0  0  0  0  0  0  0  0  0  0  0  0
    1.4388   -5.4158    5.9705 H   0  0  0  0  0  0  0  0  0  0  0  0
   -0.4422   -7.3902    2.6198 H   0  0  0  0  0  0  0  0  0  0  0  0
    0.6596   -2.2577   -1.0053 H   0  0  0  0  0  0  0  0  0  0  0  0
    2.1055   -1.5085   -0.2707 H   0  0  0  0  0  0  0  0  0  0  0  0
    0.8206    0.2800    0.7131 H   0  0  0  0  0  0  0  0  0  0  0  0
   -0.4469   -0.1556   -0.4770 H   0  0  0  0  0  0  0  0  0  0  0  0
    1.2871   -3.5320    1.1792 H   0  0  0  0  0  0  0  0  0  0  0  0
   -1.4054   -2.2693    3.3480 H   0  0  0  0  0  0  0  0  0  0  0  0
  1  2  1  0  0  0  0
  1  3  2  0  0  0  0
  1 15  1  0  0  0  0
  2  5  2  0  0  0  0
  2 16  1  0  0  0  0
  3  6  1  0  0  0  0
  3 17  1  0  0  0  0
  4  5  1  0  0  0  0
  4  6  2  0  0  0  0
  4 11  1  0  0  0  0
  5 13  1  0  0  0  0
  6 14  1  0  0  0  0
  7 10  2  0  0  0  0
  7 11  1  0  0  0  0
  7 12  1  0  0  0  0
  8  9  1  0  0  0  0
  8 10  1  0  0  0  0
  8 18  1  0  0  0  0
  8 19  1  0  0  0  0
  9 12  1  0  0  0  0
  9 20  1  0  0  0  0
  9 21  1  0  0  0  0
 10 22  1  0  0  0  0
 11 23  1  0  0  0  0
M  CHG  1  10   1
M  END
$$$$
