
  -OEChem-05262117483D

 23 24  0     0  0  0  0  0  0999 V2000
    3.1748    4.5028    1.5214 C   0  0  0  0  0  0  0  0  0  0  0  0
    3.6256    3.1805    1.5177 C   0  0  0  0  0  0  0  0  0  0  0  0
    1.8124    4.8024    1.5898 C   0  0  0  0  0  0  0  0  0  0  0  0
    1.3228    2.4241    1.6478 C   0  0  0  0  0  0  0  0  0  0  0  0
    2.6972    2.1430    1.5890 C   0  0  0  0  0  0  0  0  0  0  0  0
    0.8897    3.7588    1.6473 C   0  0  0  0  0  0  0  0  0  0  0  0
    0.0763    0.5492    0.7365 C   0  0  0  0  0  0  0  0  0  0  0  0
   -0.9064   -1.0700   -0.5834 C   0  0  0  0  0  0  0  0  0  0  0  0
    0.2603   -0.3818   -1.3170 C   0  0  0  0  0  0  0  0  0  0  0  0
   -0.7257   -0.5155    0.7718 N   0  0  0  0  0  0  0  0  0  0  0  0
    0.3599    1.3655    1.7418 N   0  3  0  0  0  0  0  0  0  0  0  0
    0.6172    0.7521   -0.4440 O   0  0  0  0  0  0  0  0  0  0  0  0
    3.2493    0.4875    1.6097 Cl  0  0  0  0  0  0  0  0  0  0  0  0
   -0.8184    4.1041    1.7230 Cl  0  0  0  0  0  0  0  0  0  0  0  0
    3.8970    5.3120    1.4725 H   0  0  0  0  0  0  0  0  0  0  0  0
    4.6849    2.9522    1.4700 H   0  0  0  0  0  0  0  0  0  0  0  0
    1.4650    5.8299    1.5935 H   0  0  0  0  0  0  0  0  0  0  0  0
   -1.8846   -0.7917   -0.9842 H   0  0  0  0  0  0  0  0  0  0  0  0
   -0.8071   -2.1561   -0.5736 H   0  0  0  0  0  0  0  0  0  0  0  0
    1.1500   -1.0077   -1.3936 H   0  0  0  0  0  0  0  0  0  0  0  0
   -0.0028    0.0358   -2.2864 H   0  0  0  0  0  0  0  0  0  0  0  0
   -1.2866   -0.7795    1.5734 H   0  0  0  0  0  0  0  0  0  0  0  0
   -0.1559    1.2574    2.6104 H   0  0  0  0  0  0  0  0  0  0  0  0
  1  2  1  0  0  0  0
  1  3  2  0  0  0  0
  1 15  1  0  0  0  0
  2  5  2  0  0  0  0
  2 16  1  0  0  0  0
  3  6  1  0  0  0  0
  3 17  1  0  0  0  0
  4  5  1  0  0  0  0
  4  6  2  0  0  0  0
  4 11  1  0  0  0  0
  5 13  1  0  0  0  0
  6 14  1  0  0  0  0
  7 10  1  0  0  0  0
  7 11  2  0  0  0  0
  7 12  1  0  0  0  0
  8  9  1  0  0  0  0
  8 10  1  0  0  0  0
  8 18  1  0  0  0  0
  8 19  1  0  0  0  0
  9 12  1  0  0  0  0
  9 20  1  0  0  0  0
  9 21  1  0  0  0  0
 10 22  1  0  0  0  0
 11 23  1  0  0  0  0
M  CHG  1  11   1
M  END
$$$$
