41
0 1 C12F3H22NO2S
C                     0.688897990276    -2.586959816103    -2.846923994712
C                     1.818545171019    -2.344244655519    -1.832211659328
C                    -0.560273356936    -2.440120866130    -1.975992938710
C                     1.290755357160    -2.977082114815    -0.521036613050
C                     1.935528842368    -4.338908781299    -0.224975918083
C                     1.341785222653    -5.010612496933     1.017358369607
C                    -2.410699444025    -8.603127776551     3.518649660616
C                    -0.926833098408    -8.273685281359     3.723876753990
C                    -2.987088003894    -9.345632026822     4.729566856062
C                     1.971851735445    -6.376960966807     1.271894777566
C                    -0.349631611216    -7.537175545239     2.514803042609
C                    -4.450378494906    -9.692267198541     4.571744409739
N                    -0.174983202881    -3.126518266539    -0.728815092010
O                     1.484225858030    -6.175899694022     3.899680610181
O                     2.118683562694    -8.456484241138     2.934564683894
F                    -4.925606676335   -10.349495620833     5.659489465654
F                    -4.673611980604   -10.492054204519     3.495629324805
F                    -5.223361092925    -8.586151210705     4.407073859966
S                     1.410724090695    -7.168085183094     2.809204825230
H                     0.706094741468    -1.887112800082    -3.686811536414
H                     0.744075890711    -3.604133635158    -3.249729983234
H                     2.775381151451    -2.773232818978    -2.143532560317
H                     1.968866673259    -1.267807153494    -1.696987916290
H                    -0.784925566736    -1.370968927771    -1.825802354912
H                    -1.445415429888    -2.911427294083    -2.416571199646
H                     1.498793953179    -2.310505623635     0.328132702219
H                     1.794952635890    -4.987532163009    -1.099394405365
H                     3.016748307175    -4.201018297335    -0.091268987435
H                     0.262170916370    -5.110112867631     0.867297815234
H                     1.497065951456    -4.378672553937     1.898507784630
H                    -2.534209410287    -9.219484366169     2.621471377922
H                    -2.977675634683    -7.680425075609     3.353545376034
H                    -0.801471525210    -7.650179639919     4.615242908751
H                    -0.356689274133    -9.193416355924     3.888997294896
H                    -2.451595729978   -10.283909984730     4.903057271199
H                    -2.896112392305    -8.741853736079     5.637551254904
H                     1.778242219722    -7.094601349575     0.468830958129
H                     3.055905076510    -6.310146655305     1.412493161861
H                    -0.397643123983    -8.145600022475     1.606723439495
H                    -0.854438639678    -6.582884272178     2.344318697995
H                    -0.699446550584    -2.774333613412     0.065749405867
