28   
torsion grid (-105,)
C       -3.2704286557    4.3501974547    2.3425204686
C       -3.5559840114    3.1393871895    2.9838455661
C       -2.4907068173    4.3618655306    1.1744985952
C       -3.0661574001    1.9422826241    2.4648289049
C       -2.0006775226    3.1708276422    0.6535571408
C       -2.2641123295    1.9396946325    1.3025340809
C       -0.5315448275    0.3972596679    0.1308223124
C        0.3228685563   -0.5772961335    0.9347626645
C       -0.5199773034    0.0341626210   -1.3278074508
C       -1.7052727023    0.6891148680    0.8350895738
C        1.8509648473   -0.2852850917   -0.9462700968
C        0.8041171163   -1.0293256846   -3.1039397953
N        1.4833086032   -0.9506617623    0.2944187114
N        0.7161160515   -0.3005817115   -1.8449763808
O        0.0638544495   -0.9677497946    2.0744866637
O       -1.5516738775   -0.0148998904   -2.0009131528
H       -3.6466634850    5.2836509894    2.7529220158
H       -4.1569983499    3.1317561102    3.8889763821
H       -2.2697038689    5.3043303648    0.6805038599
H       -3.2773339371    1.0012779492    2.9660775220
H       -1.3867154923    3.1706469007   -0.2426354947
H       -1.8054755265   -0.0339502681    1.6524902305
H        2.1725018080    0.7506493624   -0.7630701714
H        2.6802127372   -0.8241153816   -1.4073575468
H        1.6022169243   -0.6127310037   -3.7274305462
H       -0.1473381354   -0.9233752853   -3.6234966243
H        1.0029659000   -2.0958707088   -2.9331443568
H        2.2024207646   -1.3488751780    0.8871172864
28   
torsion grid (-90,)
C       -3.3951160987    4.3635906683    2.1516530299
C       -3.5490250583    3.2370049134    2.9666857601
C       -2.7264718789    4.2558710242    0.9214824550
C       -3.0355000733    2.0056432470    2.5596654725
C       -2.2100036767    3.0315777906    0.5139998267
C       -2.3346333873    1.8905737144    1.3412390874
C       -0.5676690425    0.3065545794    0.3024640827
C        0.2830532780   -0.6936230302    1.0567713489
C       -0.5892824858    0.1153715152   -1.1833449223
C       -1.7301795783    0.6159591865    0.9992068538
C        1.7326800910   -0.6104942797   -0.9379109855
C        0.6119928545   -0.7032249599   -3.1667630959
N        1.3874183188   -1.1295729664    0.3695412530
N        0.5289556191   -0.4764822788   -1.7321687183
O        0.0618394726   -1.0664183523    2.2111619580
O       -1.5682475806    0.4240445555   -1.8706130874
H       -3.7936858173    5.3231477701    2.4708626144
H       -4.0687022679    3.3194828021    3.9173639999
H       -2.6172835283    5.1310880348    0.2864336641
H       -3.1461009628    1.1304455722    3.1946782653
H       -1.7024382218    2.9326801881   -0.4409877800
H       -1.7998728317   -0.0435730039    1.8703595549
H        2.2614498551    0.3548398578   -0.8619522514
H        2.4003917845   -1.3206831095   -1.4323084012
H        1.2857183399    0.0190590114   -3.6472632856
H       -0.3850613710   -0.5826467408   -3.5882013450
H        0.9765523158   -1.7166254891   -3.3681366229
H        2.0737600826   -1.6418069241    0.9098101943
28   
torsion grid (-75,)
C       -3.4206938544    4.3655823073    2.0450582364
C       -3.4855205374    3.3213022683    2.9732875850
C       -2.8207709966    4.1571422253    0.7934147479
C       -2.9486101498    2.0735523280    2.6551245175
C       -2.2801653811    2.9161761645    0.4736866269
C       -2.3132459454    1.8608511262    1.4140816649
C       -0.5585536184    0.2239359732    0.4581801292
C        0.2765822167   -0.8331814576    1.1411891997
C       -0.5737902795    0.1834652121   -1.0381819032
C       -1.6809355888    0.5709535170    1.1814988691
C        1.7091729237   -0.6902329574   -0.8659248855
C        0.6071009802   -0.4779475085   -3.0884126535
N        1.3410542351   -1.2849340240    0.4017986233
N        0.5133174254   -0.4154899844   -1.6374179371
O        0.0685000022   -1.2528609186    2.2809870935
O       -1.5235227403    0.6184636182   -1.6985837469
H       -3.8403282414    5.3376161853    2.2914018695
H       -3.9549100777    3.4788072193    3.9405756130
H       -2.7867895833    4.9660615802    0.0682291078
H       -2.9913853451    1.2623475746    3.3774937243
H       -1.8414756523    2.7338165920   -0.5018677492
H       -1.7473504211   -0.0433193410    2.0833708426
H        2.3021551970    0.2298166011   -0.7254063512
H        2.3247352330   -1.4033163048   -1.4207151218
H        1.3311220616    0.2531503910   -3.4728051719
H       -0.3734025036   -0.2495559224   -3.5035803503
H        0.9153326755   -1.4811549961   -3.4025917370
H        2.0115988051   -1.8579627607    0.8995668449
28   
torsion grid (-60,)
C       -3.4477841741    4.3267192464    1.9163914002
C       -3.4635345781    3.3325684245    2.8999747795
C       -2.8566594590    4.0663779676    0.6714222162
C       -2.8862116406    2.0896562497    2.6411873258
C       -2.2793664583    2.8275921017    0.4079623134
C       -2.2646433014    1.8228459803    1.4018545055
C       -0.5523738119    0.1162681517    0.4755547960
C        0.2768736548   -0.9746162851    1.1054982361
C       -0.5681416541    0.1771205807   -1.0189376277
C       -1.6017225592    0.5333864684    1.2552844483
C        1.6969906408   -0.7554293050   -0.9015936784
C        0.6079180415   -0.3681433253   -3.1061495468
N        1.3156808132   -1.4211585767    0.3266328039
N        0.5089132516   -0.4028057992   -1.6543536197
O        0.0795036153   -1.4349632039    2.2307312654
O       -1.5082488294    0.6647272416   -1.6551047978
H       -3.8979865376    5.2962392713    2.1142354783
H       -3.9249389020    3.5255399400    3.8646945671
H       -2.8585618041    4.8338399106   -0.0982936403
H       -2.8908104282    1.3204784108    3.4095174078
H       -1.8558844379    2.6106538021   -0.5654947770
H       -1.6419450454   -0.0380305841    2.1846257864
H        2.3118339232    0.1393281316   -0.7036391360
H        2.2954538824   -1.4459599388   -1.5015933876
H        1.3384189368    0.3816470812   -3.4387864112
H       -0.3692477230   -0.1061226910   -3.5089687864
H        0.9106317413   -1.3504025676   -3.4848168977
H        1.9776273304   -2.0333293701    0.7883447021
28   
torsion grid (-45,)
C       -3.5954136768    4.4669870164    1.9226206745
C       -3.5050123109    3.5106681272    2.9391137374
C       -3.0461906767    4.1957219483    0.6618822733
C       -2.8635958250    2.2974655743    2.6936946644
C       -2.4082476012    2.9834908108    0.4109401998
C       -2.2890538750    2.0153863403    1.4334064325
C       -0.6164264933    0.2767704554    0.4624807889
C        0.2243640446   -0.8355994246    1.0315874537
C       -0.6535544522    0.4281228823   -1.0242563106
C       -1.5706491901    0.7515164512    1.3198169758
C        1.6129084193   -0.5179135252   -0.9778805882
C        0.5114086047    0.0069811871   -3.1494403614
N        1.2202974869   -1.2784930018    0.1923789896
N        0.4314359884   -0.0864657102   -1.6993636587
O        0.0645389182   -1.3269221884    2.1488120569
O       -1.6102374001    0.9264929205   -1.6259378070
H       -4.0950663313    5.4145483095    2.1078584420
H       -3.9320248381    3.7102417973    3.9182436231
H       -3.1282703392    4.9326701392   -0.1329145440
H       -2.7855030549    1.5595654109    3.4883910581
H       -2.0214063568    2.7614167406   -0.5750248263
H       -1.5467172145    0.2061294943    2.2640590990
H        2.2402581718    0.3483643878   -0.7069602270
H        2.2014268969   -1.1653821652   -1.6328836107
H        1.2762638026    0.7314863841   -3.4585801845
H       -0.4567897562    0.3365496777   -3.5233830309
H        0.7563099529   -0.9713040201   -3.5780288840
H        1.8995970142   -1.8946042822    0.6239646583
28   
torsion grid (-30,)
C       -3.6437351221    4.4420484065    1.8815045727
C       -3.4565234085    3.5397210365    2.9337154745
C       -3.1451834507    4.1361697099    0.6085872154
C       -2.7700815865    2.3480964995    2.7082738120
C       -2.4635231174    2.9431453235    0.3772899015
C       -2.2496756935    2.0277841378    1.4321900959
C       -0.6369357290    0.2197058003    0.4523289247
C        0.1824602719   -0.9175440430    1.0023649880
C       -0.6443923587    0.4254180166   -1.0275297399
C       -1.4954006066    0.7808754398    1.3524537283
C        1.5999522236   -0.5792644934   -0.9823315382
C        0.5623946312    0.0854500203   -3.1433615835
N        1.1656316086   -1.3695978327    0.1524097876
N        0.4429265775   -0.0846694035   -1.7027960842
O        0.0107875013   -1.4254221097    2.1100375152
O       -1.5780978362    0.9635999759   -1.6310963684
H       -4.1789466903    5.3732951878    2.0494633147
H       -3.8427497899    3.7646864720    3.9242297341
H       -3.3006127243    4.8301925915   -0.2134608023
H       -2.6182580526    1.6533493807    3.5307878850
H       -2.1167562210    2.6960191010   -0.6166450818
H       -1.4371881883    0.2729303111    2.3148235301
H        2.2500919869    0.2562424691   -0.6708937158
H        2.1773895911   -1.2203470676   -1.6534268086
H        1.3527951382    0.8054652007   -3.3930097956
H       -0.3874606732    0.4589968543   -3.5226344995
H        0.7946233849   -0.8742712322   -3.6183638010
H        1.8230612388   -2.0170433713    0.5720566722
28   
torsion grid (-15,)
C       -3.7133626387    4.4447554789    1.8930164166
C       -3.3911156334    3.6126101668    2.9704276464
C       -3.3049260271    4.0921465110    0.6009731935
C       -2.6629592941    2.4458975201    2.7486236340
C       -2.5790799214    2.9240081445    0.3732825333
C       -2.2323904325    2.0782611238    1.4507659048
C       -0.6758795020    0.2143018018    0.4516185070
C        0.1083826107   -0.9509796667    0.9937799541
C       -0.6348873806    0.4707836566   -1.0192346413
C       -1.4418733456    0.8525607010    1.3820501435
C        1.5683221137   -0.6290509561   -0.9571806003
C        0.6273712434    0.1806216035   -3.1089203225
N        1.0748124362   -1.4352801523    0.1414002378
N        0.4514989190   -0.0565755268   -1.6833769712
O       -0.0850880551   -1.4619953992    2.0960515494
O       -1.5256046983    1.0680009499   -1.6323890639
H       -4.2834700553    5.3557546675    2.0573876631
H       -3.7067205515    3.8721965126    3.9773597422
H       -3.5645055154    4.7299285298   -0.2401508670
H       -2.4109542844    1.8051809625    3.5902156905
H       -2.2969561140    2.6416359969   -0.6311290218
H       -1.3483734166    0.3697684921    2.3540938290
H        2.2504797820    0.1643071789   -0.6057086920
H        2.1288472096   -1.2744360139   -1.6385620982
H        1.4520483286    0.8811781655   -3.2950638187
H       -0.2940565000    0.6082870634   -3.5006157973
H        0.8412025363   -0.7628271996   -3.6234188341
H        1.7023090328   -2.1126015457    0.5602784916
28   
torsion grid (0,)
C       -3.7979059608    4.4394598619    1.9155784835
C       -3.3279098179    3.7038845153    3.0092755256
C       -3.4825155262    4.0249484845    0.6163361944
C       -2.5494751691    2.5693516190    2.7943860386
C       -2.7009751692    2.8914337554    0.3956645796
C       -2.2101936172    2.1404501869    1.4873278340
C       -0.6975308258    0.2311096778    0.4826881702
C        0.0394036754   -0.9610455654    1.0323351488
C       -0.5959035157    0.5240291137   -0.9781495949
C       -1.3785395635    0.9417308497    1.4277955190
C        1.5316400038   -0.7246944683   -0.9041486286
C        0.7145659449    0.2390156991   -3.0358260346
N        0.9710095373   -1.5077755775    0.1780653166
N        0.4676617142   -0.0617774783   -1.6324529468
O       -0.1730715269   -1.4506061186    2.1408043732
O       -1.4147188097    1.2097034071   -1.5988703516
H       -4.4104505741    5.3235119026    2.0744234991
H       -3.5709419739    4.0115896828    4.0227862100
H       -3.8558858384    4.5875545711   -0.2355864734
H       -2.1898666242    1.9992664878    3.6476531156
H       -2.4758507660    2.5652975008   -0.6096099630
H       -1.2536389307    0.4857216275    2.4090047012
H        2.2670650401    0.0123453878   -0.5363531511
H        2.0501499770   -1.4000490518   -1.5901567100
H        1.5724913213    0.9145650539   -3.1522922578
H       -0.1714695788    0.7215040755   -3.4445626369
H        0.9154972306   -0.6866536772   -3.5861368825
H        1.5582115493   -2.2157274285    0.6051721889
28   
torsion grid (15,)
C       -3.8779217242    4.3531484611    1.9004423494
C       -3.2701157517    3.7172492988    2.9890782403
C       -3.6451305560    3.8822643947    0.6031615678
C       -2.4394228446    2.6214893597    2.7704011619
C       -2.8053296891    2.7918020851    0.3787391592
C       -2.1802120194    2.1379675305    1.4640326778
C       -0.7076734878    0.2076595480    0.4350669095
C       -0.0180821986   -1.0145636854    0.9780097338
C       -0.5410976636    0.5520286173   -1.0081599678
C       -1.3050389675    0.9713545604    1.3974630730
C        1.4792100438   -0.8767647002   -0.9646286366
C        0.8057617773    0.2753193578   -3.0397647504
N        0.8600994287   -1.6250027674    0.1094042297
N        0.4775708449   -0.1036079878   -1.6716249012
O       -0.2359060957   -1.4842733989    2.0942248223
O       -1.2646579692    1.3512798541   -1.6109603698
H       -4.5335717533    5.2049833175    2.0631113057
H       -3.4494526960    4.0699751078    4.0011975859
H       -4.1239300529    4.3686421019   -0.2429275162
H       -1.9787664735    2.1226142945    3.6197535243
H       -2.6249317876    2.4316127117   -0.6238207003
H       -1.1471059617    0.5315069896    2.3814283676
H        2.2842683094   -0.2177531687   -0.5926129253
H        1.9271267558   -1.5844713845   -1.6683584251
H        1.7191359815    0.8844788372   -3.0745858000
H       -0.0202949858    0.8569864168   -3.4443110045
H        0.9564361084   -0.6231564408   -3.6478852497
H        1.4061418106   -2.3649351570    0.5375753984
28   
torsion grid (30,)
C       -3.9932443035    4.2269127001    1.8422084532
C       -3.3252555996    3.6773875341    2.9423811558
C       -3.7143267535    3.7523221992    0.5548494060
C       -2.3923983742    2.6622925646    2.7467098787
C       -2.7717360928    2.7457608694    0.3510384977
C       -2.0922755466    2.1753879981    1.4509629265
C       -0.5941195879    0.2612938087    0.4442300404
C        0.0431527698   -0.9814354200    1.0004981164
C       -0.3536810310    0.6293519112   -0.9810758872
C       -1.1377062124    1.0732788932    1.4022847616
C        1.4476012675   -1.0766987985   -1.0227893868
C        0.9190470607    0.2342918874   -3.0307331251
N        0.8069985386   -1.7051122434    0.1117224927
N        0.5306633412   -0.1696098901   -1.6843764535
O       -0.1429763080   -1.3882401204    2.1475463860
O       -0.9053940124    1.5820817344   -1.5411511232
H       -4.7279729543    5.0150120093    1.9873908706
H       -3.5374706525    4.0337347228    3.9467942646
H       -4.2350292631    4.1749278967   -0.3006002646
H       -1.8880821391    2.2259328847    3.6056224600
H       -2.5442059064    2.3961167255   -0.6458285020
H       -0.9592984574    0.6619358742    2.3953218133
H        2.3666338997   -0.5395074198   -0.7241831797
H        1.7367536719   -1.8553161212   -1.7357655838
H        1.8549861219    0.8099510787   -3.0242840301
H        0.1315448194    0.8581640032   -3.4485667628
H        1.0552492130   -0.6564891293   -3.6522219109
H        1.2935497223   -2.4844871440    0.5417213537
28   
torsion grid (45,)
C       -4.0812516026    4.1529736219    1.8529499171
C       -3.3649669126    3.6698950090    2.9537952212
C       -3.7785785140    3.6865079944    0.5671457084
C       -2.3591979229    2.7253061291    2.7631253888
C       -2.7658606039    2.7504300658    0.3693427957
C       -2.0423582370    2.2416211328    1.4715594047
C       -0.5770282719    0.3297688313    0.4469268842
C        0.0193786616   -0.9303526295    1.0030099873
C       -0.2813661264    0.7185874938   -0.9620424270
C       -1.0286588373    1.1963830812    1.4095535240
C        1.3461147910   -1.1582959388   -1.0649323867
C        0.9624333417    0.2706022470   -3.0168423783
N        0.6827190173   -1.7231790977    0.0902910189
N        0.5205142138   -0.1435816416   -1.6899843550
O       -0.1333642666   -1.3019033703    2.1669887561
O       -0.7196109418    1.7492941152   -1.4836467617
H       -4.8711035377    4.8862204955    1.9957726989
H       -3.5950965306    4.0236562821    3.9551569132
H       -4.3338382810    4.0620976885   -0.2884822570
H       -1.8160051596    2.3377183019    3.6216474717
H       -2.5134900472    2.4116449979   -0.6262266990
H       -0.8061664055    0.8057518066    2.4030327291
H        2.3301212661   -0.7309150438   -0.7962363622
H        1.5217789289   -1.9570447796   -1.7932742400
H        1.9560829010    0.7385655168   -2.9823898432
H        0.2518889029    0.9941294824   -3.4111731025
H        1.0056256323   -0.6037539023   -3.6741821991
H        1.1286163104   -2.5284985164    0.5172873856
28   
torsion grid (60,)
C       -4.1482926466    4.0659721861    1.8815540176
C       -3.4006806579    3.6222641142    2.9779862898
C       -3.8079800340    3.6448685282    0.5884854503
C       -2.3244825598    2.7595627584    2.7790920371
C       -2.7304401150    2.7873860673    0.3828021279
C       -1.9805139061    2.3127032574    1.4830557250
C       -0.5511878467    0.4046178748    0.4365777689
C        0.0140586805   -0.8595378824    1.0121277985
C       -0.1977733428    0.7804825091   -0.9624486469
C       -0.9062025119    1.3337573094    1.3879380606
C        1.2856894300   -1.2164343852   -1.0728170988
C        1.0435944095    0.2687793216   -3.0011756808
N        0.6000544673   -1.7143146661    0.1004244419
N        0.5466528145   -0.1322077765   -1.6896013696
O       -0.1154714725   -1.1892271725    2.1916255384
O       -0.5481489153    1.8504454795   -1.4726705826
H       -4.9906380034    4.7364172535    2.0325890540
H       -3.6589613911    3.9450862201    3.9829153969
H       -4.3849556213    3.9956809526   -0.2632579118
H       -1.7535059052    2.4026248550    3.6327053614
H       -2.4442178613    2.4828278448   -0.6162113503
H       -0.6315312186    0.9725514540    2.3807522068
H        2.3093532576   -0.8778013754   -0.8258528195
H        1.3755858667   -2.0315337597   -1.7993195133
H        2.0632296282    0.6738071300   -2.9396631338
H        0.3878716008    1.0388571056   -3.4022880659
H        1.0474473415   -0.5999046783   -3.6673472941
H        1.0064258371   -2.5349242774    0.5381147379
28   
torsion grid (75,)
C       -4.2088892924    3.9900671475    1.9544266139
C       -3.4092302585    3.5784374464    3.0263391987
C       -3.8756628999    3.6121598261    0.6450071799
C       -2.2838476876    2.7893787667    2.7921235202
C       -2.7550081233    2.8235601990    0.4044824352
C       -1.9552719880    2.3779496893    1.4824796001
C       -0.5755511033    0.4715815704    0.3902400316
C       -0.0364230254   -0.7843985547    1.0056246080
C       -0.1540983235    0.8131914071   -0.9990718065
C       -0.8344184128    1.4648467374    1.3182081891
C        1.2325241967   -1.2577914776   -1.0552568215
C        1.1467680955    0.2430314948   -2.9827428763
N        0.5039837457   -1.6941757095    0.1170883533
N        0.5751080732   -0.1350635587   -1.6949044400
O       -0.1633628638   -1.0663589426    2.1981200431
O       -0.4471656823    1.8935906610   -1.5246213655
H       -5.0869754527    4.6045050484    2.1365623560
H       -3.6637974660    3.8714016977    4.0412912592
H       -4.4923073948    3.9427467169   -0.1867570308
H       -1.6689282486    2.4582856019    3.6251933455
H       -2.4693330346    2.5461538505   -0.6045037265
H       -0.4920506082    1.1362727899    2.3026620454
H        2.2732698120   -0.9827038176   -0.8000070596
H        1.2781948538   -2.0869436371   -1.7704007209
H        2.1808063511    0.5992415488   -2.8757336222
H        0.5452942295    1.0429845884   -3.4096131829
H        1.1389698811   -0.6244793899   -3.6504901461
H        0.8729059137   -2.5178123499    0.5818895543
28   
torsion grid (90,)
C       -4.2283714301    3.8917971023    2.0528595450
C       -3.3384109155    3.5378330126    3.0731010744
C       -3.9505546729    3.5405981628    0.7221490561
C       -2.1745729555    2.8318328659    2.7704285962
C       -2.7933385383    2.8343333238    0.4149264307
C       -1.9011353623    2.4442270039    1.4419612277
C       -0.5181762749    0.5828849823    0.2702368949
C       -0.0141620529   -0.6633883854    0.9344602551
C        0.0133261795    0.8878465870   -1.0885087889
C       -0.7377239415    1.6154610463    1.1802481411
C        1.2204991668   -1.3042193900   -1.1105704735
C        1.3725646964    0.2273716003   -3.0043851517
N        0.4679907628   -1.6369402636    0.0802776200
N        0.7093608102   -0.1091122054   -1.7497476488
O       -0.1365673778   -0.8910039583    2.1399497063
O       -0.1689453760    1.9896151705   -1.6202120449
H       -5.1361971669    4.4399777468    2.2914808641
H       -3.5534185183    3.8110774714    4.1025737759
H       -4.6393438275    3.8263784466   -0.0685125795
H       -1.4880853451    2.5444470891    3.5625920179
H       -2.5528269175    2.5697735976   -0.6105268327
H       -0.3385922062    1.3023880961    2.1502157930
H        2.2921720572   -1.1642619048   -0.8738953095
H        1.1492019662   -2.1380085999   -1.8200148953
H        2.4269937963    0.4918682383   -2.8440432257
H        0.8624076760    1.0788536985   -3.4501395314
H        1.3233095609   -0.6316819640   -3.6815912349
H        0.7882432340   -2.4608891352    0.5794068190
28   
torsion grid (105,)
C       -4.2176321509    3.1541993970    2.5672307341
C       -3.1072055217    3.0663318705    3.4146341858
C       -4.1228911671    2.7199255514    1.2350266760
C       -1.9050257400    2.5463673527    2.9383535076
C       -2.9262731133    2.2014647020    0.7560061031
C       -1.8000311929    2.0868054765    1.6072391710
C       -0.2945361166    0.4932013959    0.2095164216
C        0.4169989685   -0.6875951842    0.8664329165
C        0.3055235664    0.8056357719   -1.1339466510
C       -0.5629859566    1.4765276481    1.1682985701
C        0.2760189267   -1.5949831774   -1.3867733818
C        1.5251382786   -0.1729612020   -3.0337034769
N        0.7627875455   -1.6836354137   -0.0190723420
N        0.5813842105   -0.2897803452   -1.9294804814
O        0.6257805980   -0.7976667966    2.0756820511
O        0.5872343430    1.9562703863   -1.4750982639
H       -5.1566810125    3.5525103338    2.9425426930
H       -3.1821620260    3.4000718481    4.4459097514
H       -4.9877937216    2.7882119082    0.5805119786
H       -1.0440663459    2.4668848020    3.5969416291
H       -2.8465127590    1.8523360340   -0.2695929858
H        0.0166307626    1.2461329676    2.0693993477
H        0.7719562243   -2.3572784525   -1.9899016808
H       -0.8082782815   -1.7744434427   -1.4338343895
H        2.5020657141   -0.5980351075   -2.7673784873
H        1.6469149565    0.8848284554   -3.2638745100
H        1.1395238910   -0.6903577571   -3.9185304990
H        0.9597216852   -2.5935773090    0.3808757202
