32
-1 1 C14H15O3
C                    -0.817425112131    -2.734212789035     1.576777920281
C                    -0.545555070712    -1.447195529107     1.116930978286
C                     1.107579575582    -2.356313224447    -0.393686376019
C                    -0.138827688555    -3.863162196708     1.078600402747
C                     0.831815483114    -3.646454270367     0.075069618866
C                     0.422787661787    -1.251102283103     0.126594736019
C                     0.525141250169    -6.195126559497     1.333577874619
C                    -0.396729356651    -5.238366251407     1.575592018277
C                    -2.224953369357    -6.954317651091     2.191401449243
C                     1.523916688881    -4.850326979408    -0.522500798766
C                     1.781229081111    -5.919135984475     0.543150918100
C                    -1.320021836178    -5.292387576838     3.911882055506
C                     1.598257773606     0.280582801315    -1.285533976206
C                    -1.634271595442    -5.508543804186     2.418027140781
O                    -3.303600196821    -6.995906656472     1.543708874371
O                    -1.556168664011    -7.905310483222     2.693439785496
O                     0.633709971973     0.057489933878    -0.272367023489
H                    -1.572592054460    -2.863461496935     2.344306971428
H                    -1.073898446267    -0.583979083071     1.513285248838
H                     1.857936582821    -2.236203269390    -1.169661550541
H                     0.350501721428    -7.185163462092     1.747984628831
H                     0.862820552690    -5.281847869665    -1.289164242998
H                     2.452572167767    -4.552090328918    -1.024660591773
H                     2.586732428656    -5.583395079244     1.218515629847
H                     2.141306655757    -6.839158958481     0.067379033546
H                    -0.639472791173    -6.080848772314     4.244828079549
H                    -2.237337931165    -5.363916915497     4.509640071751
H                    -0.855326572579    -4.316005705866     4.108054815678
H                     1.612915987634     1.359252663863    -1.459110335013
H                     1.331878485508    -0.231152019393    -2.220561595392
H                     2.599484313532    -0.047528871401    -0.973674991954
H                    -2.423265333695    -4.816711139978     2.108410698420
