
  -OEChem-05262117483D

 56 59  0     0  0  0  0  0  0999 V2000
   -0.1654   -5.2247    7.5809 C   0  0  0  0  0  0  0  0  0  0  0  0
    4.4165   -7.7929   -0.4362 C   0  0  0  0  0  0  0  0  0  0  0  0
    1.2332   -5.2569    7.6433 C   0  0  0  0  0  0  0  0  0  0  0  0
   -0.7964   -5.0950    6.3409 C   0  0  0  0  0  0  0  0  0  0  0  0
    3.4000   -8.6427    0.0166 C   0  0  0  0  0  0  0  0  0  0  0  0
    4.4216   -6.4529   -0.0398 C   0  0  0  0  0  0  0  0  0  0  0  0
    0.4429   -1.4588    2.1327 C   0  0  0  0  0  0  0  0  0  0  0  0
    0.1372   -2.6953    0.1074 C   0  0  0  0  0  0  0  0  0  0  0  0
    1.9879   -5.1597    6.4722 C   0  0  0  0  0  0  0  0  0  0  0  0
   -0.0369   -4.9959    5.1695 C   0  0  0  0  0  0  0  0  0  0  0  0
    2.3994   -8.1504    0.8573 C   0  0  0  0  0  0  0  0  0  0  0  0
    3.4167   -5.9626    0.8019 C   0  0  0  0  0  0  0  0  0  0  0  0
    0.9105   -2.6006    2.7762 C   0  0  0  0  0  0  0  0  0  0  0  0
    0.6168   -3.8487    0.7295 C   0  0  0  0  0  0  0  0  0  0  0  0
    0.0420   -1.4718    0.7854 C   0  0  0  0  0  0  0  0  0  0  0  0
    1.3605   -5.0262    5.2249 C   0  0  0  0  0  0  0  0  0  0  0  0
    2.3966   -6.8057    1.2556 C   0  0  0  0  0  0  0  0  0  0  0  0
    1.0130   -3.8309    2.0846 C   0  0  0  0  0  0  0  0  0  0  0  0
    1.7173    0.4223   -1.1569 C   0  0  0  0  0  0  0  0  0  0  0  0
   -2.3009    0.7576   -0.5474 C   0  0  0  0  0  0  0  0  0  0  0  0
   -1.6479    0.5204    0.8403 C   0  0  0  0  0  0  0  0  0  0  0  0
   -1.3565   -0.3216   -1.1424 C   0  0  0  0  0  0  0  0  0  0  0  0
   -0.4532   -0.2011    0.1271 C   0  0  0  0  0  0  0  0  0  0  0  0
    2.2143   -4.9074    3.9683 C   0  0  0  0  0  0  0  0  0  0  0  0
    1.2779   -6.2965    2.1558 C   0  0  0  0  0  0  0  0  0  0  0  0
    0.6934    0.8175   -0.0996 C   0  0  0  0  0  0  0  0  0  0  0  0
    1.4853   -4.9736    2.7156 N   0  0  0  0  0  0  0  0  0  0  0  0
    1.9357    1.0792   -2.1520 O   0  0  0  0  0  0  0  0  0  0  0  0
    2.4193   -0.7208   -0.9280 O   0  0  0  0  0  0  0  0  0  0  0  0
   -0.7551   -5.3018    8.4907 H   0  0  0  0  0  0  0  0  0  0  0  0
    5.1966   -8.1736   -1.0904 H   0  0  0  0  0  0  0  0  0  0  0  0
    1.7335   -5.3611    8.6028 H   0  0  0  0  0  0  0  0  0  0  0  0
   -1.8817   -5.0689    6.2827 H   0  0  0  0  0  0  0  0  0  0  0  0
    3.3898   -9.6878   -0.2829 H   0  0  0  0  0  0  0  0  0  0  0  0
    5.2054   -5.7849   -0.3878 H   0  0  0  0  0  0  0  0  0  0  0  0
    0.3679   -0.5357    2.7042 H   0  0  0  0  0  0  0  0  0  0  0  0
   -0.1344   -2.7519   -0.9430 H   0  0  0  0  0  0  0  0  0  0  0  0
    3.0749   -5.1902    6.5274 H   0  0  0  0  0  0  0  0  0  0  0  0
   -0.5310   -4.8913    4.2081 H   0  0  0  0  0  0  0  0  0  0  0  0
    1.6141   -8.8178    1.2092 H   0  0  0  0  0  0  0  0  0  0  0  0
    3.4236   -4.9199    1.1050 H   0  0  0  0  0  0  0  0  0  0  0  0
    1.1624   -2.5431    3.8294 H   0  0  0  0  0  0  0  0  0  0  0  0
    0.7172   -4.7544    0.1419 H   0  0  0  0  0  0  0  0  0  0  0  0
   -2.0970    1.7557   -0.9437 H   0  0  0  0  0  0  0  0  0  0  0  0
   -3.3742    0.5673   -0.6237 H   0  0  0  0  0  0  0  0  0  0  0  0
   -1.4044    1.3987    1.4469 H   0  0  0  0  0  0  0  0  0  0  0  0
   -2.2214   -0.1831    1.4499 H   0  0  0  0  0  0  0  0  0  0  0  0
   -1.8492   -1.2956   -1.1950 H   0  0  0  0  0  0  0  0  0  0  0  0
   -0.8863   -0.1096   -2.1067 H   0  0  0  0  0  0  0  0  0  0  0  0
    2.7891   -3.9754    4.0004 H   0  0  0  0  0  0  0  0  0  0  0  0
    2.9599   -5.7109    3.9653 H   0  0  0  0  0  0  0  0  0  0  0  0
    0.3298   -6.3069    1.6071 H   0  0  0  0  0  0  0  0  0  0  0  0
    1.1423   -6.9962    2.9887 H   0  0  0  0  0  0  0  0  0  0  0  0
    0.2843    1.7760   -0.4241 H   0  0  0  0  0  0  0  0  0  0  0  0
    1.2152    0.9827    0.8511 H   0  0  0  0  0  0  0  0  0  0  0  0
    2.0451   -1.1871   -0.1552 H   0  0  0  0  0  0  0  0  0  0  0  0
  1  3  1  0  0  0  0
  1  4  2  0  0  0  0
  1 30  1  0  0  0  0
  2  5  1  0  0  0  0
  2  6  2  0  0  0  0
  2 31  1  0  0  0  0
  3  9  2  0  0  0  0
  3 32  1  0  0  0  0
  4 10  1  0  0  0  0
  4 33  1  0  0  0  0
  5 11  2  0  0  0  0
  5 34  1  0  0  0  0
  6 12  1  0  0  0  0
  6 35  1  0  0  0  0
  7 13  2  0  0  0  0
  7 15  1  0  0  0  0
  7 36  1  0  0  0  0
  8 14  1  0  0  0  0
  8 15  2  0  0  0  0
  8 37  1  0  0  0  0
  9 16  1  0  0  0  0
  9 38  1  0  0  0  0
 10 16  2  0  0  0  0
 10 39  1  0  0  0  0
 11 17  1  0  0  0  0
 11 40  1  0  0  0  0
 12 17  2  0  0  0  0
 12 41  1  0  0  0  0
 13 18  1  0  0  0  0
 13 42  1  0  0  0  0
 14 18  2  0  0  0  0
 14 43  1  0  0  0  0
 15 23  1  0  0  0  0
 16 24  1  0  0  0  0
 17 25  1  0  0  0  0
 18 27  1  0  0  0  0
 19 26  1  0  0  0  0
 19 28  2  0  0  0  0
 19 29  1  0  0  0  0
 20 21  1  0  0  0  0
 20 22  1  0  0  0  0
 20 44  1  0  0  0  0
 20 45  1  0  0  0  0
 21 23  1  0  0  0  0
 21 46  1  0  0  0  0
 21 47  1  0  0  0  0
 22 23  1  0  0  0  0
 22 48  1  0  0  0  0
 22 49  1  0  0  0  0
 23 26  1  0  0  0  0
 24 27  1  0  0  0  0
 24 50  1  0  0  0  0
 24 51  1  0  0  0  0
 25 27  1  0  0  0  0
 25 52  1  0  0  0  0
 25 53  1  0  0  0  0
 26 54  1  0  0  0  0
 26 55  1  0  0  0  0
 29 56  1  0  0  0  0
M  END
$$$$
