
  -OEChem-05262117483D

 42 44  0     0  0  0  0  0  0999 V2000
   -5.2944   -0.3494   -0.4083 C   0  0  0  0  0  0  0  0  0  0  0  0
   -5.7268   -0.4827   -2.7649 C   0  0  0  0  0  0  0  0  0  0  0  0
   -8.6475   -0.7094   -1.9546 C   0  0  0  0  0  0  0  0  0  0  0  0
   -8.0721    0.8673   -0.2218 C   0  0  0  0  0  0  0  0  0  0  0  0
   -3.9385   -0.5861   -0.6442 C   0  0  0  0  0  0  0  0  0  0  0  0
   -4.3725   -0.7164   -2.9938 C   0  0  0  0  0  0  0  0  0  0  0  0
  -10.0058   -0.4842   -1.7231 C   0  0  0  0  0  0  0  0  0  0  0  0
   -9.4254    1.1061    0.0251 C   0  0  0  0  0  0  0  0  0  0  0  0
   -6.2184   -0.2915   -1.4623 C   0  0  0  0  0  0  0  0  0  0  0  0
   -7.6579   -0.0416   -1.2115 C   0  0  0  0  0  0  0  0  0  0  0  0
   -3.4414   -0.7711   -1.9416 C   0  0  0  0  0  0  0  0  0  0  0  0
  -10.3705    0.4226   -0.7332 C   0  0  0  0  0  0  0  0  0  0  0  0
    0.2153   -3.7804   -2.2352 C   0  0  0  0  0  0  0  0  0  0  0  0
   -0.8786    0.7667   -1.0315 C   0  0  0  0  0  0  0  0  0  0  0  0
   -1.1929    1.2297   -2.4846 C   0  0  0  0  0  0  0  0  0  0  0  0
   -1.0265   -0.7708   -1.0531 C   0  0  0  0  0  0  0  0  0  0  0  0
   -1.4118   -0.0704   -3.2846 C   0  0  0  0  0  0  0  0  0  0  0  0
   -1.9672   -1.0706   -2.2393 C   0  0  0  0  0  0  0  0  0  0  0  0
   -1.8949   -2.5509   -2.6941 C   0  0  0  0  0  0  0  0  0  0  0  0
   -0.5625   -3.0192   -3.0586 N   0  0  0  0  0  0  0  0  0  0  0  0
   -0.0771   -4.1125   -1.0935 O   0  0  0  0  0  0  0  0  0  0  0  0
  -11.6901    0.6473   -0.4995 F   0  0  0  0  0  0  0  0  0  0  0  0
   -5.6410   -0.2376    0.6158 H   0  0  0  0  0  0  0  0  0  0  0  0
   -6.4064   -0.4192   -3.6108 H   0  0  0  0  0  0  0  0  0  0  0  0
   -8.3543   -1.4373   -2.7056 H   0  0  0  0  0  0  0  0  0  0  0  0
   -7.3274    1.4163    0.3472 H   0  0  0  0  0  0  0  0  0  0  0  0
   -3.2704   -0.6335    0.2085 H   0  0  0  0  0  0  0  0  0  0  0  0
   -4.0384   -0.8467   -4.0199 H   0  0  0  0  0  0  0  0  0  0  0  0
  -10.7734   -1.0059   -2.2865 H   0  0  0  0  0  0  0  0  0  0  0  0
   -9.7497    1.8140    0.7818 H   0  0  0  0  0  0  0  0  0  0  0  0
    1.1684   -4.0739   -2.7166 H   0  0  0  0  0  0  0  0  0  0  0  0
    0.1252    1.0624   -0.7125 H   0  0  0  0  0  0  0  0  0  0  0  0
   -1.5823    1.2202   -0.3277 H   0  0  0  0  0  0  0  0  0  0  0  0
   -2.1048    1.8339   -2.5023 H   0  0  0  0  0  0  0  0  0  0  0  0
   -0.3932    1.8409   -2.9130 H   0  0  0  0  0  0  0  0  0  0  0  0
   -0.0587   -1.2303   -1.2707 H   0  0  0  0  0  0  0  0  0  0  0  0
   -1.3555   -1.2018   -0.1057 H   0  0  0  0  0  0  0  0  0  0  0  0
   -2.0607    0.0700   -4.1531 H   0  0  0  0  0  0  0  0  0  0  0  0
   -0.4482   -0.4456   -3.6505 H   0  0  0  0  0  0  0  0  0  0  0  0
   -2.5589   -2.7067   -3.5500 H   0  0  0  0  0  0  0  0  0  0  0  0
   -2.2471   -3.1917   -1.8830 H   0  0  0  0  0  0  0  0  0  0  0  0
   -0.2109   -2.8280   -3.9873 H   0  0  0  0  0  0  0  0  0  0  0  0
  1  5  1  0  0  0  0
  1  9  2  0  0  0  0
  1 23  1  0  0  0  0
  2  6  2  0  0  0  0
  2  9  1  0  0  0  0
  2 24  1  0  0  0  0
  3  7  2  0  0  0  0
  3 10  1  0  0  0  0
  3 25  1  0  0  0  0
  4  8  1  0  0  0  0
  4 10  2  0  0  0  0
  4 26  1  0  0  0  0
  5 11  2  0  0  0  0
  5 27  1  0  0  0  0
  6 11  1  0  0  0  0
  6 28  1  0  0  0  0
  7 12  1  0  0  0  0
  7 29  1  0  0  0  0
  8 12  2  0  0  0  0
  8 30  1  0  0  0  0
  9 10  1  0  0  0  0
 11 18  1  0  0  0  0
 12 22  1  0  0  0  0
 13 20  1  0  0  0  0
 13 21  2  0  0  0  0
 13 31  1  0  0  0  0
 14 15  1  0  0  0  0
 14 16  1  0  0  0  0
 14 32  1  0  0  0  0
 14 33  1  0  0  0  0
 15 17  1  0  0  0  0
 15 34  1  0  0  0  0
 15 35  1  0  0  0  0
 16 18  1  0  0  0  0
 16 36  1  0  0  0  0
 16 37  1  0  0  0  0
 17 18  1  0  0  0  0
 17 38  1  0  0  0  0
 17 39  1  0  0  0  0
 18 19  1  0  0  0  0
 19 20  1  0  0  0  0
 19 40  1  0  0  0  0
 19 41  1  0  0  0  0
 20 42  1  0  0  0  0
M  END
$$$$
