32
-1 1 C14H15O3
C                    -1.074668811867    -2.866373511499     1.565250038168
C                    -0.976724883640    -1.518263250610     1.197270381946
C                     0.755827159692    -2.098442036959    -0.387962456635
C                    -0.273621866700    -3.849119055936     0.965042645827
C                     0.659817633467    -3.438328365400    -0.020735353908
C                    -0.061962539663    -1.131983074786     0.214202076453
C                     0.707846238658    -6.075380752446     1.057725144968
C                    -0.347875684812    -5.283003560943     1.348875170672
C                    -1.646247002722    -5.361179317741     3.582026410499
C                     1.530508707604    -4.488048149276    -0.673921079274
C                     1.935013757146    -5.557836312103     0.345621993156
C                    -2.862544385203    -5.630463227798     1.292070336070
C                    -0.671439777916     1.171828621178     0.391320594047
C                    -1.554248052367    -5.847594718162     2.069392081380
O                    -2.486929527347    -4.447377726740     3.828465396406
O                    -0.870345235663    -5.961098297919     4.366074908342
O                     0.118937414778     0.169119808259    -0.224848444585
H                    -1.765741069591    -3.156947845315     2.355354339466
H                    -1.611273945457    -0.793746236448     1.697124634514
H                     1.471572072025    -1.779038589089    -1.142640820228
H                     0.699551137168    -7.112067399049     1.386529182564
H                     0.956241730300    -4.975491222424    -1.476740021956
H                     2.408603457762    -4.023444496836    -1.138162864462
H                     2.644741056744    -5.127127608321     1.070918337180
H                     2.461960517624    -6.377228889229    -0.159150644079
H                    -3.127394705711    -4.573665285972     1.226511423415
H                    -3.686211057866    -6.133879467424     1.809709938350
H                    -2.788522960555    -6.035976269967     0.272759556560
H                    -0.381631867330     2.116715039345    -0.075148053513
H                    -0.483873555899     1.229098253292     1.471910353849
H                    -1.744098885864     1.001748832541     0.226687139596
H                    -1.379581572630    -6.925698133548     2.142833961730
