
  -OEChem-05262117483D

 56 60  0     0  0  0  0  0  0999 V2000
   -1.1490    1.8394    1.2206 C   0  0  0  0  0  0  0  0  0  0  0  0
   -1.0947    0.7193    0.3634 C   0  0  0  0  0  0  0  0  0  0  0  0
   -7.5561   -2.6453    0.0271 C   0  0  0  0  0  0  0  0  0  0  0  0
   -2.0445    1.8816    2.2896 C   0  0  0  0  0  0  0  0  0  0  0  0
   -4.6039    0.9207    5.8791 C   0  0  0  0  0  0  0  0  0  0  0  0
   -4.4621    2.7825    4.3734 C   0  0  0  0  0  0  0  0  0  0  0  0
   -6.4696   -2.8065    0.8962 C   0  0  0  0  0  0  0  0  0  0  0  0
   -1.9278   -0.3820    0.5730 C   0  0  0  0  0  0  0  0  0  0  0  0
   -7.3859   -2.0896   -1.2400 C   0  0  0  0  0  0  0  0  0  0  0  0
   -4.9753    1.7786    6.9177 C   0  0  0  0  0  0  0  0  0  0  0  0
   -4.8279    3.6528    5.3992 C   0  0  0  0  0  0  0  0  0  0  0  0
   -5.0151   -1.8439   -0.7898 C   0  0  0  0  0  0  0  0  0  0  0  0
   -2.9147    0.7967    2.5111 C   0  0  0  0  0  0  0  0  0  0  0  0
   -4.3366    1.3956    4.5862 C   0  0  0  0  0  0  0  0  0  0  0  0
   -3.9302    0.4987    3.4932 C   0  0  0  0  0  0  0  0  0  0  0  0
   -5.1937   -2.4098    0.4843 C   0  0  0  0  0  0  0  0  0  0  0  0
   -2.8224   -0.3401    1.6507 C   0  0  0  0  0  0  0  0  0  0  0  0
   -5.0864    3.1548    6.6813 C   0  0  0  0  0  0  0  0  0  0  0  0
   -6.1076   -1.6791   -1.6462 C   0  0  0  0  0  0  0  0  0  0  0  0
   -4.3992   -0.7856    3.2232 C   0  0  0  0  0  0  0  0  0  0  0  0
   -5.4819   -1.6120    3.9397 C   0  0  0  0  0  0  0  0  0  0  0  0
   -7.1386    4.5481   10.9382 C   0  0  0  0  0  0  0  0  0  0  0  0
   -7.5920    5.3040    9.7048 C   0  0  0  0  0  0  0  0  0  0  0  0
   -6.1803    4.7752    9.7882 C   0  0  0  0  0  0  0  0  0  0  0  0
   -4.7672   -0.5854   -3.2961 C   0  0  0  0  0  0  0  0  0  0  0  0
   -4.0126   -2.5418    1.4278 C   0  0  0  0  0  0  0  0  0  0  0  0
   -5.7762    3.6036    8.9337 C   0  0  0  0  0  0  0  0  0  0  0  0
   -3.7097   -1.2882    2.1173 N   0  0  0  0  0  0  0  0  0  0  0  0
   -5.2572   -2.8582    3.9990 O   0  5  0  0  0  0  0  0  0  0  0  0
   -6.4547   -0.9595    4.3813 O   0  0  0  0  0  0  0  0  0  0  0  0
   -6.0236   -1.1232   -2.9069 O   0  0  0  0  0  0  0  0  0  0  0  0
   -5.4491    4.0886    7.6363 O   0  0  0  0  0  0  0  0  0  0  0  0
   -0.4790    2.6788    1.0460 H   0  0  0  0  0  0  0  0  0  0  0  0
   -0.3887    0.7067   -0.4643 H   0  0  0  0  0  0  0  0  0  0  0  0
   -8.5510   -2.9438    0.3491 H   0  0  0  0  0  0  0  0  0  0  0  0
   -2.0614    2.7426    2.9522 H   0  0  0  0  0  0  0  0  0  0  0  0
   -4.5379   -0.1434    6.0749 H   0  0  0  0  0  0  0  0  0  0  0  0
   -4.3062    3.1827    3.3757 H   0  0  0  0  0  0  0  0  0  0  0  0
   -6.6032   -3.2022    1.8990 H   0  0  0  0  0  0  0  0  0  0  0  0
   -1.8625   -1.2498   -0.0782 H   0  0  0  0  0  0  0  0  0  0  0  0
   -8.2225   -1.9503   -1.9196 H   0  0  0  0  0  0  0  0  0  0  0  0
   -5.1808    1.3558    7.8953 H   0  0  0  0  0  0  0  0  0  0  0  0
   -4.9352    4.7196    5.2195 H   0  0  0  0  0  0  0  0  0  0  0  0
   -4.0240   -1.5177   -1.0832 H   0  0  0  0  0  0  0  0  0  0  0  0
   -6.9779    5.1062   11.8565 H   0  0  0  0  0  0  0  0  0  0  0  0
   -7.5238    3.5426   11.0871 H   0  0  0  0  0  0  0  0  0  0  0  0
   -8.2704    4.8023    9.0205 H   0  0  0  0  0  0  0  0  0  0  0  0
   -7.7436    6.3766    9.7853 H   0  0  0  0  0  0  0  0  0  0  0  0
   -5.3952    5.5112    9.9454 H   0  0  0  0  0  0  0  0  0  0  0  0
   -4.9230   -0.1373   -4.2800 H   0  0  0  0  0  0  0  0  0  0  0  0
   -3.9992   -1.3668   -3.3744 H   0  0  0  0  0  0  0  0  0  0  0  0
   -4.4229    0.1845   -2.5944 H   0  0  0  0  0  0  0  0  0  0  0  0
   -4.2267   -3.2798    2.2005 H   0  0  0  0  0  0  0  0  0  0  0  0
   -3.1144   -2.8381    0.8782 H   0  0  0  0  0  0  0  0  0  0  0  0
   -6.6010    2.8786    8.8719 H   0  0  0  0  0  0  0  0  0  0  0  0
   -4.9099    3.0887    9.3743 H   0  0  0  0  0  0  0  0  0  0  0  0
  1  2  1  0  0  0  0
  1  4  2  0  0  0  0
  1 33  1  0  0  0  0
  2  8  2  0  0  0  0
  2 34  1  0  0  0  0
  3  7  2  0  0  0  0
  3  9  1  0  0  0  0
  3 35  1  0  0  0  0
  4 13  1  0  0  0  0
  4 36  1  0  0  0  0
  5 10  2  0  0  0  0
  5 14  1  0  0  0  0
  5 37  1  0  0  0  0
  6 11  1  0  0  0  0
  6 14  2  0  0  0  0
  6 38  1  0  0  0  0
  7 16  1  0  0  0  0
  7 39  1  0  0  0  0
  8 17  1  0  0  0  0
  8 40  1  0  0  0  0
  9 19  2  0  0  0  0
  9 41  1  0  0  0  0
 10 18  1  0  0  0  0
 10 42  1  0  0  0  0
 11 18  2  0  0  0  0
 11 43  1  0  0  0  0
 12 16  2  0  0  0  0
 12 19  1  0  0  0  0
 12 44  1  0  0  0  0
 13 15  1  0  0  0  0
 13 17  2  0  0  0  0
 14 15  1  0  0  0  0
 15 20  2  0  0  0  0
 16 26  1  0  0  0  0
 17 28  1  0  0  0  0
 18 32  1  0  0  0  0
 19 31  1  0  0  0  0
 20 21  1  0  0  0  0
 20 28  1  0  0  0  0
 21 29  1  0  0  0  0
 21 30  2  0  0  0  0
 22 23  1  0  0  0  0
 22 24  1  0  0  0  0
 22 45  1  0  0  0  0
 22 46  1  0  0  0  0
 23 24  1  0  0  0  0
 23 47  1  0  0  0  0
 23 48  1  0  0  0  0
 24 27  1  0  0  0  0
 24 49  1  0  0  0  0
 25 31  1  0  0  0  0
 25 50  1  0  0  0  0
 25 51  1  0  0  0  0
 25 52  1  0  0  0  0
 26 28  1  0  0  0  0
 26 53  1  0  0  0  0
 26 54  1  0  0  0  0
 27 32  1  0  0  0  0
 27 55  1  0  0  0  0
 27 56  1  0  0  0  0
M  CHG  1  29  -1
M  END
$$$$
