
  -OEChem-05262117483D

 50 54  0     1  0  0  0  0  0999 V2000
   -5.7952   -2.5454    5.7029 C   0  0  0  0  0  0  0  0  0  0  0  0
   -6.2352   -3.2151    6.8404 C   0  0  0  0  0  0  0  0  0  0  0  0
   -4.1050   -2.8177    3.6959 C   0  0  0  0  0  0  0  0  0  0  0  0
   -4.7398   -5.0946    6.4345 C   0  0  0  0  0  0  0  0  0  0  0  0
   -4.8082   -3.1547    4.9085 C   0  0  0  0  0  0  0  0  0  0  0  0
   -5.7242   -4.4795    7.2142 C   0  0  0  0  0  0  0  0  0  0  0  0
   -4.3097   -4.4129    5.3029 C   0  0  0  0  0  0  0  0  0  0  0  0
   -3.2568   -3.8526    3.4407 C   0  0  0  0  0  0  0  0  0  0  0  0
   -2.2870   -4.0435    2.3377 C   0  0  0  0  0  0  0  0  0  0  0  0
   -5.4278   -4.7621    9.7361 C   0  0  0  0  0  0  0  0  0  0  0  0
   -5.8164   -4.5005   12.2725 C   0  0  0  0  0  0  0  0  0  0  0  0
   -4.9214   -5.6831   12.0938 C   0  0  0  0  0  0  0  0  0  0  0  0
    1.7512   -5.2002    0.5361 C   0  0  0  0  0  0  0  0  0  0  0  0
    1.3661   -5.3126    3.0091 C   0  0  0  0  0  0  0  0  0  0  0  0
    1.9486   -6.7479    0.5565 C   0  0  0  0  0  0  0  0  0  0  0  0
    1.5424   -6.8597    2.9233 C   0  0  0  0  0  0  0  0  0  0  0  0
   -0.2793   -7.0743    1.3778 C   0  0  0  0  0  0  0  0  0  0  0  0
   -5.9420   -5.3495   11.0074 C   0  0  0  0  0  0  0  0  0  0  0  0
    0.7844   -4.8227    1.6724 C   0  0  0  0  0  0  0  0  0  0  0  0
   -0.5569   -5.5392    1.3994 C   0  0  2  0  0  0  0  0  0  0  0  0
   -6.2139   -5.1402    8.4757 C   0  0  0  0  0  0  0  0  0  0  0  0
    1.1356   -7.3852    1.6079 N   0  0  0  0  0  0  0  0  0  0  0  0
   -1.5840   -5.2106    2.3826 N   0  0  0  0  0  0  0  0  0  0  0  0
   -2.1556   -3.1915    1.4543 O   0  0  0  0  0  0  0  0  0  0  0  0
   -4.4457   -4.0354    9.7077 O   0  0  0  0  0  0  0  0  0  0  0  0
   -3.3596   -4.8466    4.4092 O   0  0  0  0  0  0  0  0  0  0  0  0
   -6.2056   -1.5753    5.4367 H   0  0  0  0  0  0  0  0  0  0  0  0
   -6.9939   -2.7542    7.4684 H   0  0  0  0  0  0  0  0  0  0  0  0
   -4.1987   -1.9322    3.0822 H   0  0  0  0  0  0  0  0  0  0  0  0
   -4.3221   -6.0609    6.7031 H   0  0  0  0  0  0  0  0  0  0  0  0
   -6.6330   -4.5626   12.9851 H   0  0  0  0  0  0  0  0  0  0  0  0
   -5.3796   -3.5169   12.1334 H   0  0  0  0  0  0  0  0  0  0  0  0
   -3.8850   -5.4912   11.8354 H   0  0  0  0  0  0  0  0  0  0  0  0
   -5.1087   -6.5763   12.6817 H   0  0  0  0  0  0  0  0  0  0  0  0
    2.7049   -4.6801    0.6770 H   0  0  0  0  0  0  0  0  0  0  0  0
    1.3455   -4.8667   -0.4257 H   0  0  0  0  0  0  0  0  0  0  0  0
    0.7046   -5.0319    3.8353 H   0  0  0  0  0  0  0  0  0  0  0  0
    2.3255   -4.8171    3.1929 H   0  0  0  0  0  0  0  0  0  0  0  0
    1.6678   -7.1952   -0.4026 H   0  0  0  0  0  0  0  0  0  0  0  0
    2.9951   -7.0115    0.7393 H   0  0  0  0  0  0  0  0  0  0  0  0
    2.5843   -7.1500    3.0916 H   0  0  0  0  0  0  0  0  0  0  0  0
    0.9432   -7.3698    3.6857 H   0  0  0  0  0  0  0  0  0  0  0  0
   -0.8697   -7.5841    2.1486 H   0  0  0  0  0  0  0  0  0  0  0  0
   -0.5757   -7.5043    0.4164 H   0  0  0  0  0  0  0  0  0  0  0  0
   -6.8127   -5.9941   10.9281 H   0  0  0  0  0  0  0  0  0  0  0  0
    0.6130   -3.7438    1.6916 H   0  0  0  0  0  0  0  0  0  0  0  0
   -0.9352   -5.1992    0.4317 H   0  0  0  0  0  0  0  0  0  0  0  0
   -7.2680   -4.8991    8.6625 H   0  0  0  0  0  0  0  0  0  0  0  0
   -6.1737   -6.2342    8.3921 H   0  0  0  0  0  0  0  0  0  0  0  0
   -1.7363   -5.8270    3.1711 H   0  0  0  0  0  0  0  0  0  0  0  0
  1  2  1  0  0  0  0
  1  5  2  0  0  0  0
  1 27  1  0  0  0  0
  2  6  2  0  0  0  0
  2 28  1  0  0  0  0
  3  5  1  0  0  0  0
  3  8  2  0  0  0  0
  3 29  1  0  0  0  0
  4  6  1  0  0  0  0
  4  7  2  0  0  0  0
  4 30  1  0  0  0  0
  5  7  1  0  0  0  0
  6 21  1  0  0  0  0
  7 26  1  0  0  0  0
  8  9  1  0  0  0  0
  8 26  1  0  0  0  0
  9 23  1  0  0  0  0
  9 24  2  0  0  0  0
 10 18  1  0  0  0  0
 10 21  1  0  0  0  0
 10 25  2  0  0  0  0
 11 12  1  0  0  0  0
 11 18  1  0  0  0  0
 11 31  1  0  0  0  0
 11 32  1  0  0  0  0
 12 18  1  0  0  0  0
 12 33  1  0  0  0  0
 12 34  1  0  0  0  0
 13 15  1  0  0  0  0
 13 19  1  0  0  0  0
 13 35  1  0  0  0  0
 13 36  1  0  0  0  0
 14 16  1  0  0  0  0
 14 19  1  0  0  0  0
 14 37  1  0  0  0  0
 14 38  1  0  0  0  0
 15 22  1  0  0  0  0
 15 39  1  0  0  0  0
 15 40  1  0  0  0  0
 16 22  1  0  0  0  0
 16 41  1  0  0  0  0
 16 42  1  0  0  0  0
 17 20  1  0  0  0  0
 17 22  1  0  0  0  0
 17 43  1  0  0  0  0
 17 44  1  0  0  0  0
 18 45  1  0  0  0  0
 19 20  1  0  0  0  0
 19 46  1  0  0  0  0
 20 23  1  0  0  0  0
 20 47  1  0  0  0  0
 21 48  1  0  0  0  0
 21 49  1  0  0  0  0
 23 50  1  0  0  0  0
M  END
$$$$
