39
1 1 C15H22NO
C                     1.436449606867     2.344438789471     1.284108224631
C                     0.881359778839     1.644139485687     2.364322141611
C                     1.273546625396     1.847921697730    -0.006567872367
C                     0.149532419642     0.481912885540     2.142573998134
C                     0.567766548573     0.657169815917    -0.251245290841
C                    -0.019513928237    -0.005511518235     0.839542523452
C                     3.566691495238     0.607174613582    -5.119806912579
C                     3.100284428031    -0.601608558343    -5.905922651779
C                    -0.244531074516    -1.292113104172    -1.642119976115
C                     0.430509320393     0.093203029596    -1.658033652491
C                     3.074313151379    -0.617882170474    -4.401907121851
C                    -1.362671741322    -1.389951112288    -0.591734180385
C                    -2.493024082449    -0.384500499946    -0.843932667552
C                    -1.902705308225    -2.814682460249    -0.512890416734
C                     1.824704375701     0.005581269083    -2.289294417704
N                     1.759212779680    -0.549605477751    -3.705118178595
O                    -0.770331753575    -1.143155519150     0.706973720690
H                     1.982139993483     3.268329757839     1.448865490674
H                     1.003122999922     2.017220463138     3.377131365242
H                     1.692423175462     2.410580479696    -0.838725362711
H                    -0.314425112716    -0.061052370735     2.960479963013
H                     4.627936573550     0.822676873149    -5.058483391441
H                     2.931105807016     1.489176559549    -5.132297902507
H                     2.157795463092    -0.520286398518    -6.441226633860
H                     3.835597546308    -1.234430010028    -6.391218911192
H                    -0.671096378949    -1.540182231060    -2.622349843843
H                     0.498001259189    -2.061822714684    -1.391411318591
H                    -0.175775143035     0.785566950682    -2.261406858078
H                     3.769407092403    -1.242039842907    -3.850783609311
H                    -3.261882093368    -0.496911207053    -0.075740694946
H                    -2.955872406456    -0.565384192771    -1.819482370318
H                    -2.140810255782     0.649763160629    -0.813388521910
H                    -2.637329437774    -2.889908048806     0.292572909138
H                    -1.096980277763    -3.524843145398    -0.305977184847
H                    -2.391148912600    -3.095095819021    -1.450893969800
H                     2.472160519487    -0.666501422101    -1.722149948692
H                     2.316297240659     0.973761681764    -2.376131715336
H                     1.111217298481     0.028305831877    -4.253396051268
H                     1.338522511767    -1.486364787024    -3.676207211411
