45
0 1 C17FH20N3O4
C                     0.755785582238     3.551712668614    -0.697602987142
C                     2.861198079002     2.354496664919    -0.761205637484
C                     1.304560627484     4.458952181739     0.214227408166
C                     3.416224067091     3.260767259863     0.142606114383
C                    -3.161197058940    -0.716662722579    -4.409051770918
C                    -2.009252361413    -2.051377026425    -3.262953407339
C                     1.528006350286     2.483823188327    -1.170439647419
C                     2.619986744799     4.293753063309     0.627808751764
C                    -0.813283083350     1.380508722854     1.003531059053
C                     1.314061580960    -0.074693357994     0.876429170179
C                     0.190687213954    -0.956220626712     1.312281804539
C                    -0.090783980646     0.229738232515     0.376885205959
C                     0.133515940009     3.416422233373     3.862782707855
C                    -1.890618159885    -0.645719876315    -1.154752972191
C                    -0.845228776002     2.933483865900     2.809168259085
C                    -0.307149338828     1.131542301921    -2.019614561383
C                    -0.455921441945    -0.087161455716    -1.091518856734
N                    -2.535840101612    -1.929913383145    -4.475258915072
N                    -3.056112556311    -0.092596656014    -3.240545721151
N                    -2.314504330060    -0.972404172882    -2.504593250968
O                    -1.816991998863     1.902588460605     0.539670403166
O                     0.393232003299    -1.133047763459    -1.577024315774
O                     1.070283626158     1.545202408255    -2.074608525111
O                    -0.240723607443     1.787409997934     2.154227792672
F                     3.144207470043     5.166598984091     1.531746580102
H                    -0.270245594385     3.687335998655    -1.017032470530
H                     3.451742594933     1.530307503845    -1.149697837550
H                     0.718958139858     5.289620996047     0.596112449748
H                     4.444795675334     3.166287145737     0.476748518139
H                    -3.711218078387    -0.284060882034    -5.235026180105
H                    -1.408414719014    -2.872676594173    -2.897198904245
H                     1.736685023183     0.626299776489     1.584105982170
H                     2.006013145996    -0.480497167165     0.149291538175
H                     0.120674486598    -1.938682346952     0.857249216263
H                    -0.171566834809    -0.874765765118     2.331323349267
H                     0.340501092371     2.632716308981     4.597554779476
H                     1.077308654717     3.721853005708     3.402158600333
H                    -0.288936006464     4.278446183857     4.389155295184
H                    -1.929105266043    -1.553859668045    -0.548835419074
H                    -2.593151813897     0.081820597132    -0.752774622119
H                    -1.046573724815     3.697143313985     2.055276390413
H                    -1.801609118980     2.621342782568     3.239651475166
H                    -0.558026618669     0.835304020374    -3.038318162961
H                    -0.975703222367     1.935294755537    -1.720646111728
H                     1.176541367581    -0.704752509932    -1.963363124432
