51
1 1 C21H25N2O3
C                     3.580153398345    -8.996978964812     2.625595933272
C                     2.476137037512    -9.841859536918     2.659877022541
C                     4.201976785433    -6.477524533897     2.182683979670
C                     0.942261164733    -8.042234488512     2.058902831254
C                     3.368870115217    -7.643577344574     2.307220258673
C                     1.164580152834    -9.386870579303     2.379927418800
C                     2.053317487506    -7.211990979221     2.036855885171
C                     3.370833240958    -5.444466868186     1.858937971315
C                     3.649341725817    -4.024143539931     1.639630102087
C                    -1.102743366844    -9.982064578501     3.435951137325
C                    -3.518924965060   -10.655776193559     4.041861218461
C                    -2.643103999417   -11.130480616552     5.151544548627
C                     3.673151350606     0.166011611828     0.112333172061
C                     2.344274146565    -1.525583512426    -1.192841771955
C                     2.401546657403     0.932162013463     0.537920128375
C                     1.137170561940    -0.585423112427    -0.987382491496
C                     1.315733648651    -1.123495379250     1.438589022704
C                    -2.078993223977   -11.064149745474     3.728525099526
C                     3.335403694264    -1.326329612654    -0.037328753119
C                     2.691371104777    -1.809887900646     1.283002821064
C                     0.010732624017   -10.353480208811     2.445754412630
N                     2.537858103030    -3.249932790400     1.340969961658
N                     1.213225413521    -0.009303236995     0.418352982133
O                     4.776773834258    -3.533173601218     1.703392431652
O                    -1.196481452810    -8.865514734809     3.928376779043
O                     2.046598127579    -5.860647625495     1.760622904652
H                     4.575555925018    -9.372894294780     2.842875847260
H                     2.620881604629   -10.889205913378     2.911456848630
H                     5.272194883577    -6.395415180637     2.318774874819
H                    -0.054619713730    -7.663532955862     1.864117446726
H                    -4.299406279326   -11.312937981857     3.671662118932
H                    -3.725378807627    -9.591913778304     3.986627717376
H                    -2.257943959454   -10.387099604311     5.841733265621
H                    -2.803921668129   -12.122228312026     5.561768712624
H                     4.054464954885     0.560766481303    -0.832451628206
H                     4.454565900633     0.305643882581     0.862585227584
H                     2.018456319471    -2.567739771722    -1.222505562514
H                     2.819880874912    -1.305113919300    -2.150884578058
H                     2.430051904419     1.262961504235     1.577922456503
H                     2.185664273970     1.794763693167    -0.094744342891
H                     1.138116603790     0.267984340788    -1.667985443783
H                     0.174967486318    -1.094193011434    -1.071138866490
H                     0.482939600456    -1.801496113187     1.237682169120
H                     1.173861815274    -0.680947568362     2.425885803367
H                    -1.929842378147   -12.008055698813     3.213043963463
H                     4.245105532452    -1.902844640585    -0.202826824923
H                     3.350898008285    -1.502882090553     2.101620984384
H                    -0.480663778610   -10.441151780774     1.465746206651
H                     0.364811488137   -11.361189709328     2.684524737028
H                     1.627268760575    -3.680626460258     1.448969717417
H                     0.357630500471     0.521073454367     0.601922413347
