
  -OEChem-05262117483D

 50 54  0     1  0  0  0  0  0999 V2000
   -5.9229   -2.4896    5.8502 C   0  0  0  0  0  0  0  0  0  0  0  0
   -6.3272   -3.0929    7.0366 C   0  0  0  0  0  0  0  0  0  0  0  0
   -4.1772   -2.7898    3.8948 C   0  0  0  0  0  0  0  0  0  0  0  0
   -4.6782   -4.8716    6.8109 C   0  0  0  0  0  0  0  0  0  0  0  0
   -4.8757   -3.0814    5.1218 C   0  0  0  0  0  0  0  0  0  0  0  0
   -5.7186   -4.2718    7.5266 C   0  0  0  0  0  0  0  0  0  0  0  0
   -4.2870   -4.2581    5.6269 C   0  0  0  0  0  0  0  0  0  0  0  0
   -3.2461   -3.7718    3.7376 C   0  0  0  0  0  0  0  0  0  0  0  0
   -2.2479   -3.9791    2.6635 C   0  0  0  0  0  0  0  0  0  0  0  0
   -7.4361   -5.8199    8.6103 C   0  0  0  0  0  0  0  0  0  0  0  0
   -8.5659   -7.8406    9.7497 C   0  0  0  0  0  0  0  0  0  0  0  0
   -9.4739   -6.6705    9.9445 C   0  0  0  0  0  0  0  0  0  0  0  0
    1.8778   -5.0158    0.9845 C   0  0  0  0  0  0  0  0  0  0  0  0
    1.4757   -4.9967    3.4575 C   0  0  0  0  0  0  0  0  0  0  0  0
    2.1551   -6.5471    1.0988 C   0  0  0  0  0  0  0  0  0  0  0  0
    1.7421   -6.5334    3.4669 C   0  0  0  0  0  0  0  0  0  0  0  0
   -0.0566   -6.9432    1.9338 C   0  0  0  0  0  0  0  0  0  0  0  0
   -7.9653   -6.4401    9.8596 C   0  0  0  0  0  0  0  0  0  0  0  0
    0.8811   -4.6228    2.0893 C   0  0  0  0  0  0  0  0  0  0  0  0
   -0.4165   -5.4274    1.8528 C   0  0  2  0  0  0  0  0  0  0  0  0
   -6.2241   -4.9007    8.7981 C   0  0  0  0  0  0  0  0  0  0  0  0
    1.3719   -7.1612    2.1859 N   0  0  0  0  0  0  0  0  0  0  0  0
   -1.4714   -5.0909    2.8030 N   0  0  0  0  0  0  0  0  0  0  0  0
   -2.1563   -3.1871    1.7214 O   0  0  0  0  0  0  0  0  0  0  0  0
   -7.9373   -6.0346    7.5166 O   0  0  0  0  0  0  0  0  0  0  0  0
   -3.2881   -4.6865    4.7854 O   0  0  0  0  0  0  0  0  0  0  0  0
   -6.4066   -1.5837    5.4958 H   0  0  0  0  0  0  0  0  0  0  0  0
   -7.1413   -2.6522    7.6069 H   0  0  0  0  0  0  0  0  0  0  0  0
   -4.3301   -1.9698    3.2067 H   0  0  0  0  0  0  0  0  0  0  0  0
   -4.1989   -5.7827    7.1583 H   0  0  0  0  0  0  0  0  0  0  0  0
   -8.3909   -8.5138   10.5832 H   0  0  0  0  0  0  0  0  0  0  0  0
   -8.5310   -8.2871    8.7612 H   0  0  0  0  0  0  0  0  0  0  0  0
  -10.0467   -6.3336    9.0866 H   0  0  0  0  0  0  0  0  0  0  0  0
   -9.9366   -6.5205   10.9151 H   0  0  0  0  0  0  0  0  0  0  0  0
    2.8017   -4.4388    1.1007 H   0  0  0  0  0  0  0  0  0  0  0  0
    1.4649   -4.7618    0.0017 H   0  0  0  0  0  0  0  0  0  0  0  0
    0.7892   -4.7063    4.2597 H   0  0  0  0  0  0  0  0  0  0  0  0
    2.4027   -4.4359    3.6186 H   0  0  0  0  0  0  0  0  0  0  0  0
    1.9016   -7.0654    0.1683 H   0  0  0  0  0  0  0  0  0  0  0  0
    3.2131   -6.7444    1.2981 H   0  0  0  0  0  0  0  0  0  0  0  0
    2.7985   -6.7516    3.6527 H   0  0  0  0  0  0  0  0  0  0  0  0
    1.1706   -7.0301    4.2589 H   0  0  0  0  0  0  0  0  0  0  0  0
   -0.6221   -7.4320    2.7362 H   0  0  0  0  0  0  0  0  0  0  0  0
   -0.3252   -7.4515    1.0030 H   0  0  0  0  0  0  0  0  0  0  0  0
   -7.4490   -6.1919   10.7825 H   0  0  0  0  0  0  0  0  0  0  0  0
    0.6509   -3.5558    2.0405 H   0  0  0  0  0  0  0  0  0  0  0  0
   -0.8005   -5.1720    0.8616 H   0  0  0  0  0  0  0  0  0  0  0  0
   -5.4408   -5.4954    9.2853 H   0  0  0  0  0  0  0  0  0  0  0  0
   -6.5091   -4.1345    9.5309 H   0  0  0  0  0  0  0  0  0  0  0  0
   -1.6067   -5.6658    3.6252 H   0  0  0  0  0  0  0  0  0  0  0  0
  1  2  1  0  0  0  0
  1  5  2  0  0  0  0
  1 27  1  0  0  0  0
  2  6  2  0  0  0  0
  2 28  1  0  0  0  0
  3  5  1  0  0  0  0
  3  8  2  0  0  0  0
  3 29  1  0  0  0  0
  4  6  1  0  0  0  0
  4  7  2  0  0  0  0
  4 30  1  0  0  0  0
  5  7  1  0  0  0  0
  6 21  1  0  0  0  0
  7 26  1  0  0  0  0
  8  9  1  0  0  0  0
  8 26  1  0  0  0  0
  9 23  1  0  0  0  0
  9 24  2  0  0  0  0
 10 18  1  0  0  0  0
 10 21  1  0  0  0  0
 10 25  2  0  0  0  0
 11 12  1  0  0  0  0
 11 18  1  0  0  0  0
 11 31  1  0  0  0  0
 11 32  1  0  0  0  0
 12 18  1  0  0  0  0
 12 33  1  0  0  0  0
 12 34  1  0  0  0  0
 13 15  1  0  0  0  0
 13 19  1  0  0  0  0
 13 35  1  0  0  0  0
 13 36  1  0  0  0  0
 14 16  1  0  0  0  0
 14 19  1  0  0  0  0
 14 37  1  0  0  0  0
 14 38  1  0  0  0  0
 15 22  1  0  0  0  0
 15 39  1  0  0  0  0
 15 40  1  0  0  0  0
 16 22  1  0  0  0  0
 16 41  1  0  0  0  0
 16 42  1  0  0  0  0
 17 20  1  0  0  0  0
 17 22  1  0  0  0  0
 17 43  1  0  0  0  0
 17 44  1  0  0  0  0
 18 45  1  0  0  0  0
 19 20  1  0  0  0  0
 19 46  1  0  0  0  0
 20 23  1  0  0  0  0
 20 47  1  0  0  0  0
 21 48  1  0  0  0  0
 21 49  1  0  0  0  0
 23 50  1  0  0  0  0
M  END
$$$$
