
  -OEChem-05262117483D

 45 47  0     1  0  0  0  0  0999 V2000
    0.9605    3.1433   -0.7780 C   0  0  0  0  0  0  0  0  0  0  0  0
    1.5072    2.6763    1.5411 C   0  0  0  0  0  0  0  0  0  0  0  0
    0.9897    4.5165   -0.5058 C   0  0  0  0  0  0  0  0  0  0  0  0
    1.5430    4.0432    1.8148 C   0  0  0  0  0  0  0  0  0  0  0  0
   -1.1705   -1.1371   -4.5042 C   0  0  0  0  0  0  0  0  0  0  0  0
   -2.4589   -0.1589   -3.1596 C   0  0  0  0  0  0  0  0  0  0  0  0
    1.2121    2.2226    0.2475 C   0  0  0  0  0  0  0  0  0  0  0  0
    1.2767    4.9427    0.7846 C   0  0  0  0  0  0  0  0  0  0  0  0
   -0.8975   -0.1182    1.8954 C   0  0  0  0  0  0  0  0  0  0  0  0
    0.9180   -1.8613    1.7650 C   0  0  0  0  0  0  0  0  0  0  0  0
   -0.3785   -2.5952    1.6635 C   0  0  0  0  0  0  0  0  0  0  0  0
   -0.2546   -1.1859    1.0678 C   0  0  0  0  0  0  0  0  0  0  0  0
   -2.6007    2.9478    0.8815 C   0  0  0  0  0  0  0  0  0  0  0  0
   -1.6298   -1.2879   -1.0314 C   0  0  0  0  0  0  0  0  0  0  0  0
   -2.1134    1.9337    1.8992 C   0  0  0  0  0  0  0  0  0  0  0  0
    0.2994    0.3439   -0.9131 C   0  0  0  0  0  0  0  0  0  0  0  0
   -0.2111   -1.0489   -0.4615 C   0  0  1  0  0  0  0  0  0  0  0  0
   -2.1591   -0.2013   -4.4532 N   0  0  0  0  0  0  0  0  0  0  0  0
   -0.8502   -1.6709   -3.3282 N   0  0  0  0  0  0  0  0  0  0  0  0
   -1.6936   -1.0310   -2.4666 N   0  0  0  0  0  0  0  0  0  0  0  0
   -0.8422   -0.0708    3.1118 O   0  0  0  0  0  0  0  0  0  0  0  0
    0.6623   -2.0735   -0.9378 O   0  0  0  0  0  0  0  0  0  0  0  0
    1.1952    0.8639    0.0687 O   0  0  0  0  0  0  0  0  0  0  0  0
   -1.5702    0.8043    1.1607 O   0  0  0  0  0  0  0  0  0  0  0  0
    1.3004    6.2772    1.0516 F   0  0  0  0  0  0  0  0  0  0  0  0
    0.7526    2.8048   -1.7875 H   0  0  0  0  0  0  0  0  0  0  0  0
    1.6895    1.9448    2.3224 H   0  0  0  0  0  0  0  0  0  0  0  0
    0.7976    5.2473   -1.2854 H   0  0  0  0  0  0  0  0  0  0  0  0
    1.7626    4.4130    2.8117 H   0  0  0  0  0  0  0  0  0  0  0  0
   -0.6754   -1.4368   -5.4187 H   0  0  0  0  0  0  0  0  0  0  0  0
   -3.2065    0.4692   -2.6920 H   0  0  0  0  0  0  0  0  0  0  0  0
    1.1900   -1.4397    2.7256 H   0  0  0  0  0  0  0  0  0  0  0  0
    1.7270   -2.1722    1.1171 H   0  0  0  0  0  0  0  0  0  0  0  0
   -0.4387   -3.4081    0.9479 H   0  0  0  0  0  0  0  0  0  0  0  0
   -0.9910   -2.6860    2.5543 H   0  0  0  0  0  0  0  0  0  0  0  0
   -1.7735    3.3015    0.2603 H   0  0  0  0  0  0  0  0  0  0  0  0
   -3.3737    2.5202    0.2345 H   0  0  0  0  0  0  0  0  0  0  0  0
   -3.0312    3.8097    1.4011 H   0  0  0  0  0  0  0  0  0  0  0  0
   -1.9107   -2.3267   -0.8436 H   0  0  0  0  0  0  0  0  0  0  0  0
   -2.3504   -0.6266   -0.5519 H   0  0  0  0  0  0  0  0  0  0  0  0
   -2.9177    1.5703    2.5451 H   0  0  0  0  0  0  0  0  0  0  0  0
   -1.3237    2.3425    2.5323 H   0  0  0  0  0  0  0  0  0  0  0  0
    0.8163    0.2357   -1.8728 H   0  0  0  0  0  0  0  0  0  0  0  0
   -0.5397    1.0309   -1.0374 H   0  0  0  0  0  0  0  0  0  0  0  0
    0.4951   -2.1761   -1.8969 H   0  0  0  0  0  0  0  0  0  0  0  0
  1  3  1  0  0  0  0
  1  7  2  0  0  0  0
  1 26  1  0  0  0  0
  2  4  2  0  0  0  0
  2  7  1  0  0  0  0
  2 27  1  0  0  0  0
  3  8  2  0  0  0  0
  3 28  1  0  0  0  0
  4  8  1  0  0  0  0
  4 29  1  0  0  0  0
  5 18  1  0  0  0  0
  5 19  2  0  0  0  0
  5 30  1  0  0  0  0
  6 18  2  0  0  0  0
  6 20  1  0  0  0  0
  6 31  1  0  0  0  0
  7 23  1  0  0  0  0
  8 25  1  0  0  0  0
  9 12  1  0  0  0  0
  9 21  2  0  0  0  0
  9 24  1  0  0  0  0
 10 11  1  0  0  0  0
 10 12  1  0  0  0  0
 10 32  1  0  0  0  0
 10 33  1  0  0  0  0
 11 12  1  0  0  0  0
 11 34  1  0  0  0  0
 11 35  1  0  0  0  0
 12 17  1  0  0  0  0
 13 15  1  0  0  0  0
 13 36  1  0  0  0  0
 13 37  1  0  0  0  0
 13 38  1  0  0  0  0
 14 17  1  0  0  0  0
 14 20  1  0  0  0  0
 14 39  1  0  0  0  0
 14 40  1  0  0  0  0
 15 24  1  0  0  0  0
 15 41  1  0  0  0  0
 15 42  1  0  0  0  0
 16 17  1  0  0  0  0
 16 23  1  0  0  0  0
 16 43  1  0  0  0  0
 16 44  1  0  0  0  0
 17 22  1  0  0  0  0
 19 20  1  0  0  0  0
 22 45  1  0  0  0  0
M  END
$$$$
