25
0 1 C7H14N2O2
C                     0.716337961233     1.100122870713     2.415372692640
C                    -0.927130623003    -2.237589121003     1.892064316534
C                     1.799801994681     1.501280996109     3.404046175443
C                    -0.531827981029    -0.566289112260     0.009726827476
C                    -0.226266046831    -4.517441212775     2.316512488782
C                     1.391674843551    -2.996653913872     1.263937486932
C                    -0.642031865705    -0.772875714806     1.530215178297
N                     0.518186268797    -0.253168421368     2.271568589845
N                     0.115638301792    -3.138959640812     1.964187185643
O                     0.074473521906     1.933364248280     1.780267375615
O                    -2.084846818237    -2.569480780620     2.146751915713
H                     2.485108565064     2.194160558052     2.909976374840
H                     1.333858460251     2.037500396555     4.236004695157
H                     2.369174077495     0.655294311338     3.799784727144
H                     0.338845841931    -1.069103947277    -0.418162674133
H                    -1.432116052978    -0.960547941602    -0.471095741339
H                    -0.460140757058     0.501404175576    -0.202013363131
H                    -0.495380080419    -5.102209219690     1.426745491676
H                    -1.075640444727    -4.518569238667     2.997596891786
H                     0.637888577483    -4.985075955235     2.797689188278
H                     2.187444209144    -3.445556508048     1.868055588820
H                     1.640849961393    -1.952208635051     1.096240085847
H                     1.366812870502    -3.514032467742     0.294858409636
H                    -1.532898964022    -0.237419885324     1.867638348464
H                     0.899035662953    -0.848688012720     2.996149142315
