
  -OEChem-05262117483D

 34 35  0     0  0  0  0  0  0999 V2000
    0.2529   -3.8796   -1.5259 C   0  0  0  0  0  0  0  0  0  0  0  0
    0.3682   -2.6987   -2.3181 C   0  0  0  0  0  0  0  0  0  0  0  0
   -0.7778   -4.0221   -0.6396 C   0  0  0  0  0  0  0  0  0  0  0  0
   -0.5708   -1.7198   -2.1584 C   0  0  0  0  0  0  0  0  0  0  0  0
   -1.7889   -2.9967   -0.4638 C   0  0  0  0  0  0  0  0  0  0  0  0
   -2.9068   -0.2499    0.2880 C   0  0  0  0  0  0  0  0  0  0  0  0
   -2.1983    0.2383    2.5726 C   0  0  0  0  0  0  0  0  0  0  0  0
   -0.4530   -0.0067    0.8970 C   0  0  0  0  0  0  0  0  0  0  0  0
   -1.4683   -0.7840    3.4431 C   0  0  0  0  0  0  0  0  0  0  0  0
    0.2677   -1.0195    1.7880 C   0  0  0  0  0  0  0  0  0  0  0  0
    0.6921   -1.6663    4.0715 C   0  0  0  0  0  0  0  0  0  0  0  0
   -2.6004   -0.7729   -1.1291 C   0  0  0  0  0  0  0  0  0  0  0  0
   -1.5982   -1.8380   -1.2603 N   0  0  0  0  0  0  0  0  0  0  0  0
   -1.8871   -0.0150    1.1654 N   0  0  0  0  0  0  0  0  0  0  0  0
   -0.0222   -0.7445    3.1959 N   0  0  0  0  0  0  0  0  0  0  0  0
   -2.7495   -3.0592    0.3074 O   0  0  0  0  0  0  0  0  0  0  0  0
   -4.0845   -0.0217    0.5589 O   0  0  0  0  0  0  0  0  0  0  0  0
    0.9913   -4.6710   -1.6318 H   0  0  0  0  0  0  0  0  0  0  0  0
    1.1697   -2.5665   -3.0355 H   0  0  0  0  0  0  0  0  0  0  0  0
   -0.8968   -4.9102   -0.0280 H   0  0  0  0  0  0  0  0  0  0  0  0
   -0.5451   -0.7969   -2.7294 H   0  0  0  0  0  0  0  0  0  0  0  0
   -3.2771    0.1653    2.7013 H   0  0  0  0  0  0  0  0  0  0  0  0
   -1.8773    1.2536    2.8395 H   0  0  0  0  0  0  0  0  0  0  0  0
   -0.0687    0.9966    1.1267 H   0  0  0  0  0  0  0  0  0  0  0  0
   -0.2461   -0.2072   -0.1502 H   0  0  0  0  0  0  0  0  0  0  0  0
   -1.6463   -0.5487    4.4981 H   0  0  0  0  0  0  0  0  0  0  0  0
   -1.8882   -1.7863    3.2411 H   0  0  0  0  0  0  0  0  0  0  0  0
   -0.0350   -2.0423    1.4992 H   0  0  0  0  0  0  0  0  0  0  0  0
    1.3484   -0.9330    1.6276 H   0  0  0  0  0  0  0  0  0  0  0  0
    0.4957   -1.4077    5.1169 H   0  0  0  0  0  0  0  0  0  0  0  0
    1.7699   -1.5807    3.8976 H   0  0  0  0  0  0  0  0  0  0  0  0
    0.4001   -2.7221    3.9172 H   0  0  0  0  0  0  0  0  0  0  0  0
   -2.2911    0.0608   -1.7652 H   0  0  0  0  0  0  0  0  0  0  0  0
   -3.5634   -1.1406   -1.4854 H   0  0  0  0  0  0  0  0  0  0  0  0
  1  2  1  0  0  0  0
  1  3  2  0  0  0  0
  1 18  1  0  0  0  0
  2  4  2  0  0  0  0
  2 19  1  0  0  0  0
  3  5  1  0  0  0  0
  3 20  1  0  0  0  0
  4 13  1  0  0  0  0
  4 21  1  0  0  0  0
  5 13  1  0  0  0  0
  5 16  2  0  0  0  0
  6 12  1  0  0  0  0
  6 14  1  0  0  0  0
  6 17  2  0  0  0  0
  7  9  1  0  0  0  0
  7 14  1  0  0  0  0
  7 22  1  0  0  0  0
  7 23  1  0  0  0  0
  8 10  1  0  0  0  0
  8 14  1  0  0  0  0
  8 24  1  0  0  0  0
  8 25  1  0  0  0  0
  9 15  1  0  0  0  0
  9 26  1  0  0  0  0
  9 27  1  0  0  0  0
 10 15  1  0  0  0  0
 10 28  1  0  0  0  0
 10 29  1  0  0  0  0
 11 15  1  0  0  0  0
 11 30  1  0  0  0  0
 11 31  1  0  0  0  0
 11 32  1  0  0  0  0
 12 13  1  0  0  0  0
 12 33  1  0  0  0  0
 12 34  1  0  0  0  0
M  END
$$$$
