
  -OEChem-05262117483D

 34 35  0     0  0  0  0  0  0999 V2000
   -2.8567   -3.8945   -1.1239 C   0  0  0  0  0  0  0  0  0  0  0  0
   -2.5265   -2.6825   -1.7959 C   0  0  0  0  0  0  0  0  0  0  0  0
   -3.6545   -3.8789   -0.0123 C   0  0  0  0  0  0  0  0  0  0  0  0
   -3.0280   -1.5120   -1.3016 C   0  0  0  0  0  0  0  0  0  0  0  0
   -4.1905   -2.6489    0.5312 C   0  0  0  0  0  0  0  0  0  0  0  0
   -3.1415    0.7728    0.5694 C   0  0  0  0  0  0  0  0  0  0  0  0
   -2.5841   -0.5099    2.6649 C   0  0  0  0  0  0  0  0  0  0  0  0
   -1.1702    1.3203    1.8996 C   0  0  0  0  0  0  0  0  0  0  0  0
   -1.3977   -1.4672    2.5457 C   0  0  0  0  0  0  0  0  0  0  0  0
    0.0027    0.3444    1.7897 C   0  0  0  0  0  0  0  0  0  0  0  0
    1.0036   -1.6569    2.6968 C   0  0  0  0  0  0  0  0  0  0  0  0
   -4.3141   -0.1770    0.2904 C   0  0  0  0  0  0  0  0  0  0  0  0
   -3.8230   -1.4819   -0.1853 N   0  0  0  0  0  0  0  0  0  0  0  0
   -2.4302    0.5960    1.7175 N   0  0  0  0  0  0  0  0  0  0  0  0
   -0.1375   -0.7508    2.7515 N   0  0  0  0  0  0  0  0  0  0  0  0
   -4.9001   -2.5689    1.5442 O   0  0  0  0  0  0  0  0  0  0  0  0
   -2.8671    1.6381   -0.2704 O   0  0  0  0  0  0  0  0  0  0  0  0
   -2.4706   -4.8396   -1.4988 H   0  0  0  0  0  0  0  0  0  0  0  0
   -1.9006   -2.6703   -2.6805 H   0  0  0  0  0  0  0  0  0  0  0  0
   -3.9225   -4.7851    0.5202 H   0  0  0  0  0  0  0  0  0  0  0  0
   -2.8204   -0.5458   -1.7505 H   0  0  0  0  0  0  0  0  0  0  0  0
   -3.5181   -1.0453    2.5081 H   0  0  0  0  0  0  0  0  0  0  0  0
   -2.6012   -0.0869    3.6763 H   0  0  0  0  0  0  0  0  0  0  0  0
   -1.1749    1.7832    2.8929 H   0  0  0  0  0  0  0  0  0  0  0  0
   -1.1052    2.0979    1.1399 H   0  0  0  0  0  0  0  0  0  0  0  0
   -1.4906   -2.2477    3.3081 H   0  0  0  0  0  0  0  0  0  0  0  0
   -1.4291   -1.9626    1.5557 H   0  0  0  0  0  0  0  0  0  0  0  0
    0.0575   -0.0314    0.7491 H   0  0  0  0  0  0  0  0  0  0  0  0
    0.9366    0.8778    1.9985 H   0  0  0  0  0  0  0  0  0  0  0  0
    0.8939   -2.4342    3.4597 H   0  0  0  0  0  0  0  0  0  0  0  0
    1.9248   -1.1035    2.9055 H   0  0  0  0  0  0  0  0  0  0  0  0
    1.1140   -2.1524    1.7135 H   0  0  0  0  0  0  0  0  0  0  0  0
   -4.9078    0.2918   -0.4958 H   0  0  0  0  0  0  0  0  0  0  0  0
   -4.9492   -0.3680    1.1537 H   0  0  0  0  0  0  0  0  0  0  0  0
  1  2  1  0  0  0  0
  1  3  2  0  0  0  0
  1 18  1  0  0  0  0
  2  4  2  0  0  0  0
  2 19  1  0  0  0  0
  3  5  1  0  0  0  0
  3 20  1  0  0  0  0
  4 13  1  0  0  0  0
  4 21  1  0  0  0  0
  5 13  1  0  0  0  0
  5 16  2  0  0  0  0
  6 12  1  0  0  0  0
  6 14  1  0  0  0  0
  6 17  2  0  0  0  0
  7  9  1  0  0  0  0
  7 14  1  0  0  0  0
  7 22  1  0  0  0  0
  7 23  1  0  0  0  0
  8 10  1  0  0  0  0
  8 14  1  0  0  0  0
  8 24  1  0  0  0  0
  8 25  1  0  0  0  0
  9 15  1  0  0  0  0
  9 26  1  0  0  0  0
  9 27  1  0  0  0  0
 10 15  1  0  0  0  0
 10 28  1  0  0  0  0
 10 29  1  0  0  0  0
 11 15  1  0  0  0  0
 11 30  1  0  0  0  0
 11 31  1  0  0  0  0
 11 32  1  0  0  0  0
 12 13  1  0  0  0  0
 12 33  1  0  0  0  0
 12 34  1  0  0  0  0
M  END
$$$$
