
  -OEChem-05262117483D

 25 24  0     1  0  0  0  0  0999 V2000
    1.8984   -0.5994    2.7842 C   0  0  0  0  0  0  0  0  0  0  0  0
   -0.5013   -2.2873    2.1122 C   0  0  0  0  0  0  0  0  0  0  0  0
    2.8962    0.3746    3.3916 C   0  0  0  0  0  0  0  0  0  0  0  0
   -0.1457   -0.6246    0.2419 C   0  0  0  0  0  0  0  0  0  0  0  0
   -0.6568   -4.0255    3.8048 C   0  0  0  0  0  0  0  0  0  0  0  0
   -0.7652   -1.6817    4.5371 C   0  0  0  0  0  0  0  0  0  0  0  0
   -0.3735   -0.7864    1.7468 C   0  0  2  0  0  0  0  0  0  0  0  0
    0.6555   -0.0816    2.5223 N   0  0  0  0  0  0  0  0  0  0  0  0
   -0.7235   -2.6177    3.4254 N   0  0  0  0  0  0  0  0  0  0  0  0
    2.1868   -1.7723    2.5618 O   0  0  0  0  0  0  0  0  0  0  0  0
   -0.4930   -3.1269    1.2147 O   0  0  0  0  0  0  0  0  0  0  0  0
    3.3989   -0.1147    4.2286 H   0  0  0  0  0  0  0  0  0  0  0  0
    3.6576    0.6085    2.6411 H   0  0  0  0  0  0  0  0  0  0  0  0
    2.4448    1.3093    3.7372 H   0  0  0  0  0  0  0  0  0  0  0  0
    0.7889   -1.1086   -0.0480 H   0  0  0  0  0  0  0  0  0  0  0  0
   -0.9558   -1.0900   -0.3228 H   0  0  0  0  0  0  0  0  0  0  0  0
   -0.0975    0.4400   -0.0120 H   0  0  0  0  0  0  0  0  0  0  0  0
    0.2276   -4.2083    4.4286 H   0  0  0  0  0  0  0  0  0  0  0  0
   -0.5902   -4.6307    2.9030 H   0  0  0  0  0  0  0  0  0  0  0  0
   -1.5529   -4.3087    4.3696 H   0  0  0  0  0  0  0  0  0  0  0  0
   -1.4539   -2.0710    5.2945 H   0  0  0  0  0  0  0  0  0  0  0  0
   -1.1315   -0.7044    4.2255 H   0  0  0  0  0  0  0  0  0  0  0  0
    0.2211   -1.5524    5.0032 H   0  0  0  0  0  0  0  0  0  0  0  0
   -1.3272   -0.3139    2.0150 H   0  0  0  0  0  0  0  0  0  0  0  0
    0.5375    0.9182    2.6216 H   0  0  0  0  0  0  0  0  0  0  0  0
  1  3  1  0  0  0  0
  1  8  1  0  0  0  0
  1 10  2  0  0  0  0
  2  7  1  0  0  0  0
  2  9  1  0  0  0  0
  2 11  2  0  0  0  0
  3 12  1  0  0  0  0
  3 13  1  0  0  0  0
  3 14  1  0  0  0  0
  4  7  1  0  0  0  0
  4 15  1  0  0  0  0
  4 16  1  0  0  0  0
  4 17  1  0  0  0  0
  5  9  1  0  0  0  0
  5 18  1  0  0  0  0
  5 19  1  0  0  0  0
  5 20  1  0  0  0  0
  6  9  1  0  0  0  0
  6 21  1  0  0  0  0
  6 22  1  0  0  0  0
  6 23  1  0  0  0  0
  7  8  1  0  0  0  0
  7 24  1  0  0  0  0
  8 25  1  0  0  0  0
M  END
$$$$
