29
0 1 C12H13N3O
C                     2.049729300886    -1.039851068114    -0.159403574911
C                     3.198823140859    -1.180713353084     0.627638399037
C                     0.798244057527    -0.938869239356     0.456448475988
C                     3.104482364384    -1.198132496290     2.019896231828
C                     0.688746772596    -0.972545727786     1.848887805980
C                     1.182038836161    -0.708151727370     6.146468254592
C                     2.255347985395    -1.627011072441     6.047882889501
C                     1.847818608717    -1.083283509934     2.626047681273
C                     0.896980179913    -0.356410403035     4.839075211380
C                    -0.128437992538     0.612493633023     4.333903569236
C                    -0.611424806185     2.588582289307     2.991329195192
C                     1.746380391074     2.043721245090     3.492261879166
N                     2.603721917010    -1.848252454653     4.781047712833
N                     1.764572244135    -1.068559154047     4.044463061095
N                     0.338301085743     1.705288754062     3.655710077208
O                    -1.327073148969     0.401243979106     4.536877156166
H                     2.128533132824    -1.020378436866    -1.242917123470
H                     4.174107318376    -1.270633176762     0.156808230573
H                    -0.101976814208    -0.853037119127    -0.146074505867
H                     3.984614176922    -1.303360003769     2.644814316037
H                    -0.287238527683    -0.935750671051     2.321167068025
H                     0.685973968681    -0.337384587857     7.032601021368
H                     2.779755774783    -2.144051963624     6.842055468153
H                    -0.553215440013     3.600394797078     3.410092982886
H                    -1.617997570552     2.199546237947     3.135770787190
H                    -0.384498531407     2.639334521976     1.919233930854
H                     2.091803545893     1.825251523770     2.474440098492
H                     2.362518033622     1.490352216683     4.199490403974
H                     1.882677416622     3.113475424157     3.685541675153
