32
0 1 C14H13N5
C                     4.586823436068     0.243037551216    -0.813330370626
C                     2.651289492432     1.747463553323    -1.032558974400
C                     2.870374599222     0.355489031426     0.953224949231
C                     1.464969866641     2.268097346096    -0.522542492638
C                     1.686899364440     0.880394660151     1.453158366710
C                    -4.711153187790     5.221008376338     1.742543813963
C                     3.363029565176     0.785650253758    -0.296083894096
C                     0.964111553233     1.846135555307     0.722904738203
C                    -3.618875903694     4.966481609988     0.913032326090
C                    -4.789946684897     4.519675727048     2.957729606795
C                    -2.834530103510     3.463320944676     2.436149867423
C                    -0.290126231846     2.427984387890     1.211680157856
C                    -3.432888111460     5.658903862278    -0.409693018248
C                    -5.923198980640     4.723853160382     3.926950953383
N                     5.581347285149    -0.198150639373    -1.233296872284
N                    -2.667108959389     4.078539231780     1.259267773220
N                    -3.849973486628     3.637577010444     3.307073202730
N                    -0.757132851541     2.045257070817     2.355674687474
N                    -1.907004455012     2.532607701997     2.877763998041
H                     3.031666177876     2.077817027083    -1.994302205610
H                     3.425235743318    -0.388154696132     1.517462758952
H                     0.916426368176     3.012311526688    -1.094869305201
H                     1.301669303748     0.554294067214     2.413575829087
H                    -5.475665987045     5.936692158120     1.459377918762
H                    -0.789063388558     3.167240871240     0.591066390496
H                    -2.482491175203     6.202142528543    -0.415799146455
H                    -3.388326035048     4.918760133958    -1.215045354492
H                    -4.243322665636     6.360824660287    -0.618233824606
H                    -6.405397145614     3.766287889085     4.145183841443
H                    -5.536837777202     5.114371579987     4.873881477279
H                    -6.670044653664     5.419219961051     3.537115034794
H                    -2.135366033013     2.132253698416     3.779102449711
