
  -OEChem-05262117483D

 20 20  0     0  0  0  0  0  0999 V2000
   -0.3790   -0.2948    1.7037 C   0  0  0  0  0  0  0  0  0  0  0  0
    0.4283    0.4490    2.5602 C   0  0  0  0  0  0  0  0  0  0  0  0
    0.0469    0.4961    3.9077 C   0  0  0  0  0  0  0  0  0  0  0  0
   -1.7403   -0.8269    3.4456 C   0  0  0  0  0  0  0  0  0  0  0  0
    0.8712    1.2210    4.9486 C   0  0  0  0  0  0  0  0  0  0  0  0
   -3.6207   -2.2144    3.0300 C   0  0  0  0  0  0  0  0  0  0  0  0
    1.1235    3.2349    6.1449 C   0  0  0  0  0  0  0  0  0  0  0  0
   -1.4666   -0.9401    2.1401 N   0  0  0  0  0  0  0  0  0  0  0  0
   -1.0368   -0.1337    4.3543 N   0  0  0  0  0  0  0  0  0  0  0  0
    1.8202    0.7183    5.5102 O   0  0  0  0  0  0  0  0  0  0  0  0
   -2.8175   -1.4480    3.9459 O   0  0  0  0  0  0  0  0  0  0  0  0
    0.4054    2.4614    5.1539 O   0  0  0  0  0  0  0  0  0  0  0  0
    1.9673    1.3663    1.9108 Br  0  0  0  0  0  0  0  0  0  0  0  0
   -0.1484   -0.3741    0.6433 H   0  0  0  0  0  0  0  0  0  0  0  0
   -4.4248   -2.6268    3.6393 H   0  0  0  0  0  0  0  0  0  0  0  0
   -3.0324   -3.0159    2.5765 H   0  0  0  0  0  0  0  0  0  0  0  0
   -4.0251   -1.5751    2.2413 H   0  0  0  0  0  0  0  0  0  0  0  0
    0.6184    4.1992    6.1773 H   0  0  0  0  0  0  0  0  0  0  0  0
    2.1670    3.3510    5.8446 H   0  0  0  0  0  0  0  0  0  0  0  0
    1.0750    2.7370    7.1154 H   0  0  0  0  0  0  0  0  0  0  0  0
  1  2  1  0  0  0  0
  1  8  2  0  0  0  0
  1 14  1  0  0  0  0
  2  3  2  0  0  0  0
  2 13  1  0  0  0  0
  3  5  1  0  0  0  0
  3  9  1  0  0  0  0
  4  8  1  0  0  0  0
  4  9  2  0  0  0  0
  4 11  1  0  0  0  0
  5 10  2  0  0  0  0
  5 12  1  0  0  0  0
  6 11  1  0  0  0  0
  6 15  1  0  0  0  0
  6 16  1  0  0  0  0
  6 17  1  0  0  0  0
  7 12  1  0  0  0  0
  7 18  1  0  0  0  0
  7 19  1  0  0  0  0
  7 20  1  0  0  0  0
M  END
$$$$
