20
0 1 C10F3H4NOS
C                     1.751483368627    -0.935724884246    -0.182272560748
C                     0.699920185355    -0.318906576927     0.491720364915
C                     4.790279870744    -0.513893831978    -3.215154920149
C                     5.637468332835    -1.548668270272    -3.541049387979
C                     2.773532656077    -1.609445855157     0.509126315734
C                     0.676953158855    -0.352174492925     1.881883751350
C                     2.716788687438    -1.630114744407     1.912461764333
C                     1.682683515438    -0.997654339749     2.600390106164
C                     4.381475531537    -1.827353611446    -1.484965436100
C                     3.855170054462    -2.359435819791    -0.197761223156
N                     4.087123994292    -0.680862825923    -2.053360043938
O                     4.324549330142    -3.400598675876     0.249583256349
F                    -0.316916457857     0.243973517532     2.562817471144
F                     3.669179288253    -2.217975670408     2.645712350931
F                     1.658212943021    -1.009657581750     3.941530468176
S                     5.564417244564    -2.789973086033    -2.350896619437
H                     1.782651964545    -0.900360172344    -1.263149579107
H                    -0.097139848747     0.190691378579    -0.039528521617
H                     4.655421265274     0.390337943717    -3.798688425425
H                     6.286205207182    -1.629897670623    -4.403982718916
