
  -OEChem-05262117483D

 32 33  0     0  0  0  0  0  0999 V2000
    4.2671   -3.1756   -4.5305 C   0  0  0  0  0  0  0  0  0  0  0  0
    4.2812   -2.0781   -3.6746 C   0  0  0  0  0  0  0  0  0  0  0  0
    3.1492   -3.4364   -5.3416 C   0  0  0  0  0  0  0  0  0  0  0  0
    1.6423    0.4159   -3.2782 C   0  0  0  0  0  0  0  0  0  0  0  0
    3.1853   -1.2054   -3.6896 C   0  0  0  0  0  0  0  0  0  0  0  0
    2.0930   -1.4036   -4.5844 C   0  0  0  0  0  0  0  0  0  0  0  0
    2.8541   -0.0554   -2.8784 C   0  0  0  0  0  0  0  0  0  0  0  0
    2.0495   -2.5767   -5.3504 C   0  0  0  0  0  0  0  0  0  0  0  0
    0.2369    0.2219   -5.2351 C   0  0  0  0  0  0  0  0  0  0  0  0
   -0.2916    1.8880   -7.6878 C   0  0  0  0  0  0  0  0  0  0  0  0
    0.2520   -0.2883   -8.8299 C   0  0  0  0  0  0  0  0  0  0  0  0
   -1.8167   -0.1281   -7.3929 C   0  0  0  0  0  0  0  0  0  0  0  0
   -0.3833    0.3628   -7.6014 C   0  0  0  0  0  0  0  0  0  0  0  0
    1.1672   -0.3752   -4.3513 N   0  0  0  0  0  0  0  0  0  0  0  0
   -0.6117    0.9929   -4.8299 O   0  0  0  0  0  0  0  0  0  0  0  0
    3.6357    0.5044   -1.9010 O   0  0  0  0  0  0  0  0  0  0  0  0
    0.4861   -0.1247   -6.4967 O   0  0  0  0  0  0  0  0  0  0  0  0
    0.4782   -3.1835   -6.2653 Br  0  0  0  0  0  0  0  0  0  0  0  0
    5.1048   -3.8667   -4.5500 H   0  0  0  0  0  0  0  0  0  0  0  0
    5.1244   -1.9072   -3.0096 H   0  0  0  0  0  0  0  0  0  0  0  0
    3.1166   -4.3386   -5.9431 H   0  0  0  0  0  0  0  0  0  0  0  0
    1.0716    1.2711   -2.9505 H   0  0  0  0  0  0  0  0  0  0  0  0
   -0.7517    2.3677   -6.8238 H   0  0  0  0  0  0  0  0  0  0  0  0
    0.7543    2.2029   -7.7562 H   0  0  0  0  0  0  0  0  0  0  0  0
   -0.8074    2.2253   -8.5927 H   0  0  0  0  0  0  0  0  0  0  0  0
    0.2275   -1.3773   -8.7486 H   0  0  0  0  0  0  0  0  0  0  0  0
    1.2939    0.0271   -8.9359 H   0  0  0  0  0  0  0  0  0  0  0  0
   -0.2950    0.0107   -9.7289 H   0  0  0  0  0  0  0  0  0  0  0  0
   -1.8348   -1.2145   -7.2723 H   0  0  0  0  0  0  0  0  0  0  0  0
   -2.2752    0.3350   -6.5184 H   0  0  0  0  0  0  0  0  0  0  0  0
   -2.4124    0.1285   -8.2748 H   0  0  0  0  0  0  0  0  0  0  0  0
    4.1425   -0.1984   -1.4643 H   0  0  0  0  0  0  0  0  0  0  0  0
  1  2  1  0  0  0  0
  1  3  2  0  0  0  0
  1 19  1  0  0  0  0
  2  5  2  0  0  0  0
  2 20  1  0  0  0  0
  3  8  1  0  0  0  0
  3 21  1  0  0  0  0
  4  7  2  0  0  0  0
  4 14  1  0  0  0  0
  4 22  1  0  0  0  0
  5  6  1  0  0  0  0
  5  7  1  0  0  0  0
  6  8  2  0  0  0  0
  6 14  1  0  0  0  0
  7 16  1  0  0  0  0
  8 18  1  0  0  0  0
  9 14  1  0  0  0  0
  9 15  2  0  0  0  0
  9 17  1  0  0  0  0
 10 13  1  0  0  0  0
 10 23  1  0  0  0  0
 10 24  1  0  0  0  0
 10 25  1  0  0  0  0
 11 13  1  0  0  0  0
 11 26  1  0  0  0  0
 11 27  1  0  0  0  0
 11 28  1  0  0  0  0
 12 13  1  0  0  0  0
 12 29  1  0  0  0  0
 12 30  1  0  0  0  0
 12 31  1  0  0  0  0
 13 17  1  0  0  0  0
 16 32  1  0  0  0  0
M  END
$$$$
