29
0 1 C11H11N5OS
C                     2.375112340108    -3.703255326644     2.427575037567
C                    -4.847213570581     1.153292511883     2.748363749663
C                     2.220855706794    -2.294844655836     2.419280893887
C                    -2.751088816503     0.517187880738     1.695034442742
C                    -3.245970443740     1.764245651836     1.340150705376
C                     1.081490631085    -1.603031650561     2.063220975503
C                     2.660495196775    -0.208841188511     2.654128845673
C                    -1.545661707615    -0.201084101490     1.276774812760
C                    -2.647122084312     2.782327538985     0.406432376445
C                     3.209670935004     1.145707560917     2.919277098243
C                    -0.726066429159     0.302971881632     0.117218096853
N                     2.431320305151    -4.869648530562     2.414028185642
N                    -4.439781573093     2.102518908150     1.947788772359
N                     3.210159100981    -1.368342653025     2.783639856133
N                    -1.304363175591    -1.288147693577     1.942484749800
N                    -0.134740106817    -2.007551342436     1.560263109177
O                     1.336617669604    -0.277474419672     2.205860385716
S                    -3.824734051475    -0.237684606224     2.856454021184
H                    -5.766602611455     1.215908654194     3.322216164249
H                    -2.818736963119     2.516776360303    -0.642680488796
H                    -3.131422617426     3.743127607069     0.589177148477
H                    -1.571430214143     2.898530446402     0.551190903257
H                     3.196115198194     1.761146086285     2.013594345095
H                     2.623844922924     1.661917739132     3.686910942353
H                     4.238739938074     1.042579161847     3.264680128453
H                    -0.065868063273     1.117063389008     0.427369600875
H                    -0.106075572169    -0.506037074430    -0.271872417425
H                    -1.375691474536     0.672760921740    -0.677283921071
H                    -0.286916068258    -2.993848549683     1.757874389970
