
  -OEChem-05262117483D

 26 28  0     0  0  0  0  0  0999 V2000
    3.9777   -0.3349    6.7198 C   0  0  0  0  0  0  0  0  0  0  0  0
    2.2907   -2.6743    9.0653 C   0  0  0  0  0  0  0  0  0  0  0  0
    1.2733   -3.2076    8.2674 C   0  0  0  0  0  0  0  0  0  0  0  0
    2.0193   -0.2647    0.6318 C   0  0  0  0  0  0  0  0  0  0  0  0
    0.6247   -0.4748    0.7282 C   0  0  0  0  0  0  0  0  0  0  0  0
    3.1767   -1.7453    8.5223 C   0  0  0  0  0  0  0  0  0  0  0  0
    1.1520   -2.8137    6.9348 C   0  0  0  0  0  0  0  0  0  0  0  0
    2.8617   -0.4638    1.7232 C   0  0  0  0  0  0  0  0  0  0  0  0
    0.0285   -0.8944    1.9180 C   0  0  0  0  0  0  0  0  0  0  0  0
    3.0571   -1.3391    7.1820 C   0  0  0  0  0  0  0  0  0  0  0  0
    2.0341   -1.8796    6.3667 C   0  0  0  0  0  0  0  0  0  0  0  0
    2.2818   -0.8798    2.9315 C   0  0  0  0  0  0  0  0  0  0  0  0
    0.8805   -1.0951    3.0084 C   0  0  0  0  0  0  0  0  0  0  0  0
    1.8909   -1.4943    4.9606 C   0  0  0  0  0  0  0  0  0  0  0  0
    4.7499    0.5019    6.4742 N   0  0  0  0  0  0  0  0  0  0  0  0
    2.8731   -1.1387    4.1593 N   0  0  0  0  0  0  0  0  0  0  0  0
    0.6597   -1.5092    4.3141 N   0  0  0  0  0  0  0  0  0  0  0  0
    2.3937   -2.9802   10.1023 H   0  0  0  0  0  0  0  0  0  0  0  0
    0.5837   -3.9397    8.6781 H   0  0  0  0  0  0  0  0  0  0  0  0
    2.4384    0.0617   -0.3160 H   0  0  0  0  0  0  0  0  0  0  0  0
    0.0016   -0.3065   -0.1460 H   0  0  0  0  0  0  0  0  0  0  0  0
    3.9662   -1.3154    9.1307 H   0  0  0  0  0  0  0  0  0  0  0  0
    0.3856   -3.2690    6.3138 H   0  0  0  0  0  0  0  0  0  0  0  0
    3.9330   -0.2993    1.6578 H   0  0  0  0  0  0  0  0  0  0  0  0
   -1.0441   -1.0570    1.9835 H   0  0  0  0  0  0  0  0  0  0  0  0
   -0.2412   -1.6004    4.7637 H   0  0  0  0  0  0  0  0  0  0  0  0
  1 10  1  0  0  0  0
  1 15  3  0  0  0  0
  2  3  1  0  0  0  0
  2  6  2  0  0  0  0
  2 18  1  0  0  0  0
  3  7  2  0  0  0  0
  3 19  1  0  0  0  0
  4  5  1  0  0  0  0
  4  8  2  0  0  0  0
  4 20  1  0  0  0  0
  5  9  2  0  0  0  0
  5 21  1  0  0  0  0
  6 10  1  0  0  0  0
  6 22  1  0  0  0  0
  7 11  1  0  0  0  0
  7 23  1  0  0  0  0
  8 12  1  0  0  0  0
  8 24  1  0  0  0  0
  9 13  1  0  0  0  0
  9 25  1  0  0  0  0
 10 11  2  0  0  0  0
 11 14  1  0  0  0  0
 12 13  2  0  0  0  0
 12 16  1  0  0  0  0
 13 17  1  0  0  0  0
 14 16  2  0  0  0  0
 14 17  1  0  0  0  0
 17 26  1  0  0  0  0
M  END
$$$$
