20
0 1 C10F3H4NOS
C                     1.452841511272    -1.455657861180    -0.049735000609
C                     0.566569666142    -0.645668551417     0.660399490269
C                     4.772567790909    -2.741988598345    -3.651038246787
C                     4.516885095152    -1.390642842154    -3.717059633865
C                     2.664543857529    -1.884711393900     0.513744619880
C                     0.907916404862    -0.243656117041     1.946974924268
C                     2.972773972016    -1.473281557837     1.815849928607
C                     2.109284735128    -0.646355862654     2.532034121527
C                     3.941320511826    -2.491382087899    -1.619133110762
C                     3.572465977505    -2.838738332360    -0.212712447896
N                     4.452697100730    -3.347072099386    -2.469151739578
O                     3.997453487166    -3.848464627771     0.320315288996
F                     0.084118575628     0.547690496552     2.655486460391
F                     4.125156008049    -1.828793031669     2.397922608443
F                     2.431788865112    -0.239570652012     3.767608297353
S                     3.829487634483    -0.844331646002    -2.237524492590
H                     1.186711121675    -1.783380138846    -1.049188246535
H                    -0.378714338739    -0.323021792299     0.236687461730
H                     5.199726435289    -3.331119925367    -4.455598198369
H                     4.699057059313    -0.712560694304    -4.541086692084
