
  -OEChem-05262117483D

 23 24  0     0  0  0  0  0  0999 V2000
   -4.6287   -3.9790   -4.1763 C   0  0  0  0  0  0  0  0  0  0  0  0
   -4.1434   -3.1422   -3.1346 C   0  0  0  0  0  0  0  0  0  0  0  0
   -4.3008   -5.3031   -3.9940 C   0  0  0  0  0  0  0  0  0  0  0  0
   -7.4301   -1.2324   -0.7335 C   0  0  0  0  0  0  0  0  0  0  0  0
   -3.4363   -3.8345   -2.1664 C   0  0  0  0  0  0  0  0  0  0  0  0
   -6.9697   -2.4892   -0.4638 C   0  0  0  0  0  0  0  0  0  0  0  0
   -5.0026   -1.4808   -0.6547 C   0  0  0  0  0  0  0  0  0  0  0  0
   -2.7126   -3.3825   -0.9900 C   0  0  0  0  0  0  0  0  0  0  0  0
   -7.8098   -3.7060   -0.2146 C   0  0  0  0  0  0  0  0  0  0  0  0
   -5.5876   -2.6168   -0.4221 N   0  0  0  0  0  0  0  0  0  0  0  0
   -2.7148   -2.2584   -0.3519 N   0  0  0  0  0  0  0  0  0  0  0  0
   -3.6261   -1.2677   -0.7481 N   0  0  0  0  0  0  0  0  0  0  0  0
   -3.3825   -5.5413   -2.5544 S   0  0  0  0  0  0  0  0  0  0  0  0
   -6.0954   -0.1282   -0.9820 S   0  0  0  0  0  0  0  0  0  0  0  0
   -5.2018   -3.6195   -5.0246 H   0  0  0  0  0  0  0  0  0  0  0  0
   -4.2937   -2.0710   -3.1042 H   0  0  0  0  0  0  0  0  0  0  0  0
   -4.5557   -6.1470   -4.6226 H   0  0  0  0  0  0  0  0  0  0  0  0
   -8.4529   -0.8857   -0.7982 H   0  0  0  0  0  0  0  0  0  0  0  0
   -1.9901   -4.0877   -0.5780 H   0  0  0  0  0  0  0  0  0  0  0  0
   -7.5780   -4.4817   -0.9522 H   0  0  0  0  0  0  0  0  0  0  0  0
   -7.5964   -4.1223    0.7755 H   0  0  0  0  0  0  0  0  0  0  0  0
   -8.8754   -3.4710   -0.2743 H   0  0  0  0  0  0  0  0  0  0  0  0
   -3.3444   -0.3909   -0.3218 H   0  0  0  0  0  0  0  0  0  0  0  0
  1  2  1  0  0  0  0
  1  3  2  0  0  0  0
  1 15  1  0  0  0  0
  2  5  2  0  0  0  0
  2 16  1  0  0  0  0
  3 13  1  0  0  0  0
  3 17  1  0  0  0  0
  4  6  2  0  0  0  0
  4 14  1  0  0  0  0
  4 18  1  0  0  0  0
  5  8  1  0  0  0  0
  5 13  1  0  0  0  0
  6  9  1  0  0  0  0
  6 10  1  0  0  0  0
  7 10  2  0  0  0  0
  7 12  1  0  0  0  0
  7 14  1  0  0  0  0
  8 11  2  0  0  0  0
  8 19  1  0  0  0  0
  9 20  1  0  0  0  0
  9 21  1  0  0  0  0
  9 22  1  0  0  0  0
 11 12  1  0  0  0  0
 12 23  1  0  0  0  0
M  END
$$$$
