
  -OEChem-05262117483D

 20 21  0     0  0  0  0  0  0999 V2000
    1.4528   -1.4557   -0.0497 C   0  0  0  0  0  0  0  0  0  0  0  0
    0.5666   -0.6457    0.6604 C   0  0  0  0  0  0  0  0  0  0  0  0
    4.7726   -2.7420   -3.6510 C   0  0  0  0  0  0  0  0  0  0  0  0
    4.5169   -1.3906   -3.7171 C   0  0  0  0  0  0  0  0  0  0  0  0
    2.6645   -1.8847    0.5137 C   0  0  0  0  0  0  0  0  0  0  0  0
    0.9079   -0.2437    1.9470 C   0  0  0  0  0  0  0  0  0  0  0  0
    2.9728   -1.4733    1.8158 C   0  0  0  0  0  0  0  0  0  0  0  0
    2.1093   -0.6464    2.5320 C   0  0  0  0  0  0  0  0  0  0  0  0
    3.9413   -2.4914   -1.6191 C   0  0  0  0  0  0  0  0  0  0  0  0
    3.5725   -2.8387   -0.2127 C   0  0  0  0  0  0  0  0  0  0  0  0
    4.4527   -3.3471   -2.4692 N   0  0  0  0  0  0  0  0  0  0  0  0
    3.9975   -3.8485    0.3203 O   0  0  0  0  0  0  0  0  0  0  0  0
    0.0841    0.5477    2.6555 F   0  0  0  0  0  0  0  0  0  0  0  0
    4.1252   -1.8288    2.3979 F   0  0  0  0  0  0  0  0  0  0  0  0
    2.4318   -0.2396    3.7676 F   0  0  0  0  0  0  0  0  0  0  0  0
    3.8295   -0.8443   -2.2375 S   0  0  0  0  0  0  0  0  0  0  0  0
    1.1867   -1.7834   -1.0492 H   0  0  0  0  0  0  0  0  0  0  0  0
   -0.3787   -0.3230    0.2367 H   0  0  0  0  0  0  0  0  0  0  0  0
    5.1997   -3.3311   -4.4556 H   0  0  0  0  0  0  0  0  0  0  0  0
    4.6991   -0.7126   -4.5411 H   0  0  0  0  0  0  0  0  0  0  0  0
  1  2  1  0  0  0  0
  1  5  2  0  0  0  0
  1 17  1  0  0  0  0
  2  6  2  0  0  0  0
  2 18  1  0  0  0  0
  3  4  2  0  0  0  0
  3 11  1  0  0  0  0
  3 19  1  0  0  0  0
  4 16  1  0  0  0  0
  4 20  1  0  0  0  0
  5  7  1  0  0  0  0
  5 10  1  0  0  0  0
  6  8  1  0  0  0  0
  6 13  1  0  0  0  0
  7  8  2  0  0  0  0
  7 14  1  0  0  0  0
  8 15  1  0  0  0  0
  9 10  1  0  0  0  0
  9 11  2  0  0  0  0
  9 16  1  0  0  0  0
 10 12  2  0  0  0  0
M  END
$$$$
