23
0 1 C9H9N3S2
C                    -1.008982568592    -0.975711096524    -4.453481627112
C                    -1.912873220782    -1.636493181916    -3.570933199839
C                     0.197267199187    -0.691174145504    -3.862447833932
C                    -7.816896422714    -1.521282645814    -0.801833016746
C                    -1.383104289447    -1.855165837404    -2.308003779618
C                    -7.308198026131    -2.507314671777    -0.004725658327
C                    -5.441046838207    -1.995665159726    -1.076070427670
C                    -1.941328328258    -2.525486760069    -1.136217931834
C                    -8.077981525657    -3.305979583939     1.005037139728
N                    -5.955806795693    -2.772232965097    -0.172110029924
N                    -3.177565563129    -2.628156463041    -0.768957189311
N                    -4.130465158336    -2.023462838602    -1.530097118861
S                     0.250754918195    -1.231099426874    -2.221454841232
S                    -6.564470222898    -0.854963848060    -1.825306081940
H                    -1.240615218479    -0.729803595040    -5.484532314167
H                    -2.884659521061    -2.004824576938    -3.881345238968
H                     1.053599742935    -0.191340843061    -4.297139548744
H                    -8.830407668708    -1.147195358520    -0.855913250185
H                    -1.240258510705    -2.999407693867    -0.451807194968
H                    -8.027305177000    -4.373195665059     0.764988476650
H                    -7.645882742135    -3.175284777600     2.002704481361
H                    -9.127170904631    -3.001647780377     1.034130990556
H                    -3.845653500842    -1.260864771832    -2.144267788550
