
  -OEChem-05262117483D

 18 18  0     0  0  0  0  0  0999 V2000
    1.4146   -1.8903    0.1699 C   0  0  0  0  0  0  0  0  0  0  0  0
    2.4948   -1.5840    2.3135 C   0  0  0  0  0  0  0  0  0  0  0  0
    0.2007   -1.4595    0.7086 C   0  0  0  0  0  0  0  0  0  0  0  0
    1.2844   -1.1654    2.8660 C   0  0  0  0  0  0  0  0  0  0  0  0
    2.5744   -1.9553    0.9605 C   0  0  0  0  0  0  0  0  0  0  0  0
    0.1478   -1.1040    2.0567 C   0  0  0  0  0  0  0  0  0  0  0  0
    3.8345   -2.4587    0.3570 C   0  0  0  0  0  0  0  0  0  0  0  0
    5.0472   -2.0776    0.5921 N   0  0  0  0  0  0  0  0  0  0  0  0
    3.6776   -3.4280   -0.6486 N   0  0  0  0  0  0  0  0  0  0  0  0
    5.1193   -0.9646    1.4702 O   0  0  0  0  0  0  0  0  0  0  0  0
   -1.5152   -0.5212    2.8120 Br  0  0  0  0  0  0  0  0  0  0  0  0
    1.4698   -2.1647   -0.8788 H   0  0  0  0  0  0  0  0  0  0  0  0
    3.3807   -1.6237    2.9354 H   0  0  0  0  0  0  0  0  0  0  0  0
   -0.6878   -1.4011    0.0884 H   0  0  0  0  0  0  0  0  0  0  0  0
    1.2268   -0.8876    3.9134 H   0  0  0  0  0  0  0  0  0  0  0  0
    3.0682   -4.1939   -0.3747 H   0  0  0  0  0  0  0  0  0  0  0  0
    4.5779   -3.7703   -0.9752 H   0  0  0  0  0  0  0  0  0  0  0  0
    6.0712   -0.7769    1.4688 H   0  0  0  0  0  0  0  0  0  0  0  0
  1  3  1  0  0  0  0
  1  5  2  0  0  0  0
  1 12  1  0  0  0  0
  2  4  2  0  0  0  0
  2  5  1  0  0  0  0
  2 13  1  0  0  0  0
  3  6  2  0  0  0  0
  3 14  1  0  0  0  0
  4  6  1  0  0  0  0
  4 15  1  0  0  0  0
  5  7  1  0  0  0  0
  6 11  1  0  0  0  0
  7  8  2  0  0  0  0
  7  9  1  0  0  0  0
  8 10  1  0  0  0  0
  9 16  1  0  0  0  0
  9 17  1  0  0  0  0
 10 18  1  0  0  0  0
M  END
$$$$
