
  -OEChem-05262117483D

 20 21  0     0  0  0  0  0  0999 V2000
    1.9948   -0.7338    0.0698 C   0  0  0  0  0  0  0  0  0  0  0  0
    0.8721   -0.3148    0.7796 C   0  0  0  0  0  0  0  0  0  0  0  0
    7.2657    0.0298    1.2771 C   0  0  0  0  0  0  0  0  0  0  0  0
    8.0566   -0.7399    0.4528 C   0  0  0  0  0  0  0  0  0  0  0  0
    3.1538   -1.1757    0.7268 C   0  0  0  0  0  0  0  0  0  0  0  0
    0.9014   -0.3629    2.1703 C   0  0  0  0  0  0  0  0  0  0  0  0
    3.1459   -1.2302    2.1243 C   0  0  0  0  0  0  0  0  0  0  0  0
    2.0265   -0.8275    2.8507 C   0  0  0  0  0  0  0  0  0  0  0  0
    5.6720   -1.1333    0.2886 C   0  0  0  0  0  0  0  0  0  0  0  0
    4.3217   -1.5901   -0.1130 C   0  0  0  0  0  0  0  0  0  0  0  0
    5.9223   -0.2005    1.1769 N   0  0  0  0  0  0  0  0  0  0  0  0
    4.1629   -2.2337   -1.1456 O   0  0  0  0  0  0  0  0  0  0  0  0
   -0.1669    0.0260    2.8886 F   0  0  0  0  0  0  0  0  0  0  0  0
    4.1820   -1.7338    2.8130 F   0  0  0  0  0  0  0  0  0  0  0  0
    2.0263   -0.9053    4.1902 F   0  0  0  0  0  0  0  0  0  0  0  0
    7.0876   -1.7929   -0.5046 S   0  0  0  0  0  0  0  0  0  0  0  0
    1.9948   -0.7162   -1.0150 H   0  0  0  0  0  0  0  0  0  0  0  0
   -0.0216    0.0443    0.2799 H   0  0  0  0  0  0  0  0  0  0  0  0
    7.6324    0.7769    1.9725 H   0  0  0  0  0  0  0  0  0  0  0  0
    9.1360   -0.7348    0.3703 H   0  0  0  0  0  0  0  0  0  0  0  0
  1  2  1  0  0  0  0
  1  5  2  0  0  0  0
  1 17  1  0  0  0  0
  2  6  2  0  0  0  0
  2 18  1  0  0  0  0
  3  4  2  0  0  0  0
  3 11  1  0  0  0  0
  3 19  1  0  0  0  0
  4 16  1  0  0  0  0
  4 20  1  0  0  0  0
  5  7  1  0  0  0  0
  5 10  1  0  0  0  0
  6  8  1  0  0  0  0
  6 13  1  0  0  0  0
  7  8  2  0  0  0  0
  7 14  1  0  0  0  0
  8 15  1  0  0  0  0
  9 10  1  0  0  0  0
  9 11  2  0  0  0  0
  9 16  1  0  0  0  0
 10 12  2  0  0  0  0
M  END
$$$$
