26   
torsion grid (-165,)
C       -1.9147867964   -6.9841560630    0.0581764648
C       -1.0345668755   -6.5614936368   -0.9474170979
C       -2.2789689809   -6.0895848070    1.0654688687
C       -0.5327864639   -5.2615029857   -0.9471462028
C       -1.7804542715   -4.7801899018    1.0810098537
C       -0.9090675665   -4.3664577923    0.0655334537
C        0.7435896334    1.5055962581   -0.6869104040
C        0.5359828953    0.4487869102   -1.4819511037
C       -0.3976656946   -0.7422230530    0.3552780071
C        0.1011787020    1.5376126396    0.6820050840
C       -0.8705922895   -2.0900874457    0.8507828535
N       -0.2138838382    0.1968294293    1.2030171860
N       -0.2504999377   -0.6294372744   -1.0268310446
O       -0.3555116756   -3.1100517447   -0.0107853777
H       -2.3061120682   -7.9974415607    0.0554828290
H       -0.7387842765   -7.2476727120   -1.7368120501
H       -2.9547217726   -6.4059079796    1.8559070978
H        0.1516627894   -4.9210707668   -1.7191505034
H       -2.0648228824   -4.1099680106    1.8843115408
H        1.3736595399    2.3253697451   -1.0175917373
H        0.9546474953    0.3445829288   -2.4777994920
H        0.7553941266    2.0364135906    1.4061273719
H       -0.8299566411    2.1270627348    0.6635881455
H       -1.9679242420   -2.1095774142    0.8314348392
H       -0.5282694245   -2.2223979924    1.8805339894
H       -0.1535841838   -1.5153396327   -1.5095189546
26   
torsion grid (-150,)
C       -2.0219366965   -6.8762097012   -0.0899103027
C       -1.0774489912   -6.4485042648   -1.0324205144
C       -2.3406358019   -6.0424684786    0.9836528397
C       -0.4688746719   -5.2003364995   -0.9080304843
C       -1.7332546822   -4.7883891049    1.1252465798
C       -0.8020029936   -4.3655793602    0.1683929220
C        0.6409550024    1.4716676756   -0.7978009321
C        0.5138141017    0.3458832077   -1.5111142392
C       -0.3261804055   -0.7706086225    0.4153673184
C        0.0014139344    1.5574300309    0.5702745520
C       -0.7033545848   -2.1077824031    1.0157953532
N       -0.2125593888    0.2393058354    1.1906405631
N       -0.1875092688   -0.7521659873   -0.9718511534
O       -0.1386564438   -3.1615689989    0.2262923191
H       -2.4973001785   -7.8476960644   -0.1906930681
H       -0.8159683302   -7.0886143885   -1.8710762478
H       -3.0628981494   -6.3664737878    1.7285278899
H        0.2661484689   -4.8568708142   -1.6307257415
H       -1.9757087317   -4.1678939188    1.9813118942
H        1.2056286365    2.3101862648   -1.1933127268
H        0.9376405113    0.2001800151   -2.4995403183
H        0.6190508269    2.1548571698    1.2506018329
H       -0.9705439990    2.0743272179    0.5161641837
H       -1.7967986442   -2.1887920918    1.0126970227
H       -0.3449611078   -2.1473069637    2.0474147712
H       -0.0199721703   -1.6627645296   -1.3841966984
26   
torsion grid (-135,)
C       -2.0960033542   -6.7290543299   -0.2492864095
C       -1.0807286344   -6.2923794210   -1.1094885335
C       -2.4056906234   -5.9705304907    0.8819878055
C       -0.3939617215   -5.1062879651   -0.8497519637
C       -1.7192404026   -4.7824622499    1.1597055359
C       -0.7192773587   -4.3451590412    0.2815011966
C        0.5339034210    1.3875215184   -0.9255138550
C        0.4547304861    0.2029546386   -1.5441911020
C       -0.2678654833   -0.8041327598    0.4867320465
C       -0.0706331225    1.5439960069    0.4522378374
C       -0.5544664691   -2.1090006797    1.2024387497
N       -0.1942609991    0.2685534952    1.1774522606
N       -0.1638538144   -0.8888067302   -0.9008118145
O        0.0261478585   -3.2043074432    0.4806246123
H       -2.6324230068   -7.6507288334   -0.4559523988
H       -0.8247025998   -6.8753162113   -1.9904263608
H       -3.1809637529   -6.3056452927    1.5661832075
H        0.3980357776   -4.7585518996   -1.5075454067
H       -1.9523034349   -4.2241883376    2.0605175193
H        1.0348922807    2.2235565854   -1.4036041630
H        0.8585613248    0.0046454178   -2.5318046018
H        0.5323495324    2.2238897176    1.0650543167
H       -1.0704759868    2.0036810931    0.3907733789
H       -1.6409865992   -2.2316891835    1.2592377659
H       -0.1488757142   -2.0550789938    2.2149349242
H        0.0526077282   -1.8174102809   -1.2442871808
26   
torsion grid (-120,)
C       -2.2412341442   -6.5601539357   -0.3593633647
C       -0.8518447737   -6.7301252855   -0.3625662188
C       -2.7758533470   -5.2835012473   -0.1609022967
C       -0.0046425876   -5.6386605167   -0.1572211459
C       -1.9376943706   -4.1807166148    0.0342349428
C       -0.5488409442   -4.3659577095    0.0459101955
C       -0.0679150994    1.4197148810   -0.8389318549
C       -0.2029182992    0.2718218240   -1.5142884369
C       -0.0910328324   -0.9375573558    0.5331668802
C       -0.1925467293    1.4143375089    0.6684760467
C        0.0539854814   -2.3094565508    1.1655449809
N        0.0721980898    0.0956218919    1.2663632472
N       -0.4357319285   -0.9333098691   -0.8187508273
O        0.3405921033   -3.3166880058    0.1826806929
H       -2.8984107514   -7.4113397417   -0.5138367874
H       -0.4242893906   -7.7173799874   -0.5174155214
H       -3.8529080418   -5.1373576292   -0.1701125003
H        1.0753431154   -5.7530238340   -0.1481724727
H       -2.3614308756   -3.1878439723    0.1549247199
H        0.1387831993    2.3448005225   -1.3682123051
H       -0.1294195067    0.1888969908   -2.5938681692
H        0.5011061862    2.1352795768    1.1167348005
H       -1.1997343326    1.7373196601    0.9782784805
H       -0.8549415243   -2.5586160979    1.7194355150
H        0.8863564420   -2.2738537385    1.8721511685
H       -0.2253331685   -1.7988084627   -1.3036857831
26   
torsion grid (-105,)
C       -2.3771366476   -6.3630831740   -0.3514571694
C       -1.0088436729   -6.6330857378   -0.4757554894
C       -2.7938488197   -5.0728629340   -0.0123373077
C       -0.0659251571   -5.6280860340   -0.2527573851
C       -1.8601566726   -4.0533817579    0.2039560926
C       -0.4937631953   -4.3406172836    0.0920711631
C       -0.1951021463    1.3449231619   -0.8501781403
C        0.0158257117    0.2059899072   -1.5221881318
C       -0.0728744510   -1.0093202737    0.5233060969
C       -0.6198008928    1.2849939930    0.6007848862
C        0.2616049724   -2.3330120889    1.1971045016
N       -0.2627903297    0.0171054514    1.2592533555
N       -0.1217809162   -1.0326384553   -0.8664192729
O        0.4927076515   -3.3871799717    0.2541365622
H       -3.1086435049   -7.1483111238   -0.5201720215
H       -0.6721915611   -7.6324488901   -0.7392015265
H       -3.8537852936   -4.8483820858    0.0747106956
H        0.9997068671   -5.8218599653   -0.3340791729
H       -2.1981250560   -3.0478821241    0.4344905722
H       -0.0565942756    2.3030874436   -1.3415583766
H        0.3151543351    0.1609876084   -2.5643367400
H       -0.1651532363    2.1039675208    1.1708122005
H       -1.7088385217    1.4268341413    0.6940073470
H       -0.5239359583   -2.6007894883    1.9064768968
H        1.1931911485   -2.2050135047    1.7541494388
H        0.2628684251   -1.8621637147   -1.3025765469
26   
torsion grid (-90,)
C       -2.4606260708   -6.1310148669   -0.3631372243
C       -1.1264862725   -6.4667349982   -0.6272879509
C       -2.7583434810   -4.8677249983    0.1526137643
C       -0.1038291608   -5.5533850717   -0.3715199029
C       -1.7435520040   -3.9372363078    0.4076920897
C       -0.4128476967   -4.2899434288    0.1495718150
C       -0.2842610473    1.2582628317   -0.8811022998
C        0.2635746309    0.2002270597   -1.4931028352
C       -0.0204584034   -1.0851577722    0.4940090984
C       -0.9949490666    1.0623845149    0.4405041209
C        0.4733045275   -2.3250463133    1.2218248652
N       -0.5523264816   -0.1399315890    1.1694608425
N        0.2202426898   -1.0622358119   -0.8744548546
O        0.6582607741   -3.4418499548    0.3475966781
H       -3.2556851176   -6.8448090978   -0.5593566531
H       -0.8794519507   -7.4465190162   -1.0279943528
H       -3.7902358103   -4.5914429940    0.3534636413
H        0.9366769454   -5.8010677573   -0.5611487789
H       -1.9996416356   -2.9527123493    0.7845371446
H       -0.2148347529    2.2454945575   -1.3271233684
H        0.7799731732    0.2471267975   -2.4464274076
H       -0.8475397216    1.9302455725    1.0937744336
H       -2.0837405792    0.9853105107    0.2879677159
H       -0.1968018367   -2.5613692460    2.0505055886
H        1.4660448364   -2.1135051774    1.6299165545
H        0.7664702148   -1.8261388823   -1.2520171136
26   
torsion grid (-75,)
C       -2.5114165131   -5.9074755724   -0.4860154080
C       -1.1956577948   -6.2896088143   -0.7795486761
C       -2.7386546479   -4.7009814335    0.1784987108
C       -0.1249092296   -5.4766480801   -0.4107320126
C       -1.6742613735   -3.8709478045    0.5531457992
C       -0.3641192322   -4.2671355302    0.2566257538
C       -0.4238093710    1.0513166965   -0.9509173643
C        0.2434946396    0.0236927931   -1.4917113402
C        0.0145176007   -1.1895230792    0.5495862577
C       -1.1484913893    0.8565784938    0.3633642476
C        0.5919526898   -2.3458052443    1.3486357099
N       -0.6302496572   -0.2703932385    1.1596838046
N        0.3097469878   -1.2026729614   -0.8077320009
O        0.7615331605   -3.5333346670    0.5732058352
H       -3.3450785017   -6.5420888754   -0.7730550257
H       -1.0015745808   -7.2268652907   -1.2947968661
H       -3.7543891933   -4.3896584190    0.4084604340
H        0.9014462938   -5.7618710646   -0.6238845903
H       -1.8807471945   -2.9314281689    1.0530684909
H       -0.4438321696    2.0146122178   -1.4510198256
H        0.7769736356    0.0732644755   -2.4354041580
H       -1.0889306453    1.7625202367    0.9780005182
H       -2.2233149428    0.6834855147    0.1921015802
H       -0.0262640262   -2.5200557978    2.2326647178
H        1.6010483823   -2.0812711297    1.6766730654
H        0.9302039469   -1.9308441912   -1.1371786467
26   
torsion grid (-60,)
C       -2.5200455987   -5.6718358018   -0.5928622546
C       -1.2157730087   -6.0654652566   -0.9193342120
C       -2.7120731311   -4.5514852073    0.2180818867
C       -0.1212355589   -5.3446363745   -0.4433568313
C       -1.6233622474   -3.8183474199    0.7060719453
C       -0.3249626822   -4.2193426231    0.3671427772
C       -0.5241649616    0.8684914467   -1.0406416907
C        0.2177507505   -0.1390813074   -1.5177318463
C        0.0503474378   -1.2526011104    0.5876979615
C       -1.2467519938    0.6964768718    0.2777570587
C        0.6975645536   -2.3204154451    1.4518150481
N       -0.6619170877   -0.3464844244    1.1391820354
N        0.3609344082   -1.3183680348   -0.7657312508
O        0.8232468426   -3.5873348998    0.8015962045
H       -3.3726148601   -6.2321321755   -0.9661262733
H       -1.0492674563   -6.9368846727   -1.5474715515
H       -3.7187305500   -4.2352909139    0.4793608859
H        0.8967218033   -5.6387407232   -0.6834687582
H       -1.8006658832   -2.9477350337    1.3267800872
H       -0.6073824792    1.7979932365   -1.5951482195
H        0.7548327711   -0.1062585596   -2.4600630529
H       -1.2560049578    1.6364481346    0.8420166380
H       -2.3051791290    0.4396000124    0.1097744825
H        0.1359482328   -2.3988734209    2.3868766464
H        1.7249044206   -2.0286136548    1.6865570296
H        1.0391444101   -2.0126441055   -1.0512218612
26   
torsion grid (-45,)
C       -2.5190358762   -5.4568426376   -0.7033762864
C       -1.2176196576   -5.8592851450   -1.0277880280
C       -2.7058709095   -4.4219409115    0.2167206010
C       -0.1179952057   -5.2265660944   -0.4466267588
C       -1.6131153067   -3.7835970328    0.8136456045
C       -0.3164083477   -4.1849668281    0.4685367265
C       -0.6162446926    0.6992639877   -1.1042713241
C        0.1715367235   -0.2910676059   -1.5419685225
C        0.0832961841   -1.3078995826    0.6190115138
C       -1.3108366570    0.5596618537    0.2328441800
C        0.7822889549   -2.3012619903    1.5275705685
N       -0.6668524945   -0.4109466707    1.1347636322
N        0.3876703790   -1.4202902772   -0.7336705624
O        0.8268923286   -3.6414947233    1.0198362653
H       -3.3747492869   -5.9458880053   -1.1603624081
H       -1.0566044443   -6.6661783667   -1.7382384463
H       -3.7113927784   -4.1046866129    0.4811871438
H        0.8984612380   -5.5266650895   -0.6859300773
H       -1.7780417837   -2.9830926879    1.5261009921
H       -0.7572324933    1.5925194510   -1.7046512600
H        0.6927757925   -0.2789898146   -2.4936340551
H       -1.3568213573    1.5247382659    0.7511219153
H       -2.3580554985    0.2450306297    0.0956487366
H        0.2905458400   -2.2635529546    2.5039502403
H        1.8317001720   -2.0198506608    1.6533706997
H        1.0933579830   -2.0937024148   -1.0005185179
26   
torsion grid (-30,)
C       -2.4814929126   -5.3032647450   -0.7842356052
C       -1.1770433504   -5.7315101842   -1.0565895550
C       -2.6907735476   -4.3107101172    0.1781421262
C       -0.0921515338   -5.1623971557   -0.3861600293
C       -1.6146638658   -3.7416853520    0.8661167440
C       -0.3119527899   -4.1619726630    0.5679213877
C       -0.6890717848    0.5775625830   -1.1290305525
C        0.1186963284   -0.4017581486   -1.5541922714
C        0.1342832410   -1.3401656087    0.6474471223
C       -1.3299639084    0.4705228042    0.2375059087
C        0.8769082441   -2.2841190014    1.5713857697
N       -0.6297240420   -0.4475095244    1.1517829946
N        0.4057575221   -1.4871758621   -0.7094876092
O        0.8043781285   -3.6782487248    1.2205409653
H       -3.3240068895   -5.7415069266   -1.3119897064
H       -1.0011964386   -6.5077301618   -1.7971161738
H       -3.7004691735   -3.9778420342    0.4050474832
H        0.9270584630   -5.4818720436   -0.5856494970
H       -1.7882052610   -2.9775445093    1.6161460134
H       -0.8857749786    1.4381326336   -1.7607064966
H        0.6041682119   -0.4116662052   -2.5245821091
H       -1.3834964942    1.4530719873    0.7212707462
H       -2.3727500646    0.1242224359    0.1516766344
H        0.4831868778   -2.1241802097    2.5787453644
H        1.9461970986   -2.0505089882    1.5701517731
H        1.1221129942   -2.1468516860   -0.9803585111
26   
torsion grid (-15,)
C        0.1183954081   -5.5623940245    0.0215614849
C       -0.7731162237   -5.5436464533   -1.0567461090
C       -0.0682965953   -4.6776619089    1.0900564526
C       -1.8346962461   -4.6324523616   -1.0743847153
C       -1.1320123251   -3.7722888734    1.0876442435
C       -2.0057625671   -3.7427523554   -0.0064666198
C        1.2725127516   -0.6763024593    0.4009773521
C        0.8643111189   -1.4195438232   -0.6341923758
C       -1.4043602132   -0.9856768001   -0.0465424456
C        0.2697505289    0.2364856327    1.0679506389
C       -2.8283255371   -1.4550385756   -0.2405634880
N       -1.1090805072   -0.2761339600    0.9766265492
N       -0.4868119812   -1.3613181334   -1.0395180478
O       -3.0763363632   -2.8705511864   -0.0425969849
H        0.9463337659   -6.2660643475    0.0333587503
H       -0.6439998265   -6.2361405148   -1.8847843642
H        0.6178074660   -4.6911929913    1.9328762572
H       -2.5403786444   -4.6041361357   -1.9005029483
H       -1.2808991233   -3.0793328888    1.9091411759
H        2.2923744617   -0.7456071198    0.7651168790
H        1.4946310478   -2.1150617901   -1.1779600892
H        0.5086815119    0.3788117422    2.1270684546
H        0.2888809660    1.2401182796    0.6132878334
H       -3.1490523124   -1.2100239471   -1.2620324662
H       -3.4573561924   -0.9214968722    0.4708924262
H       -0.7878379229   -2.1186963072   -1.6413381431
26   
torsion grid (0,)
C        0.1144784541   -5.5908640467    0.0902246350
C       -0.7242339045   -5.5899435710   -1.0297794803
C       -0.1117400668   -4.6744373466    1.1234303391
C       -1.7698319137   -4.6660743782   -1.1260831791
C       -1.1631823274   -3.7580360104    1.0450871906
C       -1.9818273927   -3.7454219013   -0.0921428168
C        1.2949613114   -0.6671963529    0.3493414356
C        0.8591297651   -1.3788831268   -0.6967342264
C       -1.3906576694   -0.9813730992   -0.0243217941
C        0.3075421736    0.2163068642    1.0763862581
C       -2.8197492552   -1.4423431119   -0.1925874284
N       -1.0690247111   -0.3066323461    1.0140835835
N       -0.5042627765   -1.3158210331   -1.0581543546
O       -3.0449328203   -2.8744075232   -0.2181582096
H        0.9314405606   -6.3037246989    0.1610271653
H       -0.5643222187   -6.3053395869   -1.8325713412
H        0.5309611733   -4.6731305266    1.9999619199
H       -2.4318422931   -4.6490921021   -1.9877528500
H       -1.3411879930   -3.0471930634    1.8449454575
H        2.3257879220   -0.7416636555    0.6799738574
H        1.4763037423   -2.0518206467   -1.2823174586
H        0.5796083612    0.3273854156    2.1311575126
H        0.3043690920    1.2336522071    0.6528521091
H       -3.2159449566   -1.0550630154   -1.1392298124
H       -3.3961552219   -1.0243469397    0.6332773192
H       -0.8207755716   -2.0524308779   -1.6775595023
26   
torsion grid (15,)
C        0.0782411317   -5.6453468277    0.1616283683
C       -0.6988688575   -5.6463800637   -1.0023165778
C       -0.1814892765   -4.7025531802    1.1618949945
C       -1.7137472063   -4.7005264394   -1.1721600711
C       -1.2043764197   -3.7621863372    1.0116548678
C       -1.9595183746   -3.7542497982   -0.1687581442
C        1.3080085479   -0.6354324132    0.2869010993
C        0.8488672265   -1.3201798849   -0.7671637952
C       -1.3814592064   -0.9811663751   -0.0068830226
C        0.3327713009    0.2068540796    1.0769197104
C       -2.8096356347   -1.4558982265   -0.1471684254
N       -1.0362722705   -0.3378494430    1.0433943125
N       -0.5271047209   -1.2678108352   -1.0798405622
O       -2.9967064230   -2.8704728328   -0.3845254451
H        0.8727960680   -6.3751608403    0.2901676113
H       -0.5133315005   -6.3799758585   -1.7828554220
H        0.4119698508   -4.6986929657    2.0724922669
H       -2.3267237140   -4.6835256431   -2.0692795386
H       -1.4039934446   -3.0356046297    1.7917169196
H        2.3505001472   -0.7032894067    0.5801802138
H        1.4569803723   -1.9617543575   -1.3958834761
H        0.6396204288    0.2861585810    2.1249867873
H        0.2999214980    1.2378332698    0.6891235752
H       -3.2832286492   -0.9559620112   -0.9989388617
H       -3.3335316128   -1.1711346280    0.7675638489
H       -0.8564880319   -1.9869609313   -1.7129277481
26   
torsion grid (30,)
C        0.0129504570   -5.7216123158    0.2296873973
C       -0.7048081077   -5.7143390558   -0.9722821152
C       -0.2571009430   -4.7481035041    1.1961125293
C       -1.6706634306   -4.7342718944   -1.2111063543
C       -1.2312352924   -3.7690220515    0.9769865620
C       -1.9273806196   -3.7583472648   -0.2388594970
C        1.3215631960   -0.5408533622    0.2337679083
C        0.8505742848   -1.2080392720   -0.8265158787
C       -1.3620075471   -0.9660763437    0.0141096826
C        0.3464510107    0.2406184150    1.0847167591
C       -2.7811699338   -1.4782345286   -0.1003925306
N       -1.0055058972   -0.3460325495    1.0740043655
N       -0.5360326032   -1.1964091004   -1.0918382563
O       -2.9169706187   -2.8443357589   -0.5377763681
H        0.7697374888   -6.4795614911    0.4116946564
H       -0.5103050544   -6.4697617188   -1.7294190309
H        0.2897792113   -4.7481313360    2.1354394398
H       -2.2369311416   -4.7115546800   -2.1382461448
H       -1.4331020471   -3.0206582840    1.7351435442
H        2.3756137932   -0.5798054131    0.4886342318
H        1.4598281689   -1.8050360561   -1.4967403133
H        0.6851845662    0.2911779141    2.1247592883
H        0.2704048043    1.2835967120    0.7371257143
H       -3.3318262868   -0.8932548609   -0.8430462489
H       -3.2525011220   -1.3413978112    0.8765770490
H       -0.8677039254   -1.9040199086   -1.7367444883
26   
torsion grid (45,)
C       -0.1049361761   -5.8351514655    0.2834167007
C       -0.7794957386   -5.8124076721   -0.9437695483
C       -0.3363144130   -4.8155423841    1.2100844049
C       -1.6653884845   -4.7767129853   -1.2430207791
C       -1.2286276182   -3.7746779384    0.9288427277
C       -1.8855264561   -3.7554906417   -0.3082247345
C        1.3383949993   -0.3567250543    0.1907175875
C        0.8721875954   -1.0154951619   -0.8771564503
C       -1.3242135786   -0.9179699852    0.0314217636
C        0.3514695521    0.3343529843    1.1045722587
C       -2.7228039262   -1.4917167135   -0.0701119186
N       -0.9716730246   -0.3146017654    1.1019566162
N       -0.5197913033   -1.0816791134   -1.0988743106
O       -2.7949477263   -2.7870443399   -0.6833835371
H        0.5892795511   -6.6385360633    0.5133375434
H       -0.6138312157   -6.6013797782   -1.6729841019
H        0.1784536644   -4.8236259599    2.1673607164
H       -2.1980176512   -4.7435437700   -2.1895087554
H       -1.3915721217   -2.9916407285    1.6602277682
H        2.4018013078   -0.3370303877    0.4062740896
H        1.4945348258   -1.5474428278   -1.5889543399
H        0.7183573959    0.3502126577    2.1363928647
H        0.2181754919    1.3886609997    0.8129048941
H       -3.3448694024   -0.8550577539   -0.7050563802
H       -3.1474953963   -1.5044127705    0.9378644144
H       -0.8391597260   -1.7832673555   -1.7565316913
26   
torsion grid (60,)
C       -0.2596779196   -6.0234064433    0.3269623992
C       -0.9363105958   -5.9917513265   -0.8995769758
C       -0.3760432472   -4.9371803051    1.1961833274
C       -1.7129789887   -4.8883803917   -1.2505862955
C       -1.1545254801   -3.8217792405    0.8615745629
C       -1.8206270330   -3.8017008136   -0.3704465579
C        1.3415810351   -0.1205148120    0.1894631168
C        0.9115261015   -0.7851597660   -0.8902154232
C       -1.2723769728   -0.8788487395    0.0464947029
C        0.3204783998    0.4605232935    1.1421031121
C       -2.6301264829   -1.5466574610   -0.0593059411
N       -0.9528697297   -0.2813987877    1.1306030917
N       -0.4728963207   -0.9617634747   -1.0933892479
O       -2.6190948518   -2.7644523243   -0.8100683781
H        0.3474249883   -6.8824777900    0.5982991051
H       -0.8592515021   -6.8302077947   -1.5870657751
H        0.1436753874   -4.9468793346    2.1507649568
H       -2.2470170746   -4.8503765983   -2.1959948131
H       -1.2173445173   -2.9884263315    1.5512426873
H        2.4039251099   -0.0169266745    0.3858530988
H        1.5634694790   -1.2401455407   -1.6284800674
H        0.7015861971    0.4621605804    2.1690363753
H        0.1084874857    1.5135146673    0.8957074149
H       -3.3206230774   -0.8975760515   -0.6043522437
H       -3.0156959497   -1.6966169988    0.9530150203
H       -0.7542275588   -1.6664841624   -1.7651683131
26   
torsion grid (75,)
C       -0.4405748705   -6.2197357273    0.3688504504
C       -1.1371352105   -6.1702053304   -0.8461501860
C       -0.3989705125   -5.0832041981    1.1782202769
C       -1.7832684196   -5.0000503017   -1.2416484583
C       -1.0405082349   -3.8978826570    0.7953630069
C       -1.7363401440   -3.8645378983   -0.4199576358
C        1.3374752558    0.1459664721    0.2029542248
C        0.9601517809   -0.5323638560   -0.8880310654
C       -1.2016457788   -0.8323153777    0.0584641832
C        0.2793003508    0.6128270376    1.1778253310
C       -2.5000285299   -1.6086618730   -0.0593898849
N       -0.9274435133   -0.2329035594    1.1540457443
N       -0.4041224843   -0.8303045093   -1.0847701185
O       -2.3965641173   -2.7544197219   -0.9083265352
H        0.0620793112   -7.1321977430    0.6769061652
H       -1.1808599386   -7.0472426101   -1.4868506218
H        0.1420164681   -5.1062654935    2.1206958935
H       -2.3338082272   -4.9461123469   -2.1766292465
H       -0.9763957112   -3.0250445553    1.4350485348
H        2.3878400494    0.3441414766    0.3910703243
H        1.6440286194   -0.9075068916   -1.6423023335
H        0.6680017872    0.6197015517    2.2019607714
H       -0.0223123870    1.6504657744    0.9614532499
H       -3.2549966267   -0.9790805610   -0.5383985980
H       -2.8468565560   -1.8703492377    0.9432079152
H       -0.6314273533   -1.5483678657   -1.7633109346
26   
torsion grid (90,)
C       -0.6436316681   -6.4241897785    0.4153072678
C       -1.3342935456   -6.3332533400   -0.8001969503
C       -0.4556799327   -5.2723233302    1.1824172469
C       -1.8365386274   -5.1082230967   -1.2392282409
C       -0.9472816592   -4.0332112311    0.7532705962
C       -1.6455281127   -3.9600797337   -0.4591094531
C        1.2963570550    0.4197180842    0.1877309429
C        0.9704752763   -0.2636905869   -0.9166540167
C       -1.1364451446   -0.8018602573    0.0485436123
C        0.2156439356    0.7469881478    1.1942087002
C       -2.3559031112   -1.6942095005   -0.0777010540
N       -0.9054601885   -0.2088716487    1.1578104719
N       -0.3587376408   -0.6958353814   -1.1033490008
O       -2.1473633952   -2.7846989877   -0.9823379792
H       -0.2567286736   -7.3802077137    0.7566972841
H       -1.4889159303   -7.2217353294   -1.4070388166
H        0.0858589508   -5.3274038584    2.1232700805
H       -2.3822346919   -5.0215893613   -2.1744623696
H       -0.7692671867   -3.1461304385    1.3522350496
H        2.3237885814    0.7224256093    0.3632898643
H        1.6757121048   -0.5426080104   -1.6927858891
H        0.6206944104    0.7552666326    2.2121132405
H       -0.1875331171    1.7579598718    1.0213102454
H       -3.1741121837   -1.1161719362   -0.5183165020
H       -2.6605819524   -2.0316207975    0.9144598682
H       -0.5215932310   -1.4247635194   -1.7892875029
26   
torsion grid (105,)
C       -0.8509234550   -6.6328694917    0.4164709452
C       -1.5090588621   -6.4597318622   -0.8073652159
C       -0.5350369198   -5.5131753663    1.1908881358
C       -1.8574786480   -5.1818016212   -1.2480201844
C       -0.8692088955   -4.2252896848    0.7571418884
C       -1.5413511864   -4.0671030021   -0.4620512839
C        1.2426313174    0.7022736611    0.1397129301
C        0.9846817393   -0.0369718903   -0.9465124530
C       -1.0487641834   -0.7731795297    0.0466950883
C        0.1440077817    0.9289108823    1.1546026778
C       -2.1779468242   -1.7785860059   -0.0537661818
N       -0.8769888860   -0.1334330562    1.1407703346
N       -0.2891953166   -0.6180608624   -1.1114431011
O       -1.8782246054   -2.8325293813   -0.9808722846
H       -0.5854830559   -7.6287625811    0.7598715584
H       -1.7600792208   -7.3228212886   -1.4186367498
H       -0.0140835582   -5.6348036496    2.1371078654
H       -2.3770800722   -5.0291850301   -2.1895548393
H       -0.5928304922   -3.3619418719    1.3548502878
H        2.2305788907    1.1245702095    0.2941584609
H        1.7093168363   -0.2494827367   -1.7259049074
H        0.5569548093    0.9879776295    2.1678868200
H       -0.3593389318    1.8933397449    0.9780983547
H       -3.0632056381   -1.2754762580   -0.4576183687
H       -2.4170098758   -2.1544637518    0.9410913159
H       -0.3755857492   -1.3805169937   -1.7744925606
26   
torsion grid (120,)
C       -1.0625260990   -6.8042298944    0.4183031644
C       -1.6610552576   -6.5349656375   -0.8178832004
C       -0.6417703391   -5.7416423998    1.2242003523
C       -1.8490546418   -5.2167969158   -1.2403912278
C       -0.8127732478   -4.4173870606    0.8081373345
C       -1.4283347512   -4.1610501482   -0.4242283873
C        1.1769151832    0.9594274289    0.0757674172
C        0.9782007800    0.1713263724   -0.9883711443
C       -0.9555550668   -0.7409698679    0.0549914029
C        0.0761982599    1.0980527783    1.1040799925
C       -1.9863807350   -1.8486670214   -0.0003050647
N       -0.8334243668   -0.0605132509    1.1309055477
N       -0.2327791884   -0.5389965809   -1.1202218747
O       -1.5947747574   -2.8826093177   -0.9196992282
H       -0.9226831261   -7.8299865009    0.7477395507
H       -1.9915473303   -7.3526068968   -1.4533272219
H       -0.1643147719   -5.9400798893    2.1803015795
H       -2.3206703401   -4.9887773596   -2.1918791821
H       -0.4565735189   -3.5990219658    1.4272262015
H        2.1189942599    1.4834283644    0.2031308355
H        1.7087363197    0.0148275361   -1.7754896519
H        0.4961469614    1.2213592082    2.1086839499
H       -0.5237865131    2.0032451786    0.9157593818
H       -2.9292639878   -1.4384080687   -0.3810753244
H       -2.1573278885   -2.2282249779    1.0063333499
H       -0.2448100139   -1.3279190040   -1.7574759035
26   
torsion grid (135,)
C       -1.2155069710   -6.9358144230    0.3615463953
C       -0.6714064328   -6.3909857998   -0.8082025802
C       -1.8831347999   -6.0992679181    1.2593076171
C       -0.7843040270   -5.0254524300   -1.0705188197
C       -2.0120655875   -4.7290860456    1.0041583457
C       -1.4506462118   -4.1923728064   -0.1616044096
C        1.1603264577    1.1227728811   -0.4965943455
C        0.6673156831    0.2985642397   -1.4294751349
C       -0.7319756683   -0.7109187285    0.2087126577
C        0.4745481118    1.2094255818    0.8490824605
C       -1.6514987997   -1.8751197583    0.5217259269
N       -0.3051832992    0.0042273847    1.1782065331
N       -0.4600394538   -0.4970301839   -1.1412862025
O       -1.5556335181   -2.8655865045   -0.5128752182
H       -1.1221932604   -7.9983176464    0.5673426307
H       -0.1495984512   -7.0297759964   -1.5161549744
H       -2.3193681687   -6.5116202507    2.1654763916
H       -0.3603256314   -4.5880540498   -1.9700011231
H       -2.5585295229   -4.1000927930    1.6993999172
H        2.0466108777    1.7153908006   -0.7010131939
H        1.0931007835    0.1775156853   -2.4203952871
H        1.2079539751    1.3655709908    1.6484523764
H       -0.2014137637    2.0791719181    0.8883838854
H       -2.6895412874   -1.5273128170    0.5813332199
H       -1.3541879115   -2.2716558605    1.4929121997
H       -0.6364705259   -1.2978921679   -1.7368184094
26   
torsion grid (150,)
C       -1.4027817854   -7.0071237534    0.3464010903
C       -0.7568941240   -6.5134800639   -0.7948573635
C       -2.0041736786   -6.1102670354    1.2314070851
C       -0.7065403702   -5.1425314287   -1.0431018807
C       -1.9673203477   -4.7309053449    0.9920226802
C       -1.3088084958   -4.2484231958   -0.1462207560
C        1.0542437941    1.3013381503   -0.5319960397
C        0.6012191709    0.4472240053   -1.4579978595
C       -0.6478803387   -0.6942976380    0.2156979040
C        0.4099523539    1.3176772062    0.8364041361
C       -1.4485785418   -1.9364697584    0.5429668836
N       -0.2498534165    0.0463641825    1.1783585447
N       -0.4456669415   -0.4427631450   -1.1412210402
O       -1.2365855981   -2.9169202470   -0.4810527915
H       -1.4368034392   -8.0755056043    0.5396359641
H       -0.2838802191   -7.1995791248   -1.4927342409
H       -2.5154375919   -6.4793637894    2.1167853903
H       -0.2025577237   -4.7459385227   -1.9199216270
H       -2.4591975969   -4.0534796346    1.6817191750
H        1.8804440172    1.9681057214   -0.7582807072
H        1.0017911491    0.3710146129   -2.4637991843
H        1.1531849590    1.5319308162    1.6128373632
H       -0.3384949238    2.1236947898    0.9069528501
H       -2.5173382397   -1.6935402080    0.6009727338
H       -1.1109168965   -2.2935331597    1.5176021592
H       -0.5658857738   -1.2518618949   -1.7396416331
26   
torsion grid (165,)
C       -1.5984897290   -7.0406440154    0.2897107947
C       -0.8735432156   -6.5896773480   -0.8219235813
C       -2.1075262336   -6.1087535919    1.1952841953
C       -0.6588106253   -5.2273872455   -1.0212969286
C       -1.9025761196   -4.7355999174    1.0068126567
C       -1.1716990702   -4.2973095779   -0.1046466099
C        0.9486887005    1.4347218653   -0.5620083780
C        0.5790689798    0.5169487775   -1.4638664250
C       -0.5554243846   -0.6947765119    0.2410735519
C        0.3051480768    1.4245813914    0.8068334844
C       -1.2365637595   -1.9957656886    0.6036717787
N       -0.2308713114    0.1057700348    1.1831196656
N       -0.3773430766   -0.4610129797   -1.1221916889
O       -0.9228102589   -2.9763577798   -0.3903081815
H       -1.7625324755   -8.1032076590    0.4444504618
H       -0.4699889890   -7.3033844517   -1.5355554438
H       -2.6745649396   -6.4436900251    2.0600394070
H       -0.0942171680   -4.8641975687   -1.8753817291
H       -2.3171861601   -4.0311547995    1.7190445292
H        1.7074527372    2.1712388912   -0.8074853368
H        0.9852021269    0.4530379595   -2.4682312677
H        1.0244666134    1.7284540263    1.5758662850
H       -0.5164502800    2.1574897405    0.8584994243
H       -2.3239985008   -1.8493092994    0.6498816384
H       -0.8751298397   -2.2956846997    1.5901014098
H       -0.4244128448   -1.2910897215   -1.7015707183
26   
torsion grid (180,)
C       -1.7672206781   -7.0382535447    0.1912093776
C       -0.9555835152   -6.6143303575   -0.8702340220
C       -2.2004877613   -6.1036879820    1.1323862315
C       -0.5855532970   -5.2762927051   -0.9874105942
C       -1.8368262373   -4.7543351780    1.0284265288
C       -1.0270083976   -4.3426293975   -0.0374938447
C        0.8466166247    1.4979716462   -0.6211372018
C        0.5495322281    0.5170446544   -1.4823570188
C       -0.4676934133   -0.7159849407    0.2805820148
C        0.2152921926    1.4889922868    0.7533269280
C       -1.0400298888   -2.0518205689    0.6962100053
N       -0.2048092002    0.1459930707    1.1870999088
N       -0.3195589269   -0.5227299624   -1.0928062345
O       -0.6120370825   -3.0476708031   -0.2369982450
H       -2.0540558469   -8.0820759647    0.2809295523
H       -0.6081799183   -7.3305748055   -1.6103537669
H       -2.8285814060   -6.4179014449    1.9620093204
H        0.0457677736   -4.9347164881   -1.8028762418
H       -2.1843741474   -4.0497676204    1.7752222703
H        1.5395251268    2.2847072910   -0.9028189590
H        0.9532310967    0.4468424903   -2.4872763716
H        0.9111880856    1.8833674922    1.5025362328
H       -0.6651459395    2.1513503730    0.7839995369
H       -2.1369450042   -1.9946222043    0.6998255123
H       -0.6902066537   -2.2726439550    1.7079893537
H       -0.2986048548   -1.3773890888   -1.6370380596
