
  -OEChem-05262117483D

 31 33  0     0  0  0  0  0  0999 V2000
    3.2052   -3.1804    1.8855 C   0  0  0  0  0  0  0  0  0  0  0  0
    3.5106   -1.8271    2.0766 C   0  0  0  0  0  0  0  0  0  0  0  0
    2.1791   -3.5801    1.0195 C   0  0  0  0  0  0  0  0  0  0  0  0
   -1.6732   -7.2211   -2.9544 C   0  0  0  0  0  0  0  0  0  0  0  0
   -2.7425   -5.4557   -1.6931 C   0  0  0  0  0  0  0  0  0  0  0  0
    2.7900   -0.8321    1.4008 C   0  0  0  0  0  0  0  0  0  0  0  0
   -2.8305   -7.3954   -3.7105 C   0  0  0  0  0  0  0  0  0  0  0  0
   -3.9106   -5.6291   -2.4356 C   0  0  0  0  0  0  0  0  0  0  0  0
    1.4579   -2.5907    0.3422 C   0  0  0  0  0  0  0  0  0  0  0  0
   -1.6003   -6.2390   -1.9497 C   0  0  0  0  0  0  0  0  0  0  0  0
    1.7803   -1.2471    0.5498 C   0  0  0  0  0  0  0  0  0  0  0  0
   -3.9434   -6.5913   -3.4479 C   0  0  0  0  0  0  0  0  0  0  0  0
    0.3249   -2.6742   -0.6265 C   0  0  0  0  0  0  0  0  0  0  0  0
   -0.3487   -6.1172   -1.1748 C   0  0  0  0  0  0  0  0  0  0  0  0
   -0.1598   -1.5622   -1.1050 N   0  0  0  0  0  0  0  0  0  0  0  0
    0.2510   -5.0633   -0.7335 N   0  0  0  0  0  0  0  0  0  0  0  0
   -0.2709   -3.8383   -1.0231 N   0  0  0  0  0  0  0  0  0  0  0  0
   -0.2281    0.5324    0.4112 O   0  0  0  0  0  0  0  0  0  0  0  0
    1.4185    0.4470   -1.5069 O   0  0  0  0  0  0  0  0  0  0  0  0
    0.6731   -0.2339   -0.4491 S   0  0  0  0  0  0  0  0  0  0  0  0
   -5.4023   -6.8036   -4.3899 Cl  0  0  0  0  0  0  0  0  0  0  0  0
    3.7747   -3.9370    2.4179 H   0  0  0  0  0  0  0  0  0  0  0  0
    4.3118   -1.5443    2.7537 H   0  0  0  0  0  0  0  0  0  0  0  0
    1.9482   -4.6260    0.8700 H   0  0  0  0  0  0  0  0  0  0  0  0
   -0.8088   -7.8496   -3.1538 H   0  0  0  0  0  0  0  0  0  0  0  0
   -2.7447   -4.7350   -0.8806 H   0  0  0  0  0  0  0  0  0  0  0  0
    3.0124    0.2218    1.5382 H   0  0  0  0  0  0  0  0  0  0  0  0
   -2.8740   -8.1470   -4.4922 H   0  0  0  0  0  0  0  0  0  0  0  0
   -4.7896   -5.0281   -2.2265 H   0  0  0  0  0  0  0  0  0  0  0  0
    0.1799   -7.0424   -0.9495 H   0  0  0  0  0  0  0  0  0  0  0  0
   -0.9989   -3.7312   -1.7301 H   0  0  0  0  0  0  0  0  0  0  0  0
  1  2  1  0  0  0  0
  1  3  2  0  0  0  0
  1 22  1  0  0  0  0
  2  6  2  0  0  0  0
  2 23  1  0  0  0  0
  3  9  1  0  0  0  0
  3 24  1  0  0  0  0
  4  7  2  0  0  0  0
  4 10  1  0  0  0  0
  4 25  1  0  0  0  0
  5  8  1  0  0  0  0
  5 10  2  0  0  0  0
  5 26  1  0  0  0  0
  6 11  1  0  0  0  0
  6 27  1  0  0  0  0
  7 12  1  0  0  0  0
  7 28  1  0  0  0  0
  8 12  2  0  0  0  0
  8 29  1  0  0  0  0
  9 11  2  0  0  0  0
  9 13  1  0  0  0  0
 10 14  1  0  0  0  0
 11 20  1  0  0  0  0
 12 21  1  0  0  0  0
 13 15  2  0  0  0  0
 13 17  1  0  0  0  0
 14 16  2  0  0  0  0
 14 30  1  0  0  0  0
 15 20  1  0  0  0  0
 16 17  1  0  0  0  0
 17 31  1  0  0  0  0
 18 20  2  0  0  0  0
 19 20  2  0  0  0  0
M  END
$$$$
