25
0 1 C8H15NO
C                     1.147747507314     0.425527482087     1.912173272793
C                    -1.273667230174    -1.522006766617    -1.816385815785
C                     1.217572498471    -0.584583011854     0.758059287376
C                     0.208145294020    -1.256550009026    -1.510443064499
C                     1.193256567511     1.868313054700     1.382196972785
C                     0.292630102611     1.189950136005    -0.760224273055
C                    -1.883345550476    -1.459443923035    -0.415922714626
C                     0.166724048398    -0.280856618771    -0.317423838258
N                     0.195760880382     2.150580565750     0.339534364983
O                    -1.159334133389    -0.433167303438     0.271573633389
H                     0.212311453282     0.271144983973     2.462201303839
H                     1.971335263779     0.255748763532     2.617006535168
H                    -1.688236081949    -0.728154001505    -2.446249944753
H                    -1.446665695717    -2.480249363576    -2.314630554700
H                     2.211797171925    -0.551367643154     0.290795588100
H                     1.069439181040    -1.606197072216     1.127278662925
H                     0.708139625088    -2.187653287059    -1.219714951785
H                     0.754078625893    -0.838735596999    -2.361441364377
H                     1.049331431304     2.583695787567     2.199211342857
H                     2.184106497972     2.072210897254     0.952976489947
H                     1.263244444706     1.331789081018    -1.254423018270
H                    -0.487504076696     1.416596105614    -1.495246005193
H                    -2.943656313505    -1.190299070166    -0.404249959668
H                    -1.762751154849    -2.421058754687     0.106327000137
H                    -0.734975725471     2.058387169229     0.746304959751
