
  -OEChem-05262117483D

 43 45  0     0  0  0  0  0  0999 V2000
   -1.0445    0.4193    3.6552 C   0  0  0  0  0  0  0  0  0  0  0  0
   -1.9567    0.3874    4.7323 C   0  0  0  0  0  0  0  0  0  0  0  0
   -2.2215    2.2622    2.6663 C   0  0  0  0  0  0  0  0  0  0  0  0
   -1.1498    1.3376    2.6114 C   0  0  0  0  0  0  0  0  0  0  0  0
   -3.0290    1.2728    4.8094 C   0  0  0  0  0  0  0  0  0  0  0  0
   -2.6728    3.3426    1.8130 C   0  0  0  0  0  0  0  0  0  0  0  0
   -3.1325    2.1934    3.7549 C   0  0  0  0  0  0  0  0  0  0  0  0
   -3.8150    3.8662    2.3818 C   0  0  0  0  0  0  0  0  0  0  0  0
   -2.4255    2.9147   -0.6727 C   0  0  0  0  0  0  0  0  0  0  0  0
   -0.6631    4.0922   -2.0272 C   0  0  0  0  0  0  0  0  0  0  0  0
   -2.0112    2.2706   -2.9904 C   0  0  0  0  0  0  0  0  0  0  0  0
    0.6635    3.3232   -2.0214 C   0  0  0  0  0  0  0  0  0  0  0  0
   -0.8534    1.2752   -3.0981 C   0  0  0  0  0  0  0  0  0  0  0  0
   -0.1588    1.3127    1.4712 C   0  0  0  0  0  0  0  0  0  0  0  0
   -4.0326    1.2565    5.9354 C   0  0  0  0  0  0  0  0  0  0  0  0
   -4.7357    4.9469    1.9133 C   0  0  0  0  0  0  0  0  0  0  0  0
   -2.0554    3.8024    0.5277 C   0  0  0  0  0  0  0  0  0  0  0  0
   -4.0890    3.1739    3.5540 N   0  0  0  0  0  0  0  0  0  0  0  0
   -1.8106    3.2001   -1.8756 N   0  0  0  0  0  0  0  0  0  0  0  0
   -3.2520    2.0103   -0.5714 O   0  0  0  0  0  0  0  0  0  0  0  0
    0.7562    2.1082   -3.3909 S   0  0  0  0  0  0  0  0  0  0  0  0
   -0.2339   -0.3059    3.6383 H   0  0  0  0  0  0  0  0  0  0  0  0
   -1.8231   -0.3536    5.5174 H   0  0  0  0  0  0  0  0  0  0  0  0
   -0.6661    4.8438   -1.2375 H   0  0  0  0  0  0  0  0  0  0  0  0
   -0.7676    4.6235   -2.9801 H   0  0  0  0  0  0  0  0  0  0  0  0
   -2.0954    2.8496   -3.9166 H   0  0  0  0  0  0  0  0  0  0  0  0
   -2.9466    1.7387   -2.8140 H   0  0  0  0  0  0  0  0  0  0  0  0
    1.5035    4.0086   -2.1688 H   0  0  0  0  0  0  0  0  0  0  0  0
    0.8012    2.8106   -1.0641 H   0  0  0  0  0  0  0  0  0  0  0  0
   -0.7965    0.6678   -2.1897 H   0  0  0  0  0  0  0  0  0  0  0  0
   -1.0013    0.6050   -3.9497 H   0  0  0  0  0  0  0  0  0  0  0  0
   -0.6655    1.1987    0.5071 H   0  0  0  0  0  0  0  0  0  0  0  0
    0.4388    2.2312    1.4290 H   0  0  0  0  0  0  0  0  0  0  0  0
    0.5377    0.4769    1.5808 H   0  0  0  0  0  0  0  0  0  0  0  0
   -4.0563    2.2149    6.4707 H   0  0  0  0  0  0  0  0  0  0  0  0
   -5.0484    1.0616    5.5672 H   0  0  0  0  0  0  0  0  0  0  0  0
   -3.7925    0.4785    6.6648 H   0  0  0  0  0  0  0  0  0  0  0  0
   -5.6941    4.5335    1.5758 H   0  0  0  0  0  0  0  0  0  0  0  0
   -4.9449    5.6732    2.7081 H   0  0  0  0  0  0  0  0  0  0  0  0
   -4.3028    5.4917    1.0719 H   0  0  0  0  0  0  0  0  0  0  0  0
   -2.3673    4.8279    0.2990 H   0  0  0  0  0  0  0  0  0  0  0  0
   -0.9682    3.8409    0.6298 H   0  0  0  0  0  0  0  0  0  0  0  0
   -4.8630    3.3703    4.1716 H   0  0  0  0  0  0  0  0  0  0  0  0
  1  2  1  0  0  0  0
  1  4  2  0  0  0  0
  1 22  1  0  0  0  0
  2  5  2  0  0  0  0
  2 23  1  0  0  0  0
  3  4  1  0  0  0  0
  3  6  1  0  0  0  0
  3  7  2  0  0  0  0
  4 14  1  0  0  0  0
  5  7  1  0  0  0  0
  5 15  1  0  0  0  0
  6  8  2  0  0  0  0
  6 17  1  0  0  0  0
  7 18  1  0  0  0  0
  8 16  1  0  0  0  0
  8 18  1  0  0  0  0
  9 17  1  0  0  0  0
  9 19  1  0  0  0  0
  9 20  2  0  0  0  0
 10 12  1  0  0  0  0
 10 19  1  0  0  0  0
 10 24  1  0  0  0  0
 10 25  1  0  0  0  0
 11 13  1  0  0  0  0
 11 19  1  0  0  0  0
 11 26  1  0  0  0  0
 11 27  1  0  0  0  0
 12 21  1  0  0  0  0
 12 28  1  0  0  0  0
 12 29  1  0  0  0  0
 13 21  1  0  0  0  0
 13 30  1  0  0  0  0
 13 31  1  0  0  0  0
 14 32  1  0  0  0  0
 14 33  1  0  0  0  0
 14 34  1  0  0  0  0
 15 35  1  0  0  0  0
 15 36  1  0  0  0  0
 15 37  1  0  0  0  0
 16 38  1  0  0  0  0
 16 39  1  0  0  0  0
 16 40  1  0  0  0  0
 17 41  1  0  0  0  0
 17 42  1  0  0  0  0
 18 43  1  0  0  0  0
M  END
$$$$
