
  -OEChem-05262117483D

 43 45  0     0  0  0  0  0  0999 V2000
   -1.7696    0.3728    3.5205 C   0  0  0  0  0  0  0  0  0  0  0  0
   -2.6175    0.5251    4.6391 C   0  0  0  0  0  0  0  0  0  0  0  0
   -2.6125    2.4038    2.5605 C   0  0  0  0  0  0  0  0  0  0  0  0
   -1.7421    1.2897    2.4704 C   0  0  0  0  0  0  0  0  0  0  0  0
   -3.4764    1.6144    4.7637 C   0  0  0  0  0  0  0  0  0  0  0  0
   -2.8837    3.5482    1.7148 C   0  0  0  0  0  0  0  0  0  0  0  0
   -3.4422    2.5374    3.7068 C   0  0  0  0  0  0  0  0  0  0  0  0
   -3.8241    4.3235    2.3604 C   0  0  0  0  0  0  0  0  0  0  0  0
   -0.8736    4.5843    0.5798 C   0  0  0  0  0  0  0  0  0  0  0  0
   -0.5257    4.4649   -1.9035 C   0  0  0  0  0  0  0  0  0  0  0  0
    1.2013    5.3931   -0.4139 C   0  0  0  0  0  0  0  0  0  0  0  0
   -0.8880    5.8012   -2.5633 C   0  0  0  0  0  0  0  0  0  0  0  0
    1.0457    6.8394   -0.8891 C   0  0  0  0  0  0  0  0  0  0  0  0
   -0.8065    1.0848    1.3017 C   0  0  0  0  0  0  0  0  0  0  0  0
   -4.3834    1.8178    5.9518 C   0  0  0  0  0  0  0  0  0  0  0  0
   -4.4159    5.6464    1.9944 C   0  0  0  0  0  0  0  0  0  0  0  0
   -2.2331    3.8858    0.4085 C   0  0  0  0  0  0  0  0  0  0  0  0
   -4.1616    3.7112    3.5598 N   0  0  0  0  0  0  0  0  0  0  0  0
   -0.0543    4.6460   -0.5314 N   0  0  0  0  0  0  0  0  0  0  0  0
   -0.5229    5.0466    1.6636 O   0  0  0  0  0  0  0  0  0  0  0  0
    0.5460    6.9380   -2.6526 S   0  0  0  0  0  0  0  0  0  0  0  0
   -1.1094   -0.4909    3.4819 H   0  0  0  0  0  0  0  0  0  0  0  0
   -2.5932   -0.2240    5.4276 H   0  0  0  0  0  0  0  0  0  0  0  0
   -1.3904    3.8015   -1.9175 H   0  0  0  0  0  0  0  0  0  0  0  0
    0.2698    3.9796   -2.4800 H   0  0  0  0  0  0  0  0  0  0  0  0
    1.9621    4.8821   -1.0139 H   0  0  0  0  0  0  0  0  0  0  0  0
    1.5001    5.3762    0.6347 H   0  0  0  0  0  0  0  0  0  0  0  0
   -1.2134    5.6413   -3.5955 H   0  0  0  0  0  0  0  0  0  0  0  0
   -1.7065    6.2823   -2.0163 H   0  0  0  0  0  0  0  0  0  0  0  0
    0.3135    7.3610   -0.2656 H   0  0  0  0  0  0  0  0  0  0  0  0
    1.9988    7.3712   -0.8180 H   0  0  0  0  0  0  0  0  0  0  0  0
   -1.3537    0.9023    0.3689 H   0  0  0  0  0  0  0  0  0  0  0  0
   -0.1622    1.9557    1.1412 H   0  0  0  0  0  0  0  0  0  0  0  0
   -0.1589    0.2204    1.4731 H   0  0  0  0  0  0  0  0  0  0  0  0
   -4.1541    2.7533    6.4785 H   0  0  0  0  0  0  0  0  0  0  0  0
   -5.4390    1.8602    5.6528 H   0  0  0  0  0  0  0  0  0  0  0  0
   -4.2780    1.0013    6.6710 H   0  0  0  0  0  0  0  0  0  0  0  0
   -5.4998    5.6646    2.1601 H   0  0  0  0  0  0  0  0  0  0  0  0
   -3.9711    6.4570    2.5847 H   0  0  0  0  0  0  0  0  0  0  0  0
   -4.2389    5.8758    0.9413 H   0  0  0  0  0  0  0  0  0  0  0  0
   -2.1125    2.9850   -0.1967 H   0  0  0  0  0  0  0  0  0  0  0  0
   -2.8788    4.5535   -0.1748 H   0  0  0  0  0  0  0  0  0  0  0  0
   -4.8451    4.0633    4.2139 H   0  0  0  0  0  0  0  0  0  0  0  0
  1  2  1  0  0  0  0
  1  4  2  0  0  0  0
  1 22  1  0  0  0  0
  2  5  2  0  0  0  0
  2 23  1  0  0  0  0
  3  4  1  0  0  0  0
  3  6  1  0  0  0  0
  3  7  2  0  0  0  0
  4 14  1  0  0  0  0
  5  7  1  0  0  0  0
  5 15  1  0  0  0  0
  6  8  2  0  0  0  0
  6 17  1  0  0  0  0
  7 18  1  0  0  0  0
  8 16  1  0  0  0  0
  8 18  1  0  0  0  0
  9 17  1  0  0  0  0
  9 19  1  0  0  0  0
  9 20  2  0  0  0  0
 10 12  1  0  0  0  0
 10 19  1  0  0  0  0
 10 24  1  0  0  0  0
 10 25  1  0  0  0  0
 11 13  1  0  0  0  0
 11 19  1  0  0  0  0
 11 26  1  0  0  0  0
 11 27  1  0  0  0  0
 12 21  1  0  0  0  0
 12 28  1  0  0  0  0
 12 29  1  0  0  0  0
 13 21  1  0  0  0  0
 13 30  1  0  0  0  0
 13 31  1  0  0  0  0
 14 32  1  0  0  0  0
 14 33  1  0  0  0  0
 14 34  1  0  0  0  0
 15 35  1  0  0  0  0
 15 36  1  0  0  0  0
 15 37  1  0  0  0  0
 16 38  1  0  0  0  0
 16 39  1  0  0  0  0
 16 40  1  0  0  0  0
 17 41  1  0  0  0  0
 17 42  1  0  0  0  0
 18 43  1  0  0  0  0
M  END
$$$$
