37
0 1 C16H13N3O4S
C                     2.417746449313    -2.160704397845    -3.105532971651
C                     2.016568717902    -1.013446681082    -2.409546308673
C                     2.297051012590    -3.435917582198    -2.538408325618
C                     2.415867457457    -7.159787361633    -4.663912998432
C                     2.800260878395    -7.425673789952    -5.987926513562
C                     1.486551036235    -1.114938038701    -1.115519286949
C                     3.689941508487    -9.070653540257    -3.830657613545
C                     1.760753283333    -3.542592061259    -1.250198205006
C                     2.848709068197    -7.955151626196    -3.587695983384
C                     3.634939607101    -8.510466296328    -6.194228471686
C                     4.066415850677    -9.310509286491    -5.136335260036
C                     1.375437316013    -2.383367414635    -0.572100139505
C                     1.513400096168    -4.724160601758    -0.370958474118
C                     2.436216676046    -7.614806402972    -2.207568966635
C                     5.061777434909   -10.032658338470    -7.010687983578
C                     2.289130769652    -8.695667614808    -1.160114558647
N                     1.020802609443    -4.512490193749     0.820070019207
N                     2.201999418827    -6.363488554240    -1.971165223266
N                     1.782395567603    -6.012884315312    -0.722294094161
O                     1.678356041795    -2.359252036546     2.096312606696
O                    -0.663866050799    -2.584526093069     1.171166123061
O                     4.130006239983    -8.999590787728    -7.379838317376
O                     4.855807180936   -10.331588856703    -5.619399444683
S                     0.770120040356    -2.852425707293     1.060581892265
H                     2.833358431081    -2.061867562452    -4.104505872840
H                     2.120494904535    -0.036152101132    -2.872819810693
H                     2.613003923414    -4.320443999800    -3.074473476199
H                     1.750383267416    -6.328493128655    -4.459118068211
H                     2.448741649735    -6.817864931025    -6.815477204074
H                     1.177909835723    -0.235523838086    -0.558363011330
H                     4.059717647255    -9.702888425463    -3.030790468969
H                     4.864154194711   -10.926402774369    -7.606286983262
H                     6.085640191493    -9.664813341973    -7.156505071190
H                     2.988795648169    -8.547675889323    -0.328341859511
H                     1.273254106818    -8.695319368577    -0.745384376616
H                     2.457047059597    -9.688429806496    -1.574305482642
H                     1.581000008282    -6.706230309924    -0.003814759135
