
  -OEChem-05262117483D

 37 39  0     0  0  0  0  0  0999 V2000
   -2.4118   -1.2822    0.6244 C   0  0  0  0  0  0  0  0  0  0  0  0
   -3.2966    2.0599    3.4451 C   0  0  0  0  0  0  0  0  0  0  0  0
   -2.4096    2.0731    2.3808 C   0  0  0  0  0  0  0  0  0  0  0  0
   -3.1023    1.1408    4.4855 C   0  0  0  0  0  0  0  0  0  0  0  0
   -1.0780   -1.7780    0.6321 C   0  0  0  0  0  0  0  0  0  0  0  0
   -1.3379    1.1555    2.3047 C   0  0  0  0  0  0  0  0  0  0  0  0
   -0.7631   -3.1840    0.6732 C   0  0  0  0  0  0  0  0  0  0  0  0
   -2.0348    0.2441    4.4768 C   0  0  0  0  0  0  0  0  0  0  0  0
   -1.1477    0.2576    3.3813 C   0  0  0  0  0  0  0  0  0  0  0  0
    0.5838   -3.4218    0.6282 C   0  0  0  0  0  0  0  0  0  0  0  0
    0.0488   -0.9603    0.5686 C   0  0  0  0  0  0  0  0  0  0  0  0
   -0.4935    1.2728    1.1055 C   0  0  0  0  0  0  0  0  0  0  0  0
   -1.7794   -4.2940    0.7610 C   0  0  0  0  0  0  0  0  0  0  0  0
    1.2286   -4.7785    0.6972 C   0  0  0  0  0  0  0  0  0  0  0  0
   -1.1185   -5.6146    1.1876 C   0  0  0  0  0  0  0  0  0  0  0  0
    0.1806   -5.8693    0.4101 C   0  0  0  0  0  0  0  0  0  0  0  0
   -1.8015   -0.7300    5.6042 C   0  0  0  0  0  0  0  0  0  0  0  0
   -3.5157   -0.9042    0.6095 N   0  0  0  0  0  0  0  0  0  0  0  0
    0.1631    0.4025    0.4120 N   0  0  0  0  0  0  0  0  0  0  0  0
   -0.0943   -0.6055    3.4882 O   0  0  0  0  0  0  0  0  0  0  0  0
    1.5034   -1.9389    0.5042 S   0  0  0  0  0  0  0  0  0  0  0  0
   -4.1320    2.7529    3.4727 H   0  0  0  0  0  0  0  0  0  0  0  0
   -2.5507    2.7756    1.5631 H   0  0  0  0  0  0  0  0  0  0  0  0
   -3.7913    1.1261    5.3269 H   0  0  0  0  0  0  0  0  0  0  0  0
   -0.4167    2.2932    0.7218 H   0  0  0  0  0  0  0  0  0  0  0  0
   -2.5742   -4.0169    1.4619 H   0  0  0  0  0  0  0  0  0  0  0  0
   -2.2656   -4.4132   -0.2163 H   0  0  0  0  0  0  0  0  0  0  0  0
    2.0571   -4.8517   -0.0162 H   0  0  0  0  0  0  0  0  0  0  0  0
    1.6621   -4.9313    1.6949 H   0  0  0  0  0  0  0  0  0  0  0  0
   -0.8937   -5.5771    2.2611 H   0  0  0  0  0  0  0  0  0  0  0  0
   -1.8194   -6.4424    1.0377 H   0  0  0  0  0  0  0  0  0  0  0  0
   -0.0376   -5.8855   -0.6649 H   0  0  0  0  0  0  0  0  0  0  0  0
    0.5959   -6.8491    0.6683 H   0  0  0  0  0  0  0  0  0  0  0  0
   -1.7768   -1.7602    5.2343 H   0  0  0  0  0  0  0  0  0  0  0  0
   -0.8376   -0.5483    6.0913 H   0  0  0  0  0  0  0  0  0  0  0  0
   -2.5909   -0.6481    6.3557 H   0  0  0  0  0  0  0  0  0  0  0  0
    0.3796   -0.6896    2.6444 H   0  0  0  0  0  0  0  0  0  0  0  0
  1  5  1  0  0  0  0
  1 18  3  0  0  0  0
  2  3  1  0  0  0  0
  2  4  2  0  0  0  0
  2 22  1  0  0  0  0
  3  6  2  0  0  0  0
  3 23  1  0  0  0  0
  4  8  1  0  0  0  0
  4 24  1  0  0  0  0
  5  7  1  0  0  0  0
  5 11  2  0  0  0  0
  6  9  1  0  0  0  0
  6 12  1  0  0  0  0
  7 10  2  0  0  0  0
  7 13  1  0  0  0  0
  8  9  2  0  0  0  0
  8 17  1  0  0  0  0
  9 20  1  0  0  0  0
 10 14  1  0  0  0  0
 10 21  1  0  0  0  0
 11 19  1  0  0  0  0
 11 21  1  0  0  0  0
 12 19  2  0  0  0  0
 12 25  1  0  0  0  0
 13 15  1  0  0  0  0
 13 26  1  0  0  0  0
 13 27  1  0  0  0  0
 14 16  1  0  0  0  0
 14 28  1  0  0  0  0
 14 29  1  0  0  0  0
 15 16  1  0  0  0  0
 15 30  1  0  0  0  0
 15 31  1  0  0  0  0
 16 32  1  0  0  0  0
 16 33  1  0  0  0  0
 17 34  1  0  0  0  0
 17 35  1  0  0  0  0
 17 36  1  0  0  0  0
 20 37  1  0  0  0  0
M  END
$$$$
