31
0 1 C14ClH10N3O2S
C                     3.205170362204    -3.180366947906     1.885515018287
C                     3.510607781005    -1.827092652997     2.076568444038
C                     2.179082902292    -3.580076895196     1.019537367899
C                    -1.673199649094    -7.221067902998    -2.954352387253
C                    -2.742517071750    -5.455673253976    -1.693105898732
C                     2.790004550910    -0.832078267225     1.400848098747
C                    -2.830539361202    -7.395378754482    -3.710523882555
C                    -3.910584978662    -5.629121112681    -2.435619393728
C                     1.457919643955    -2.590747010398     0.342222098371
C                    -1.600311282815    -6.239015242033    -1.949676638517
C                     1.780316483260    -1.247059453882     0.549769591479
C                    -3.943420937886    -6.591312943288    -3.447893095314
C                     0.324863471870    -2.674245062244    -0.626539186843
C                    -0.348669064328    -6.117211231971    -1.174773481772
N                    -0.159750360612    -1.562159029412    -1.105033211886
N                     0.251044425755    -5.063338523556    -0.733473645375
N                    -0.270887819724    -3.838251777486    -1.023128994172
O                    -0.228115621726     0.532359184988     0.411238109867
O                     1.418515849407     0.446982072492    -1.506854115863
S                     0.673089434953    -0.233870873692    -0.449081762996
Cl                   -5.402264403540    -6.803573923647    -4.389944298405
H                     3.774681158240    -3.936995128433     2.417901699323
H                     4.311836165162    -1.544320846648     2.753685848916
H                     1.948169779951    -4.626040272308     0.869990824518
H                    -0.808816690106    -7.849617883865    -3.153777936237
H                    -2.744660144201    -4.734983127691    -0.880606696167
H                     3.012441513778     0.221799775297     1.538245500678
H                    -2.873959933577    -8.147018952955    -4.492200671641
H                    -4.789640413003    -5.028079292547    -2.226464376673
H                     0.179943302587    -7.042371204333    -0.949496784655
H                    -0.998928810143    -3.731188125629    -1.730084331246
