16
0 1 C7H4N2OS2
C                     0.329616149985    -1.039458937217     1.444327150496
C                     3.097963017568    -5.667983569527     3.145203572057
C                    -0.855382310814    -0.980516581233     0.743661931254
C                     2.732578594556    -6.982137057984     2.950047080843
C                    -0.037060264478    -3.205756388922     1.259802543833
C                     1.224745892445    -5.316887666760     2.035612525105
C                     0.075962208526    -4.680957500049     1.348509694431
N                     0.780839080395    -2.296655161577     1.729357522222
N                     2.241512255631    -4.739302219167     2.626081966665
O                    -0.797612452775    -5.388406718213     0.843798669299
S                    -1.445373614305    -2.562631872821     0.418615025396
S                     1.252897934840    -7.078041531949     2.079326669121
H                     0.903357574943    -0.178513185300     1.770432405484
H                     3.991074732151    -5.340458828421     3.666610233439
H                    -1.390166180490    -0.098370672605     0.414802250675
H                     3.257216115647    -7.872494373435     3.273008774487
