
  -OEChem-05262117483D

 25 26  0     0  0  0  0  0  0999 V2000
   -2.7730   -1.3806   -1.9519 C   0  0  0  0  0  0  0  0  0  0  0  0
   -4.0942   -1.8155   -2.0768 C   0  0  0  0  0  0  0  0  0  0  0  0
   -2.4672   -0.1691   -1.3221 C   0  0  0  0  0  0  0  0  0  0  0  0
   -5.1244   -1.0246   -1.5821 C   0  0  0  0  0  0  0  0  0  0  0  0
   -3.5227    0.6045   -0.8180 C   0  0  0  0  0  0  0  0  0  0  0  0
   -4.8466    0.1888   -0.9542 C   0  0  0  0  0  0  0  0  0  0  0  0
    2.3783    0.0674   -1.3222 C   0  0  0  0  0  0  0  0  0  0  0  0
    1.6073   -0.5894   -2.4635 C   0  0  0  0  0  0  0  0  0  0  0  0
    0.6853    1.4689   -2.0218 C   0  0  0  0  0  0  0  0  0  0  0  0
   -0.7761    1.5046   -1.5978 C   0  0  0  0  0  0  0  0  0  0  0  0
    1.5027    1.1234   -0.9114 O   0  0  0  0  0  0  0  0  0  0  0  0
    0.9286    0.5258   -3.0576 O   0  0  0  0  0  0  0  0  0  0  0  0
   -1.1573    0.1855   -1.1688 O   0  0  0  0  0  0  0  0  0  0  0  0
   -6.4111   -1.4153   -1.6993 F   0  0  0  0  0  0  0  0  0  0  0  0
   -3.2755    1.7661   -0.1777 F   0  0  0  0  0  0  0  0  0  0  0  0
   -5.8394    0.9503   -0.4668 F   0  0  0  0  0  0  0  0  0  0  0  0
   -1.9530   -1.9738   -2.3425 H   0  0  0  0  0  0  0  0  0  0  0  0
   -4.3369   -2.7541   -2.5642 H   0  0  0  0  0  0  0  0  0  0  0  0
    2.5453   -0.5904   -0.4662 H   0  0  0  0  0  0  0  0  0  0  0  0
    3.3361    0.4797   -1.6664 H   0  0  0  0  0  0  0  0  0  0  0  0
    2.2459   -1.0421   -3.2253 H   0  0  0  0  0  0  0  0  0  0  0  0
    0.8834   -1.3222   -2.0900 H   0  0  0  0  0  0  0  0  0  0  0  0
    0.9625    2.4616   -2.4070 H   0  0  0  0  0  0  0  0  0  0  0  0
   -1.3853    1.8126   -2.4544 H   0  0  0  0  0  0  0  0  0  0  0  0
   -0.9031    2.2243   -0.7835 H   0  0  0  0  0  0  0  0  0  0  0  0
  1  2  1  0  0  0  0
  1  3  2  0  0  0  0
  1 17  1  0  0  0  0
  2  4  2  0  0  0  0
  2 18  1  0  0  0  0
  3  5  1  0  0  0  0
  3 13  1  0  0  0  0
  4  6  1  0  0  0  0
  4 14  1  0  0  0  0
  5  6  2  0  0  0  0
  5 15  1  0  0  0  0
  6 16  1  0  0  0  0
  7  8  1  0  0  0  0
  7 11  1  0  0  0  0
  7 19  1  0  0  0  0
  7 20  1  0  0  0  0
  8 12  1  0  0  0  0
  8 21  1  0  0  0  0
  8 22  1  0  0  0  0
  9 10  1  0  0  0  0
  9 11  1  0  0  0  0
  9 12  1  0  0  0  0
  9 23  1  0  0  0  0
 10 13  1  0  0  0  0
 10 24  1  0  0  0  0
 10 25  1  0  0  0  0
M  END
$$$$
