16
0 1 C7H4N2OS2
C                     0.322900790638    -1.075513267568     1.507487112351
C                     2.514598997169    -6.961475122123     2.697236690192
C                    -0.871637666332    -0.974103080442     0.831809916169
C                     3.281116113319    -5.906451125184     3.139442192219
C                    -0.095905458235    -3.231279902277     1.251784339610
C                     1.224736811764    -5.311705370834     1.981790064469
C                     0.033927561849    -4.710498997755     1.312932819511
N                     0.749378532118    -2.355193421968     1.738065948157
N                     1.365569690356    -6.616907085925     2.050392481641
O                    -0.837891183632    -5.411595787470     0.814123898312
S                    -1.496561222233    -2.537123493934     0.464044407381
S                     2.538576471677    -4.409699880707     2.732872298492
H                     0.920076976540    -0.238827279742     1.852946944442
H                     2.760732298568    -8.010012628858     2.827447077129
H                    -1.397060560488    -0.073099640281     0.541983061038
H                     4.223484854487    -5.942766578030     3.671957521526
