25
0 1 C10F3H9O3
C                    -3.249871871519    -0.762201289698    -2.948284380971
C                    -4.562499890248    -1.071992572209    -3.309248396238
C                    -2.439301138880     0.030332321297    -3.769741553567
C                    -5.080543138321    -0.572883660450    -4.498400257837
C                    -2.978367396300     0.506048663411    -4.974072625324
C                    -4.294807374817     0.218685779083    -5.334176494786
C                     2.799972524441     1.715918167356    -2.575765410885
C                     2.328023675354     3.171881427288    -2.592433773340
C                     0.544406814374     1.690933049479    -2.520548864638
C                    -0.652267560571     1.602289876405    -3.450148893094
O                     1.656024080866     1.016532911368    -3.072918123833
O                     0.911174125607     3.065786683029    -2.373275243212
O                    -1.145393451909     0.251547297567    -3.390758339888
F                    -6.349832940524    -0.846365697364    -4.867492673189
F                    -2.230762285185     1.242466121609    -5.822490747083
F                    -4.787575881033     0.692631324914    -6.489984619876
H                    -2.824716549181    -1.134965221207    -2.022184187708
H                    -5.192786800057    -1.686900555088    -2.675101593769
H                     3.640762651960     1.510414070879    -3.240416273822
H                     3.043875439149     1.381520853646    -1.557571819719
H                     2.767804349814     3.779107117054    -1.796168452282
H                     2.511883127429     3.648826682930    -3.562029232341
H                     0.299409799324     1.275901844991    -1.529938307489
H                    -0.345639964014     1.866542295459    -4.464587506275
H                    -1.420278760950     2.301090243406    -3.102171854972
