
  -OEChem-05262117483D

 27 29  0     0  0  0  0  0  0999 V2000
    7.0911   -6.4520   -0.2595 C   0  0  0  0  0  0  0  0  0  0  0  0
    8.0246   -6.5419   -1.2964 C   0  0  0  0  0  0  0  0  0  0  0  0
    6.3535   -5.2832   -0.0976 C   0  0  0  0  0  0  0  0  0  0  0  0
    2.0333   -2.4364    1.2912 C   0  0  0  0  0  0  0  0  0  0  0  0
    0.8397   -2.1553    1.9414 C   0  0  0  0  0  0  0  0  0  0  0  0
    8.2064   -5.4638   -2.1633 C   0  0  0  0  0  0  0  0  0  0  0  0
    1.3005    0.2181    1.6975 C   0  0  0  0  0  0  0  0  0  0  0  0
    2.8891   -1.4166    0.8248 C   0  0  0  0  0  0  0  0  0  0  0  0
    6.5272   -4.1744   -0.9507 C   0  0  0  0  0  0  0  0  0  0  0  0
    0.4811   -0.8184    2.1384 C   0  0  0  0  0  0  0  0  0  0  0  0
    2.5001   -0.0794    1.0438 C   0  0  0  0  0  0  0  0  0  0  0  0
    7.4662   -4.2897   -1.9945 C   0  0  0  0  0  0  0  0  0  0  0  0
    5.6975   -2.9893   -0.6662 C   0  0  0  0  0  0  0  0  0  0  0  0
    4.1153   -1.8585    0.1549 C   0  0  0  0  0  0  0  0  0  0  0  0
    4.5462   -3.0929    0.0929 N   0  0  0  0  0  0  0  0  0  0  0  0
    5.9720   -1.7566   -1.0472 N   0  0  0  0  0  0  0  0  0  0  0  0
    4.9169   -1.0000   -0.5048 O   0  0  0  0  0  0  0  0  0  0  0  0
   -1.0179   -0.4343    2.9514 Cl  0  0  0  0  0  0  0  0  0  0  0  0
    3.4705    1.2836    0.5445 Cl  0  0  0  0  0  0  0  0  0  0  0  0
    7.7789   -2.9030   -3.2757 Br  0  0  0  0  0  0  0  0  0  0  0  0
    6.9389   -7.2871    0.4182 H   0  0  0  0  0  0  0  0  0  0  0  0
    8.6085   -7.4473   -1.4378 H   0  0  0  0  0  0  0  0  0  0  0  0
    5.6224   -5.2000    0.6990 H   0  0  0  0  0  0  0  0  0  0  0  0
    2.3336   -3.4648    1.1232 H   0  0  0  0  0  0  0  0  0  0  0  0
    0.1939   -2.9548    2.2885 H   0  0  0  0  0  0  0  0  0  0  0  0
    8.9202   -5.5292   -2.9776 H   0  0  0  0  0  0  0  0  0  0  0  0
    1.0170    1.2519    1.8591 H   0  0  0  0  0  0  0  0  0  0  0  0
  1  2  1  0  0  0  0
  1  3  2  0  0  0  0
  1 21  1  0  0  0  0
  2  6  2  0  0  0  0
  2 22  1  0  0  0  0
  3  9  1  0  0  0  0
  3 23  1  0  0  0  0
  4  5  2  0  0  0  0
  4  8  1  0  0  0  0
  4 24  1  0  0  0  0
  5 10  1  0  0  0  0
  5 25  1  0  0  0  0
  6 12  1  0  0  0  0
  6 26  1  0  0  0  0
  7 10  2  0  0  0  0
  7 11  1  0  0  0  0
  7 27  1  0  0  0  0
  8 11  2  0  0  0  0
  8 14  1  0  0  0  0
  9 12  2  0  0  0  0
  9 13  1  0  0  0  0
 10 18  1  0  0  0  0
 11 19  1  0  0  0  0
 12 20  1  0  0  0  0
 13 15  1  0  0  0  0
 13 16  2  0  0  0  0
 14 15  2  0  0  0  0
 14 17  1  0  0  0  0
 16 17  1  0  0  0  0
M  END
$$$$
