27
0 1 BrC14Cl2H7N2O
C                     7.269344004371    -6.481924404274    -0.562148491090
C                     8.429668646371    -6.345873954140    -1.329897018485
C                     6.417687021743    -5.393785518804    -0.402540352145
C                     2.375638135877    -0.409716783596     0.680518929529
C                     1.217574086003     0.066949823202     1.281034440593
C                     8.724313665297    -5.121709569240    -1.930404279676
C                     0.657641931949    -2.205051755312     1.934655647053
C                     2.713044721630    -1.779172095208     0.687981360095
C                     6.691157369133    -4.143615862909    -0.997647000061
C                     0.363264279809    -0.843340497086     1.908650492476
C                     1.826724610247    -2.671936362618     1.327576131908
C                     7.866028923318    -4.029704684405    -1.768443238932
C                     5.707646205816    -3.073875606494    -0.748563159996
C                     3.958881749697    -2.182534450065     0.034044377719
N                     4.585367203886    -3.324831723157     0.027417158128
N                     5.772628601066    -1.835508539186    -1.199330706957
O                     4.611108865254    -1.234220693983    -0.683933985242
Cl                   -1.100915557007    -0.272419015150     2.673776872707
Cl                    2.101586868329    -4.393011991613     1.395928766853
Br                    8.392999454435    -2.415762177651    -2.650835675348
H                     7.029177049019    -7.430324834292    -0.090260947183
H                     9.106210555157    -7.185438650117    -1.464777203802
H                     5.514072552432    -5.483094042260     0.189511562112
H                     3.047609758057     0.287147181113     0.192140916670
H                     0.979373828338     1.125041534516     1.265993197517
H                     9.621874490196    -5.006319007051    -2.528615462117
H                    -0.013639129847    -2.904606691972     2.419697234641
