
  -OEChem-05262117483D

 19 19  0     0  0  0  0  0  0999 V2000
    1.8698   -1.1096   -0.1739 C   0  0  0  0  0  0  0  0  0  0  0  0
    0.6701   -0.8544    0.4929 C   0  0  0  0  0  0  0  0  0  0  0  0
    3.0108   -1.2792    1.9737 C   0  0  0  0  0  0  0  0  0  0  0  0
    1.8079   -1.0328    2.6550 C   0  0  0  0  0  0  0  0  0  0  0  0
    3.0175   -1.3177    0.5865 C   0  0  0  0  0  0  0  0  0  0  0  0
    0.6614   -0.8231    1.8832 C   0  0  0  0  0  0  0  0  0  0  0  0
    1.7560   -1.0452    4.1451 C   0  0  0  0  0  0  0  0  0  0  0  0
    0.8231   -2.0096    4.8311 C   0  0  0  0  0  0  0  0  0  0  0  0
    2.4918   -0.3186    4.9096 N   0  0  0  0  0  0  0  0  0  0  0  0
    3.3369    0.5558    4.1948 O   0  0  0  0  0  0  0  0  0  0  0  0
    4.1893   -1.5658   -0.0543 F   0  0  0  0  0  0  0  0  0  0  0  0
   -0.5178   -0.5574    2.5077 F   0  0  0  0  0  0  0  0  0  0  0  0
    1.9211   -1.1447   -1.2573 H   0  0  0  0  0  0  0  0  0  0  0  0
   -0.2528   -0.6768   -0.0501 H   0  0  0  0  0  0  0  0  0  0  0  0
    3.9325   -1.4343    2.5228 H   0  0  0  0  0  0  0  0  0  0  0  0
    1.0474   -3.0367    4.5216 H   0  0  0  0  0  0  0  0  0  0  0  0
    0.9347   -1.9284    5.9140 H   0  0  0  0  0  0  0  0  0  0  0  0
   -0.2159   -1.8039    4.5596 H   0  0  0  0  0  0  0  0  0  0  0  0
    3.7844    1.0351    4.9110 H   0  0  0  0  0  0  0  0  0  0  0  0
  1  2  1  0  0  0  0
  1  5  2  0  0  0  0
  1 13  1  0  0  0  0
  2  6  2  0  0  0  0
  2 14  1  0  0  0  0
  3  4  2  0  0  0  0
  3  5  1  0  0  0  0
  3 15  1  0  0  0  0
  4  6  1  0  0  0  0
  4  7  1  0  0  0  0
  5 11  1  0  0  0  0
  6 12  1  0  0  0  0
  7  8  1  0  0  0  0
  7  9  2  0  0  0  0
  8 16  1  0  0  0  0
  8 17  1  0  0  0  0
  8 18  1  0  0  0  0
  9 10  1  0  0  0  0
 10 19  1  0  0  0  0
M  END
$$$$
