
  -OEChem-05262117483D

 25 26  0     0  0  0  0  0  0999 V2000
   -3.2499   -0.7622   -2.9483 C   0  0  0  0  0  0  0  0  0  0  0  0
   -4.5625   -1.0720   -3.3092 C   0  0  0  0  0  0  0  0  0  0  0  0
   -2.4393    0.0303   -3.7697 C   0  0  0  0  0  0  0  0  0  0  0  0
   -5.0805   -0.5729   -4.4984 C   0  0  0  0  0  0  0  0  0  0  0  0
   -2.9784    0.5060   -4.9741 C   0  0  0  0  0  0  0  0  0  0  0  0
   -4.2948    0.2187   -5.3342 C   0  0  0  0  0  0  0  0  0  0  0  0
    2.8000    1.7159   -2.5758 C   0  0  0  0  0  0  0  0  0  0  0  0
    2.3280    3.1719   -2.5924 C   0  0  0  0  0  0  0  0  0  0  0  0
    0.5444    1.6909   -2.5205 C   0  0  0  0  0  0  0  0  0  0  0  0
   -0.6523    1.6023   -3.4501 C   0  0  0  0  0  0  0  0  0  0  0  0
    1.6560    1.0165   -3.0729 O   0  0  0  0  0  0  0  0  0  0  0  0
    0.9112    3.0658   -2.3733 O   0  0  0  0  0  0  0  0  0  0  0  0
   -1.1454    0.2515   -3.3908 O   0  0  0  0  0  0  0  0  0  0  0  0
   -6.3498   -0.8464   -4.8675 F   0  0  0  0  0  0  0  0  0  0  0  0
   -2.2308    1.2425   -5.8225 F   0  0  0  0  0  0  0  0  0  0  0  0
   -4.7876    0.6926   -6.4900 F   0  0  0  0  0  0  0  0  0  0  0  0
   -2.8247   -1.1350   -2.0222 H   0  0  0  0  0  0  0  0  0  0  0  0
   -5.1928   -1.6869   -2.6751 H   0  0  0  0  0  0  0  0  0  0  0  0
    3.6408    1.5104   -3.2404 H   0  0  0  0  0  0  0  0  0  0  0  0
    3.0439    1.3815   -1.5576 H   0  0  0  0  0  0  0  0  0  0  0  0
    2.7678    3.7791   -1.7962 H   0  0  0  0  0  0  0  0  0  0  0  0
    2.5119    3.6488   -3.5620 H   0  0  0  0  0  0  0  0  0  0  0  0
    0.2994    1.2759   -1.5299 H   0  0  0  0  0  0  0  0  0  0  0  0
   -0.3456    1.8665   -4.4646 H   0  0  0  0  0  0  0  0  0  0  0  0
   -1.4203    2.3011   -3.1022 H   0  0  0  0  0  0  0  0  0  0  0  0
  1  2  1  0  0  0  0
  1  3  2  0  0  0  0
  1 17  1  0  0  0  0
  2  4  2  0  0  0  0
  2 18  1  0  0  0  0
  3  5  1  0  0  0  0
  3 13  1  0  0  0  0
  4  6  1  0  0  0  0
  4 14  1  0  0  0  0
  5  6  2  0  0  0  0
  5 15  1  0  0  0  0
  6 16  1  0  0  0  0
  7  8  1  0  0  0  0
  7 11  1  0  0  0  0
  7 19  1  0  0  0  0
  7 20  1  0  0  0  0
  8 12  1  0  0  0  0
  8 21  1  0  0  0  0
  8 22  1  0  0  0  0
  9 10  1  0  0  0  0
  9 11  1  0  0  0  0
  9 12  1  0  0  0  0
  9 23  1  0  0  0  0
 10 13  1  0  0  0  0
 10 24  1  0  0  0  0
 10 25  1  0  0  0  0
M  END
$$$$
