
  -OEChem-05262117483D

 20 20  0     0  0  0  0  0  0999 V2000
    2.0172   -4.9010   -1.7745 C   0  0  0  0  0  0  0  0  0  0  0  0
    1.2232   -1.7966   -0.1895 C   0  0  0  0  0  0  0  0  0  0  0  0
    0.1747   -1.2166    0.5282 C   0  0  0  0  0  0  0  0  0  0  0  0
    1.3840   -1.6119    2.6014 C   0  0  0  0  0  0  0  0  0  0  0  0
    2.3587   -2.2839    0.4638 C   0  0  0  0  0  0  0  0  0  0  0  0
    2.4154   -2.1730    1.8590 C   0  0  0  0  0  0  0  0  0  0  0  0
    0.2629   -1.1332    1.9192 C   0  0  0  0  0  0  0  0  0  0  0  0
    2.5225   -5.1029   -0.4110 C   0  0  0  0  0  0  0  0  0  0  0  0
    3.7066   -4.1804   -0.0774 C   0  0  0  0  0  0  0  0  0  0  0  0
    1.6175   -4.7212   -2.8513 N   0  0  0  0  0  0  0  0  0  0  0  0
    3.3983   -2.7955   -0.2778 O   0  0  0  0  0  0  0  0  0  0  0  0
    3.5135   -2.6303    2.5122 F   0  0  0  0  0  0  0  0  0  0  0  0
   -1.0491   -0.4160    2.8341 Cl  0  0  0  0  0  0  0  0  0  0  0  0
    1.1773   -1.8834   -1.2708 H   0  0  0  0  0  0  0  0  0  0  0  0
   -0.7025   -0.8399    0.0130 H   0  0  0  0  0  0  0  0  0  0  0  0
    1.4701   -1.5444    3.6807 H   0  0  0  0  0  0  0  0  0  0  0  0
    1.6980   -4.9354    0.2895 H   0  0  0  0  0  0  0  0  0  0  0  0
    2.8394   -6.1453   -0.2975 H   0  0  0  0  0  0  0  0  0  0  0  0
    4.5449   -4.3775   -0.7474 H   0  0  0  0  0  0  0  0  0  0  0  0
    4.0232   -4.3656    0.9535 H   0  0  0  0  0  0  0  0  0  0  0  0
  1  8  1  0  0  0  0
  1 10  3  0  0  0  0
  2  3  1  0  0  0  0
  2  5  2  0  0  0  0
  2 14  1  0  0  0  0
  3  7  2  0  0  0  0
  3 15  1  0  0  0  0
  4  6  2  0  0  0  0
  4  7  1  0  0  0  0
  4 16  1  0  0  0  0
  5  6  1  0  0  0  0
  5 11  1  0  0  0  0
  6 12  1  0  0  0  0
  7 13  1  0  0  0  0
  8  9  1  0  0  0  0
  8 17  1  0  0  0  0
  8 18  1  0  0  0  0
  9 11  1  0  0  0  0
  9 19  1  0  0  0  0
  9 20  1  0  0  0  0
M  END
$$$$
