41
0 1 C13H24N2O2
C                     0.138934862816    -1.086943426526     1.018429741788
C                     0.004646308204     0.899374939630    -2.983227222217
C                     0.303527681749     2.310485615445    -2.407343365112
C                     0.042440028171    -0.068109091718    -1.780842067358
C                     0.486444277621     2.112226145486    -0.889537011398
C                    -1.580383987800     1.492722724208     1.959736413711
C                    -0.078817516461     1.210993095333     1.865185400422
C                    -1.794676246632     1.064935422593    -0.425589332319
C                    -0.278692686154     0.807171753330    -0.551970222535
C                     1.547889797677    -3.505766005323     2.182897714345
C                     0.713439737027    -2.503636487988     4.334671680541
C                    -0.948368854014    -3.382150690461     2.662863629925
C                     0.417698643929    -2.713748119854     2.847225070086
N                    -2.060001546021     2.005870913745     0.671475571463
N                     0.182306274628     0.268591534594     0.760035563170
O                    -0.058028810907    -1.966327045989     0.188966668339
O                     0.387025447840    -1.334626338718     2.336570681072
H                    -0.977976064946     0.878818601080    -3.465607117229
H                     0.729972794161     0.601798601755    -3.746013422069
H                     1.193451780984     2.761522873446    -2.855635325829
H                    -0.526878295530     2.995207984770    -2.606294686648
H                    -0.637792558278    -0.911454557778    -1.888904832247
H                     1.045247320969    -0.485249236726    -1.655103614151
H                     1.542315661903     1.953258919520    -0.643266552557
H                     0.126101008389     2.970394013387    -0.321054835315
H                    -2.088301736869     0.558268934206     2.263197710178
H                    -1.767919067738     2.245813778423     2.733324258164
H                     0.462948259123     2.137682860801     1.667244373434
H                     0.294956148667     0.791569238446     2.794898381754
H                    -2.182493613460     1.500284724758    -1.351648625475
H                    -2.286520285554     0.086930199983    -0.280259706878
H                     1.345087828208    -3.672252754784     1.125051789970
H                     2.495728955886    -2.966998071555     2.282631785574
H                     1.653604026479    -4.475600366667     2.680705617473
H                    -0.073000954023    -1.903614392339     4.802769786443
H                     1.668558135236    -1.986778422239     4.467674011733
H                     0.765760837248    -3.468339899472     4.848129486372
H                    -1.736391679088    -2.757207343333     3.096248726827
H                    -1.168393001639    -3.549762682344     1.608647384956
H                    -0.954884300794    -4.345763346004     3.183194055987
H                    -3.058250580411     2.192292091531     0.725437121037
