
  -OEChem-05262117483D

 19 19  0     0  0  0  0  0  0999 V2000
    4.1234   -2.1390    2.5912 C   0  0  0  0  0  0  0  0  0  0  0  0
    1.6957   -1.3976   -0.1982 C   0  0  0  0  0  0  0  0  0  0  0  0
    0.7295   -0.6762    0.5009 C   0  0  0  0  0  0  0  0  0  0  0  0
    2.0269   -0.9438    2.5375 C   0  0  0  0  0  0  0  0  0  0  0  0
    2.9973   -1.6702    1.8263 C   0  0  0  0  0  0  0  0  0  0  0  0
    2.8348   -1.9027    0.4428 C   0  0  0  0  0  0  0  0  0  0  0  0
    0.9068   -0.4561    1.8686 C   0  0  0  0  0  0  0  0  0  0  0  0
    3.8627   -2.6735   -0.3183 C   0  0  0  0  0  0  0  0  0  0  0  0
    4.4907   -3.5363   -2.4230 C   0  0  0  0  0  0  0  0  0  0  0  0
    4.9639   -2.4482    3.3357 N   0  0  0  0  0  0  0  0  0  0  0  0
    4.8750   -3.1363    0.1696 O   0  0  0  0  0  0  0  0  0  0  0  0
    3.5367   -2.7999   -1.6258 O   0  0  0  0  0  0  0  0  0  0  0  0
   -0.4061    0.5298    2.8431 Br  0  0  0  0  0  0  0  0  0  0  0  0
    1.5697   -1.5752   -1.2597 H   0  0  0  0  0  0  0  0  0  0  0  0
   -0.1475   -0.2910   -0.0087 H   0  0  0  0  0  0  0  0  0  0  0  0
    2.1597   -0.7703    3.5994 H   0  0  0  0  0  0  0  0  0  0  0  0
    4.0789   -3.5441   -3.4316 H   0  0  0  0  0  0  0  0  0  0  0  0
    4.5984   -4.5531   -2.0395 H   0  0  0  0  0  0  0  0  0  0  0  0
    5.4626   -3.0386   -2.4042 H   0  0  0  0  0  0  0  0  0  0  0  0
  1  5  1  0  0  0  0
  1 10  3  0  0  0  0
  2  3  1  0  0  0  0
  2  6  2  0  0  0  0
  2 14  1  0  0  0  0
  3  7  2  0  0  0  0
  3 15  1  0  0  0  0
  4  5  2  0  0  0  0
  4  7  1  0  0  0  0
  4 16  1  0  0  0  0
  5  6  1  0  0  0  0
  6  8  1  0  0  0  0
  7 13  1  0  0  0  0
  8 11  2  0  0  0  0
  8 12  1  0  0  0  0
  9 12  1  0  0  0  0
  9 17  1  0  0  0  0
  9 18  1  0  0  0  0
  9 19  1  0  0  0  0
M  END
$$$$
