
  -OEChem-05262117483D

 20 20  0     0  0  0  0  0  0999 V2000
    6.0778   -1.4101   -2.8841 C   0  0  0  0  0  0  0  0  0  0  0  0
    2.3689   -1.0290   -0.6720 C   0  0  0  0  0  0  0  0  0  0  0  0
    1.3100   -0.3898   -0.0243 C   0  0  0  0  0  0  0  0  0  0  0  0
    2.4329   -0.7042    2.1095 C   0  0  0  0  0  0  0  0  0  0  0  0
    3.4619   -1.5187    0.0484 C   0  0  0  0  0  0  0  0  0  0  0  0
    3.4642   -1.3492    1.4382 C   0  0  0  0  0  0  0  0  0  0  0  0
    1.3537   -0.2283    1.3621 C   0  0  0  0  0  0  0  0  0  0  0  0
    6.5816   -2.1070   -1.6926 C   0  0  0  0  0  0  0  0  0  0  0  0
    5.7997   -1.7281   -0.4337 C   0  0  0  0  0  0  0  0  0  0  0  0
    5.6714   -0.8413   -3.8129 N   0  0  0  0  0  0  0  0  0  0  0  0
    4.4536   -2.1880   -0.6240 O   0  0  0  0  0  0  0  0  0  0  0  0
    4.5082   -1.8350    2.1587 F   0  0  0  0  0  0  0  0  0  0  0  0
    0.0361    0.5828    2.1870 Cl  0  0  0  0  0  0  0  0  0  0  0  0
    2.3683   -1.1567   -1.7502 H   0  0  0  0  0  0  0  0  0  0  0  0
    0.4656   -0.0127   -0.5913 H   0  0  0  0  0  0  0  0  0  0  0  0
    2.4760   -0.5948    3.1878 H   0  0  0  0  0  0  0  0  0  0  0  0
    6.5099   -3.1863   -1.8584 H   0  0  0  0  0  0  0  0  0  0  0  0
    7.6395   -1.8592   -1.5562 H   0  0  0  0  0  0  0  0  0  0  0  0
    5.8106   -0.6437   -0.2830 H   0  0  0  0  0  0  0  0  0  0  0  0
    6.2485   -2.2133    0.4380 H   0  0  0  0  0  0  0  0  0  0  0  0
  1  8  1  0  0  0  0
  1 10  3  0  0  0  0
  2  3  1  0  0  0  0
  2  5  2  0  0  0  0
  2 14  1  0  0  0  0
  3  7  2  0  0  0  0
  3 15  1  0  0  0  0
  4  6  2  0  0  0  0
  4  7  1  0  0  0  0
  4 16  1  0  0  0  0
  5  6  1  0  0  0  0
  5 11  1  0  0  0  0
  6 12  1  0  0  0  0
  7 13  1  0  0  0  0
  8  9  1  0  0  0  0
  8 17  1  0  0  0  0
  8 18  1  0  0  0  0
  9 11  1  0  0  0  0
  9 19  1  0  0  0  0
  9 20  1  0  0  0  0
M  END
$$$$
