41
0 1 C13H24N2O2
C                     0.802293691967    -1.488415967853     0.870152683951
C                    -0.462098289395     0.381632232462    -3.134747062125
C                    -0.434393359409     1.815574909919    -2.539939229997
C                    -0.006863460173    -0.557302878873    -1.997759505540
C                     0.001549335621     1.649573855177    -1.070992300278
C                    -1.457976678675     0.524928108172     1.981170609626
C                     0.041115936830     0.629640022420     1.694069361096
C                    -1.862509224265     0.054257724767    -0.369040598320
C                    -0.359024638999     0.188316425966    -0.693623267595
C                     0.435073669631    -4.499417103598     0.986437693212
C                     1.056577333139    -4.290696869122    -1.442615764938
C                     2.760042314987    -3.711021293258     0.316130687909
C                     1.269974991439    -3.723347291024    -0.036473406951
N                    -2.212878275674     0.899020840699     0.778273909741
N                     0.387244675375    -0.213939705100     0.534588343988
O                     1.186551093194    -1.795726668687     1.995745340657
O                     0.764185540193    -2.347988108025    -0.174600337877
H                    -1.470754159853     0.121006868096    -3.470991749353
H                     0.190498858618     0.281813297083    -4.006914434845
H                     0.249822783122     2.474726097607    -3.081804871904
H                    -1.424345212642     2.278629755916    -2.596580241918
H                    -0.466428789932    -1.543229767908    -2.059640827084
H                     1.075545536794    -0.703577911153    -2.034159478569
H                     1.086993042181     1.760882053315    -0.971552049404
H                    -0.479831028309     2.379697845851    -0.420057615390
H                    -1.673187282223    -0.506026586137     2.315257296313
H                    -1.727462803219     1.207508124727     2.794595994020
H                     0.314465832903     1.663324122821     1.475130407759
H                     0.620560913141     0.290042775308     2.549637524238
H                    -2.464049899756     0.372779272356    -1.226075984656
H                    -2.068041938645    -1.017489483845    -0.192468265692
H                     0.588518926112    -4.115266363329     1.994658717589
H                    -0.628845785636    -4.428684621150     0.736946810037
H                     0.720158461941    -5.556589671139     0.961192796951
H                     1.614077521028    -3.708350694629    -2.182092788182
H                    -0.003762725140    -4.266180782174    -1.711706244849
H                     1.400779993640    -5.328385787946    -1.485133121774
H                     3.313916495959    -3.098527856031    -0.402857498631
H                     2.925943879122    -3.317090971837     1.318812893798
H                     3.153323219552    -4.731971453183     0.267080749533
H                    -3.210641165545     0.827226257255     0.961335463127
