40
0 1 C19ClH15N4S
C                    -2.420151464484     0.041975923882     4.691895190819
C                    -2.156727445895    -8.658408088651     0.539048434732
C                    -2.150872496942    -8.004540634869    -0.698232734482
C                    -1.799675579537    -7.959757891560     1.696644268610
C                    -1.805714851496    -6.654676775955    -0.780428063163
C                    -1.439188061890    -6.612194921617     1.624479451622
C                    -1.374784771720    -0.912084749626     4.526681869272
C                    -0.888194245393    -2.386576154736     0.524616877887
C                    -0.824735642379    -1.699062973595     5.589318302641
C                    -1.459008166769    -5.964376111522     0.385478366514
C                     0.187622002587    -2.516817016988     5.181471911771
C                    -0.142007900714    -2.869047274608    -0.595251356716
C                    -0.781462054266    -1.183003039373     3.294727196774
C                    -1.498937047988    -3.529818458949     1.037715811610
C                    -1.022998932997    -0.993929895288     0.947653014834
C                    -1.097783865108    -1.859199776448     7.062642549204
C                     0.765183795959    -3.352195169798     6.291321736963
C                     0.153603369340    -2.654285164621     7.547131067231
C                     0.723452087359    -2.075909755997    -1.524080188764
N                    -3.279057867975     0.810757066519     4.871930025188
N                    -0.258832025134    -4.186748642258    -0.725118334101
N                    -1.056829353786    -0.499187071233     2.136726621706
N                    -1.095653159528    -4.590426550778     0.284654682366
S                     0.491336811981    -2.410218056808     3.475423687868
Cl                   -2.682883573286    -3.646873622139     2.276186751113
H                    -2.431429082818    -9.707890293127     0.599399730332
H                    -2.421047266250    -8.544442045055    -1.601526839910
H                    -1.786923408905    -8.465930858697     2.657894274909
H                    -1.793646409571    -6.132121053887    -1.730919293507
H                    -1.133498156767    -6.075104701862     2.515937640883
H                    -1.123370175922    -0.265502965346     0.139366708462
H                    -1.210419954080    -0.904134862181     7.584591574892
H                    -2.025841982299    -2.422360424790     7.223087973498
H                     0.437956494780    -4.396876789745     6.206005104130
H                     1.859750692259    -3.358021283885     6.312844257847
H                     0.887392420208    -1.950296908293     7.950309236668
H                    -0.086827407310    -3.368659772568     8.338787598749
H                     1.544514250335    -1.593232410475    -0.983992402364
H                     1.145947770329    -2.733274314419    -2.286682885835
H                     0.149013503177    -1.287104992217    -2.022316397343
