
  -OEChem-05262117483D

 29 30  0     0  0  0  0  0  0999 V2000
    2.4251   -3.7123    2.2360 C   0  0  0  0  0  0  0  0  0  0  0  0
   -4.6105    1.6493    2.6271 C   0  0  0  0  0  0  0  0  0  0  0  0
    1.4360   -3.5761    3.2398 C   0  0  0  0  0  0  0  0  0  0  0  0
   -2.6807    0.5203    1.6613 C   0  0  0  0  0  0  0  0  0  0  0  0
   -3.0667    1.6947    1.0344 C   0  0  0  0  0  0  0  0  0  0  0  0
    0.2951   -2.8054    3.1456 C   0  0  0  0  0  0  0  0  0  0  0  0
    0.3699   -3.7934    5.0861 C   0  0  0  0  0  0  0  0  0  0  0  0
   -1.5889   -0.4081    1.3678 C   0  0  0  0  0  0  0  0  0  0  0  0
   -2.4117    2.3800   -0.1352 C   0  0  0  0  0  0  0  0  0  0  0  0
   -0.1496   -4.1002    6.4433 C   0  0  0  0  0  0  0  0  0  0  0  0
   -1.0230   -0.5254   -0.0292 C   0  0  0  0  0  0  0  0  0  0  0  0
    3.1900   -3.7644    1.3541 N   0  0  0  0  0  0  0  0  0  0  0  0
   -4.1662    2.3155    1.5960 N   0  0  0  0  0  0  0  0  0  0  0  0
    1.4456   -4.1972    4.4979 N   0  0  0  0  0  0  0  0  0  0  0  0
   -1.1960   -1.1483    2.3584 N   0  0  0  0  0  0  0  0  0  0  0  0
   -0.2073   -2.0612    2.1173 N   0  0  0  0  0  0  0  0  0  0  0  0
   -0.3967   -2.9259    4.3000 O   0  0  0  0  0  0  0  0  0  0  0  0
   -3.7338    0.2080    3.0257 S   0  0  0  0  0  0  0  0  0  0  0  0
   -5.4650    1.9637    3.2178 H   0  0  0  0  0  0  0  0  0  0  0  0
   -2.8197    2.0270   -1.0898 H   0  0  0  0  0  0  0  0  0  0  0  0
   -2.6166    3.4507   -0.0701 H   0  0  0  0  0  0  0  0  0  0  0  0
   -1.3299    2.2343   -0.1505 H   0  0  0  0  0  0  0  0  0  0  0  0
   -0.2440   -3.1872    7.0402 H   0  0  0  0  0  0  0  0  0  0  0  0
   -1.1375   -4.5687    6.3880 H   0  0  0  0  0  0  0  0  0  0  0  0
    0.5441   -4.7815    6.9368 H   0  0  0  0  0  0  0  0  0  0  0  0
   -0.0112   -0.1056   -0.0979 H   0  0  0  0  0  0  0  0  0  0  0  0
   -0.9690   -1.5808   -0.3219 H   0  0  0  0  0  0  0  0  0  0  0  0
   -1.6460   -0.0178   -0.7616 H   0  0  0  0  0  0  0  0  0  0  0  0
    0.4022   -1.9763    1.3065 H   0  0  0  0  0  0  0  0  0  0  0  0
  1  3  1  0  0  0  0
  1 12  3  0  0  0  0
  2 13  2  0  0  0  0
  2 18  1  0  0  0  0
  2 19  1  0  0  0  0
  3  6  2  0  0  0  0
  3 14  1  0  0  0  0
  4  5  2  0  0  0  0
  4  8  1  0  0  0  0
  4 18  1  0  0  0  0
  5  9  1  0  0  0  0
  5 13  1  0  0  0  0
  6 16  1  0  0  0  0
  6 17  1  0  0  0  0
  7 10  1  0  0  0  0
  7 14  2  0  0  0  0
  7 17  1  0  0  0  0
  8 11  1  0  0  0  0
  8 15  2  0  0  0  0
  9 20  1  0  0  0  0
  9 21  1  0  0  0  0
  9 22  1  0  0  0  0
 10 23  1  0  0  0  0
 10 24  1  0  0  0  0
 10 25  1  0  0  0  0
 11 26  1  0  0  0  0
 11 27  1  0  0  0  0
 11 28  1  0  0  0  0
 15 16  1  0  0  0  0
 16 29  1  0  0  0  0
M  END
$$$$
