
  -OEChem-05262117483D

 29 30  0     0  0  0  0  0  0999 V2000
    1.2737    0.8975    1.3477 C   0  0  0  0  0  0  0  0  0  0  0  0
   -4.2424    1.4160    2.8084 C   0  0  0  0  0  0  0  0  0  0  0  0
    1.8945   -0.3671    1.1872 C   0  0  0  0  0  0  0  0  0  0  0  0
   -2.5120    0.4341    1.4158 C   0  0  0  0  0  0  0  0  0  0  0  0
   -2.9763    1.6751    1.0049 C   0  0  0  0  0  0  0  0  0  0  0  0
    1.3188   -1.6210    1.1297 C   0  0  0  0  0  0  0  0  0  0  0  0
    3.4973   -1.7803    0.9403 C   0  0  0  0  0  0  0  0  0  0  0  0
   -1.4703   -0.4221    0.8541 C   0  0  0  0  0  0  0  0  0  0  0  0
   -2.4819    2.5118   -0.1429 C   0  0  0  0  0  0  0  0  0  0  0  0
    4.7715   -2.5282    0.7831 C   0  0  0  0  0  0  0  0  0  0  0  0
   -1.0735   -0.2660   -0.5917 C   0  0  0  0  0  0  0  0  0  0  0  0
    0.7478    1.9351    1.4458 N   0  0  0  0  0  0  0  0  0  0  0  0
   -3.9652    2.2093    1.8076 N   0  0  0  0  0  0  0  0  0  0  0  0
    3.2895   -0.5144    1.0571 N   0  0  0  0  0  0  0  0  0  0  0  0
   -0.9910   -1.3127    1.6687 N   0  0  0  0  0  0  0  0  0  0  0  0
    0.0425   -2.1342    1.1381 N   0  0  0  0  0  0  0  0  0  0  0  0
    2.3209   -2.5319    0.9744 O   0  0  0  0  0  0  0  0  0  0  0  0
   -3.3238   -0.0482    2.8893 S   0  0  0  0  0  0  0  0  0  0  0  0
   -4.9964    1.6431    3.5556 H   0  0  0  0  0  0  0  0  0  0  0  0
   -2.7236    2.0680   -1.1136 H   0  0  0  0  0  0  0  0  0  0  0  0
   -2.9626    3.4898   -0.0879 H   0  0  0  0  0  0  0  0  0  0  0  0
   -1.3987    2.6500   -0.0871 H   0  0  0  0  0  0  0  0  0  0  0  0
    4.9160   -3.2332    1.6082 H   0  0  0  0  0  0  0  0  0  0  0  0
    4.7792   -3.0980   -0.1517 H   0  0  0  0  0  0  0  0  0  0  0  0
    5.5956   -1.8142    0.7744 H   0  0  0  0  0  0  0  0  0  0  0  0
   -0.4141    0.5929   -0.7319 H   0  0  0  0  0  0  0  0  0  0  0  0
   -0.5556   -1.1633   -0.9335 H   0  0  0  0  0  0  0  0  0  0  0  0
   -1.9637   -0.1078   -1.2038 H   0  0  0  0  0  0  0  0  0  0  0  0
    0.0107   -3.0430    1.5942 H   0  0  0  0  0  0  0  0  0  0  0  0
  1  3  1  0  0  0  0
  1 12  3  0  0  0  0
  2 13  2  0  0  0  0
  2 18  1  0  0  0  0
  2 19  1  0  0  0  0
  3  6  2  0  0  0  0
  3 14  1  0  0  0  0
  4  5  2  0  0  0  0
  4  8  1  0  0  0  0
  4 18  1  0  0  0  0
  5  9  1  0  0  0  0
  5 13  1  0  0  0  0
  6 16  1  0  0  0  0
  6 17  1  0  0  0  0
  7 10  1  0  0  0  0
  7 14  2  0  0  0  0
  7 17  1  0  0  0  0
  8 11  1  0  0  0  0
  8 15  2  0  0  0  0
  9 20  1  0  0  0  0
  9 21  1  0  0  0  0
  9 22  1  0  0  0  0
 10 23  1  0  0  0  0
 10 24  1  0  0  0  0
 10 25  1  0  0  0  0
 11 26  1  0  0  0  0
 11 27  1  0  0  0  0
 11 28  1  0  0  0  0
 15 16  1  0  0  0  0
 16 29  1  0  0  0  0
M  END
$$$$
