41
0 1 C13H24N2O2
C                     0.914915604282    -0.567825292535    -1.122150602372
C                    -1.214942688822     1.079360105426     2.888214411852
C                    -1.218881725225    -0.471127470804     2.805692411495
C                    -0.446500595315     1.556287025078     1.640345814264
C                    -0.455142561884    -0.831068866987     1.512926186226
C                    -1.072842605438     1.860791811379    -1.875224611789
C                     0.309404448678     1.812484816640    -1.205242563627
C                    -1.968827164888     0.447240183969    -0.101593303608
C                    -0.591042138304     0.410316865261     0.606525445438
C                     1.221617730157    -2.108335740469    -3.707704865594
C                     2.999250480610    -0.375294795603    -4.113858418567
C                     3.309883482975    -2.041711795176    -2.254225510571
C                     2.291312001072    -1.226335720706    -3.056270568626
N                    -2.188717536515     1.624679258353    -0.950423283990
N                     0.446831712080     0.547858647903    -0.455652471752
O                     0.723957308718    -1.730546795085    -0.787810286339
O                     1.663953669074    -0.205241455243    -2.202034900159
H                    -2.237652664603     1.470242440199     2.884006516383
H                    -0.744994103132     1.447293257555     3.804626809749
H                    -0.747744792732    -0.931645785218     3.678667980693
H                    -2.244185256725    -0.852389882481     2.768491205958
H                    -0.811292101721     2.524332889161     1.286167142030
H                     0.619681796332     1.675764311737     1.861775747609
H                     0.605410326178    -0.993499134455     1.724896918177
H                    -0.824223441173    -1.739004581526     1.038759915289
H                    -1.225389662980     2.826520212661    -2.370000477670
H                    -1.107748827621     1.086850164334    -2.652782973398
H                     1.106051512885     1.884964409399    -1.941814562738
H                     0.429168041376     2.643949222425    -0.505732162521
H                    -2.044764639672    -0.447913800099    -0.730601954114
H                    -2.781241476845     0.397238980764     0.630250550043
H                     0.718121574189    -2.732135747316    -2.969346253093
H                     0.476879425997    -1.486840686673    -4.215953308086
H                     1.690972827730    -2.755420825194    -4.456221865462
H                     3.733315629687     0.287658943101    -3.646127148891
H                     2.277122384048     0.238532427492    -4.660948960456
H                     3.518953445378    -1.019643044588    -4.829177983550
H                     4.017998813537    -1.373736450498    -1.753176058355
H                     2.817978541049    -2.662259404802    -1.505299430260
H                     3.874819404439    -2.687920991075    -2.934498383281
H                    -2.315177374679     2.445284138134    -0.361389531954
