
  -OEChem-05262117483D

 29 30  0     0  0  0  0  0  0999 V2000
    0.5842    0.3726    1.5584 C   0  0  0  0  0  0  0  0  0  0  0  0
   -3.2764    1.9160    5.2257 C   0  0  0  0  0  0  0  0  0  0  0  0
    0.6789   -0.7742    0.7296 C   0  0  0  0  0  0  0  0  0  0  0  0
   -2.5265    0.2942    3.5695 C   0  0  0  0  0  0  0  0  0  0  0  0
   -1.9212    0.2053    4.8176 C   0  0  0  0  0  0  0  0  0  0  0  0
   -0.1331   -1.8898    0.6992 C   0  0  0  0  0  0  0  0  0  0  0  0
    1.4876   -2.0962   -0.7616 C   0  0  0  0  0  0  0  0  0  0  0  0
   -2.2648   -0.4842    2.3624 C   0  0  0  0  0  0  0  0  0  0  0  0
   -0.8354   -0.7433    5.2246 C   0  0  0  0  0  0  0  0  0  0  0  0
    2.2470   -2.8110   -1.8200 C   0  0  0  0  0  0  0  0  0  0  0  0
   -2.7073    0.0786    1.0338 C   0  0  0  0  0  0  0  0  0  0  0  0
    0.4825    1.3173    2.2368 N   0  0  0  0  0  0  0  0  0  0  0  0
   -2.3691    1.1287    5.7374 N   0  0  0  0  0  0  0  0  0  0  0  0
    1.7011   -0.9448   -0.2245 N   0  0  0  0  0  0  0  0  0  0  0  0
   -1.6362   -1.6083    2.5320 N   0  0  0  0  0  0  0  0  0  0  0  0
   -1.2921   -2.2877    1.3241 N   0  0  0  0  0  0  0  0  0  0  0  0
    0.3639   -2.7424   -0.2410 O   0  0  0  0  0  0  0  0  0  0  0  0
   -3.6729    1.6164    3.5672 S   0  0  0  0  0  0  0  0  0  0  0  0
   -3.7655    2.7115    5.7783 H   0  0  0  0  0  0  0  0  0  0  0  0
   -0.0655   -0.8016    4.4515 H   0  0  0  0  0  0  0  0  0  0  0  0
   -0.3976   -0.3983    6.1632 H   0  0  0  0  0  0  0  0  0  0  0  0
   -1.2265   -1.7561    5.3602 H   0  0  0  0  0  0  0  0  0  0  0  0
    2.6190   -3.7731   -1.4528 H   0  0  0  0  0  0  0  0  0  0  0  0
    1.6155   -3.0054   -2.6929 H   0  0  0  0  0  0  0  0  0  0  0  0
    3.0926   -2.1916   -2.1204 H   0  0  0  0  0  0  0  0  0  0  0  0
   -2.0893    0.9422    0.7714 H   0  0  0  0  0  0  0  0  0  0  0  0
   -2.6331   -0.6697    0.2455 H   0  0  0  0  0  0  0  0  0  0  0  0
   -3.7438    0.4231    1.0961 H   0  0  0  0  0  0  0  0  0  0  0  0
   -1.2977   -3.2902    1.4974 H   0  0  0  0  0  0  0  0  0  0  0  0
  1  3  1  0  0  0  0
  1 12  3  0  0  0  0
  2 13  2  0  0  0  0
  2 18  1  0  0  0  0
  2 19  1  0  0  0  0
  3  6  2  0  0  0  0
  3 14  1  0  0  0  0
  4  5  2  0  0  0  0
  4  8  1  0  0  0  0
  4 18  1  0  0  0  0
  5  9  1  0  0  0  0
  5 13  1  0  0  0  0
  6 16  1  0  0  0  0
  6 17  1  0  0  0  0
  7 10  1  0  0  0  0
  7 14  2  0  0  0  0
  7 17  1  0  0  0  0
  8 11  1  0  0  0  0
  8 15  2  0  0  0  0
  9 20  1  0  0  0  0
  9 21  1  0  0  0  0
  9 22  1  0  0  0  0
 10 23  1  0  0  0  0
 10 24  1  0  0  0  0
 10 25  1  0  0  0  0
 11 26  1  0  0  0  0
 11 27  1  0  0  0  0
 11 28  1  0  0  0  0
 15 16  1  0  0  0  0
 16 29  1  0  0  0  0
M  END
$$$$
