40
0 1 C19ClH15N4S
C                    -0.524324459853    -2.551057671826    -3.044511213817
C                    -2.980329670066    -8.239998992567     0.961703844550
C                    -2.269797274968    -7.607591664383     1.988223853914
C                    -3.160926898099    -7.588956778870    -0.262762287778
C                    -1.754440580217    -6.324028016020     1.801419255489
C                    -2.638291603653    -6.309604095203    -0.465041271410
C                    -1.806981013808    -1.975679544090    -3.254794944696
C                    -1.053973273253    -2.222322395518    -0.046617226070
C                    -2.689732412293    -2.329261542560    -4.329183118013
C                    -1.950400367729    -5.678994725969     0.576077356043
C                    -3.841876657254    -1.600215835121    -4.342082108862
C                     0.094908858794    -2.837831142701     0.545665726958
C                    -2.337772633021    -0.959615399062    -2.453158099233
C                    -1.988608385826    -3.255153393463    -0.111213581253
C                    -1.149069053313    -0.820433368155    -0.431174903613
C                    -2.691030637452    -3.374740537312    -5.414638948023
C                    -4.815725076455    -2.043221045624    -5.399910893187
C                    -3.900626424485    -2.936096064532    -6.295766010600
C                     1.434679128090    -2.218278481483     0.783000086662
N                     0.528201868278    -3.026292446803    -2.871489522687
N                    -0.119483033524    -4.122652952217     0.800742117926
N                    -1.772859990062    -0.260482253681    -1.413009035557
N                    -1.404292185121    -4.376545515555     0.393335743199
S                    -3.897080984799    -0.426427792443    -3.062108959624
Cl                   -3.647833422597    -3.190182703612    -0.555799592253
H                    -3.383008502595    -9.237880915559     1.112385959892
H                    -2.119089986667    -8.112601775184     2.938366816861
H                    -3.695019969261    -8.082444040032    -1.070028843206
H                    -1.196856623577    -5.820118800197     2.583704354946
H                    -2.746658968237    -5.814683880363    -1.424135404461
H                    -0.606088969492    -0.130463418312     0.219076258947
H                    -1.755420558202    -3.409854292213    -5.981437091717
H                    -2.841472268210    -4.373897766798    -4.985400626621
H                    -5.639500913085    -2.619447518513    -4.958255661375
H                    -5.263582296927    -1.217562846279    -5.962090044805
H                    -3.531192499328    -2.334164284749    -7.131130410093
H                    -4.440940693439    -3.787910498547    -6.717003331329
H                     1.352687654345    -1.290320685707     1.359213234869
H                     2.072655321443    -2.915990622009     1.329202960239
H                     1.914778433369    -1.980913223123    -0.172136679288
