26
0 1 C13H12O
C                    -0.947272187162    -3.319777202361     6.072783413110
C                     2.179594346775    -1.242983545793    -0.216742656241
C                    -0.373999496794    -2.175323341632     6.642346216682
C                    -0.812643091140    -3.539965537799     4.699655299441
C                     1.084159070671    -0.431719389921     0.092590628686
C                     2.925300537220    -1.831358900836     0.810486662256
C                     0.327978261850    -1.265590811166     5.851459860259
C                    -0.114554885538    -2.634772506409     3.891661247059
C                     0.737633809059    -0.219860367279     1.430486631678
C                     2.599349505638    -1.632597813216     2.159127052875
C                     0.456122539869    -1.499053678645     4.476587959512
C                     1.489538643764    -0.819430228084     2.439362269431
C                     3.398626458871    -2.258400168419     3.274405749405
O                     1.156678023632    -0.544557455251     3.763985931177
H                    -1.491079554884    -4.027771933436     6.691791857900
H                     2.457989206703    -1.413241455480    -1.253350026807
H                    -0.471136376857    -1.990673510474     7.709175919061
H                    -1.254534579409    -4.422631945132     4.244171989768
H                     0.502612975079     0.033727326485    -0.698593194122
H                     3.782768271920    -2.453518262535     0.563755136603
H                     0.781950109115    -0.375297118691     6.276852851958
H                    -0.017714117167    -2.810272599006     2.825471256427
H                    -0.107434213490     0.404368167273     1.706348050419
H                     3.651961687479    -1.517627735239     4.038820248702
H                     2.829754961823    -3.049554383762     3.775363151246
H                     4.324394312970    -2.695691688533     2.891920557364
