18
0 1 C7H9NO
C                     0.533167413218     1.303974685434    -1.617792498508
C                     0.286988697830     1.733286324338    -2.954156163051
C                    -0.371526127803     0.513340397284    -0.962895350541
C                    -0.872105802951     1.327792401342    -3.556418847928
C                    -1.611164342273     0.087896435236    -1.582562689752
C                    -4.186618268869     1.090271173290    -3.238031822478
C                    -3.032721267274     0.152554820572    -3.595715574051
N                    -1.782492999711     0.533102139209    -2.919017145230
O                    -2.482783482111    -0.604250486151    -1.042786848027
H                     1.448937310605     1.608678008441    -1.116185367596
H                     0.988495827430     2.358523851661    -3.494052138587
H                    -0.211161397741     0.173317157226     0.054770254063
H                    -1.125977432039     1.612917950881    -4.572897084707
H                    -4.375655746410     1.061178597779    -2.162576637400
H                    -3.961450788635     2.121434882014    -3.530287632756
H                    -5.097852784178     0.776647398916    -3.757864530914
H                    -2.840780337256     0.155516974677    -4.672223715942
H                    -3.267321013781    -0.867339001096    -3.287675428890
