
  -OEChem-05262117483D

 27 28  0     0  0  0  0  0  0999 V2000
    1.4281   -1.7574   -0.1079 C   0  0  0  0  0  0  0  0  0  0  0  0
    6.7892   -1.4218    4.9489 C   0  0  0  0  0  0  0  0  0  0  0  0
    0.6759   -0.7289    0.4678 C   0  0  0  0  0  0  0  0  0  0  0  0
    7.1527   -0.1432    4.5066 C   0  0  0  0  0  0  0  0  0  0  0  0
    2.5156   -2.2772    0.5906 C   0  0  0  0  0  0  0  0  0  0  0  0
    5.7934   -2.1284    4.2785 C   0  0  0  0  0  0  0  0  0  0  0  0
    1.0165   -0.2400    1.7310 C   0  0  0  0  0  0  0  0  0  0  0  0
    6.5209    0.4214    3.3963 C   0  0  0  0  0  0  0  0  0  0  0  0
    2.8839   -1.7596    1.8431 C   0  0  0  0  0  0  0  0  0  0  0  0
    5.1201   -1.5731    3.1764 C   0  0  0  0  0  0  0  0  0  0  0  0
    2.1225   -0.7312    2.4394 C   0  0  0  0  0  0  0  0  0  0  0  0
    5.5180   -0.2997    2.7564 C   0  0  0  0  0  0  0  0  0  0  0  0
    4.0704   -2.4012    2.4934 C   0  0  0  0  0  0  0  0  0  0  0  0
    2.4149   -0.1625    3.8120 C   0  0  0  0  0  0  0  0  0  0  0  0
    4.2073   -3.6216    2.4644 O   0  0  0  0  0  0  0  0  0  0  0  0
    4.9314    0.2679    1.6736 F   0  0  0  0  0  0  0  0  0  0  0  0
    1.1647   -2.1539   -1.0846 H   0  0  0  0  0  0  0  0  0  0  0  0
    7.2854   -1.8635    5.8082 H   0  0  0  0  0  0  0  0  0  0  0  0
   -0.1819   -0.3170   -0.0580 H   0  0  0  0  0  0  0  0  0  0  0  0
    7.9328    0.4129    5.0193 H   0  0  0  0  0  0  0  0  0  0  0  0
    3.1034   -3.0893    0.1735 H   0  0  0  0  0  0  0  0  0  0  0  0
    5.5085   -3.1278    4.5930 H   0  0  0  0  0  0  0  0  0  0  0  0
    0.4063    0.5383    2.1839 H   0  0  0  0  0  0  0  0  0  0  0  0
    6.7943    1.4013    3.0170 H   0  0  0  0  0  0  0  0  0  0  0  0
    2.7993   -0.9139    4.5052 H   0  0  0  0  0  0  0  0  0  0  0  0
    3.1541    0.6439    3.7615 H   0  0  0  0  0  0  0  0  0  0  0  0
    1.5034    0.2574    4.2465 H   0  0  0  0  0  0  0  0  0  0  0  0
  1  3  1  0  0  0  0
  1  5  2  0  0  0  0
  1 17  1  0  0  0  0
  2  4  1  0  0  0  0
  2  6  2  0  0  0  0
  2 18  1  0  0  0  0
  3  7  2  0  0  0  0
  3 19  1  0  0  0  0
  4  8  2  0  0  0  0
  4 20  1  0  0  0  0
  5  9  1  0  0  0  0
  5 21  1  0  0  0  0
  6 10  1  0  0  0  0
  6 22  1  0  0  0  0
  7 11  1  0  0  0  0
  7 23  1  0  0  0  0
  8 12  1  0  0  0  0
  8 24  1  0  0  0  0
  9 11  2  0  0  0  0
  9 13  1  0  0  0  0
 10 12  2  0  0  0  0
 10 13  1  0  0  0  0
 11 14  1  0  0  0  0
 12 16  1  0  0  0  0
 13 15  2  0  0  0  0
 14 25  1  0  0  0  0
 14 26  1  0  0  0  0
 14 27  1  0  0  0  0
M  END
$$$$
