26
0 1 C13H12O
C                     1.740981788672    -1.051162130448    -0.105322944589
C                     1.165140212827    -6.014538343352     4.961154176629
C                     2.790892446768    -1.670477646191     0.581341351638
C                     0.708794714724    -0.441029373925     0.614988682404
C                     2.371333141682    -5.635164284676     5.565695583243
C                     0.412440167652    -5.052897428555     4.284962165106
C                     2.813493060383    -1.675814996331     1.978786983799
C                     0.728919218210    -0.454398454057     2.013017176803
C                     2.812755498479    -4.315101627769     5.496625108828
C                     0.843805432183    -3.722589583343     4.204167335664
C                     1.781967240985    -1.067241381082     2.703754121387
C                     2.048664172996    -3.353848742745     4.817309681737
C                     1.810744003537    -1.032357627763     4.219659665269
O                     2.572183024047    -2.082536758625     4.813082000333
H                     1.723914474226    -1.049213991006    -1.192111486237
H                     0.822136477382    -7.043950152711     5.014980637845
H                     3.592402877086    -2.153018411075     0.027688308531
H                    -0.114554128815     0.036776800121     0.090061780756
H                     2.970569213377    -6.370924785243     6.096151249012
H                    -0.521069919463    -5.333205110639     3.803475357181
H                     3.622849214905    -2.164697061067     2.512872651771
H                    -0.083700573257     0.011021454231     2.568421923481
H                     3.742875501754    -4.004410410618     5.963979953587
H                     0.252691976666    -3.004411958704     3.648717487212
H                     2.307169002568    -0.118824557154     4.561114271472
H                     0.790739033487    -1.024962910713     4.624859963706
