26
0 1 C13H12O
C                     2.125545694632     3.042138309120     5.980754177943
C                     1.559385574609    -1.349522036894     0.146124851787
C                     1.445111274703     2.047540481064     6.695322258369
C                     2.318009271814     2.884742205000     4.605893972012
C                     0.330696946812    -0.761443582017     0.459809963092
C                     2.491275130601    -1.603045615547     1.158412269646
C                     0.967249150750     0.909231299104     6.045886838354
C                     1.841467460877     1.750113487582     3.938737021057
C                     0.045010961564    -0.424391719623     1.786327057939
C                     2.227668715211    -1.276172429174     2.495683764153
C                     1.167896961506     0.763762537098     4.667544159534
C                     0.988676504405    -0.679981380735     2.779747853000
C                     3.222705363469    -1.548494467309     3.595717510840
O                     0.655009984423    -0.387198822169     4.100293918582
H                     2.498720257072     3.926277331961     6.489864142101
H                     1.790823624868    -1.616274754766    -0.881652239208
H                     1.287519634312     2.156697901931     7.765324849094
H                     2.842208665924     3.649800824090     4.038676201373
H                    -0.401152299155    -0.565828077199    -0.319254532110
H                     3.441764847498    -2.069768379295     0.909538184843
H                     0.441031077875     0.126727570082     6.584825183059
H                     1.991108801064     1.636781572912     2.870243257438
H                    -0.899544678512     0.033844570988     2.065155456881
H                     3.646261411733    -0.617232610740     3.987858244895
H                     2.746078116871    -2.059184078358     4.437969014144
H                     4.045306744197    -2.169259944484     3.231691342850
