30
0 1 C11H15NO2S
C                     5.494631719443    -0.814904307695    -1.373251449001
C                     4.870503744436     0.058094301878    -0.474078147056
C                     4.824122483776    -1.966383276360    -1.795105261181
C                     3.588196442147    -0.223180239887     0.000938284112
C                     3.538448952956    -2.243125764572    -1.319012716404
C                     2.913713069753    -1.377652811658    -0.416241750274
C                    -0.913716266468     0.829523785951     1.595216877932
C                    -1.684497487290     1.351789767621     0.375558251769
C                    -0.300993203373    -0.555815991455     1.371163199309
C                    -0.804270835612     1.409308901497    -0.875864199421
C                     1.548747705063    -1.713197476812     0.145023660470
N                     0.654124173523    -0.532076429729     0.237169542169
O                    -1.294934703518    -1.149686169192    -1.402390279892
O                     0.865131046227    -0.165743795241    -2.295296070455
S                    -0.150693069310    -0.233692879646    -1.244871655373
H                     6.491195551963    -0.594297715881    -1.747261836262
H                     5.383581712157     0.959567037557    -0.147852943469
H                     5.295639333756    -2.642973414357    -2.503314600074
H                     3.093512885939     0.462774948295     0.683583638178
H                     3.011725267132    -3.128412683911    -1.668478711028
H                    -0.107571984777     1.528558525538     1.847392023092
H                    -1.585919451304     0.779024087230     2.458493099827
H                    -2.546952574323     0.709724087492     0.170407444582
H                    -2.068477520282     2.357899835311     0.575570504819
H                     0.276199816983    -0.841014768537     2.254919939241
H                    -1.083330331534    -1.312968073296     1.219193585230
H                    -1.363791094001     1.699033292045    -1.769219060349
H                     0.064857287175     2.060996827811    -0.761499293794
H                     1.086233318335    -2.530684412717    -0.422565216855
H                     1.658964671000    -2.076062757004     1.171922857056
