32
0 1 C13H17NO
C                    -5.008676147559     2.287025813835    -5.125316499317
C                    -5.552622837057     1.061750733596    -5.519653800348
C                    -3.692225686042     2.333893451852    -4.659853277875
C                    -4.774864308876    -0.099042918166    -5.455684837665
C                    -2.915816215784     1.170968385413    -4.596369501901
C                    -3.448112613896    -0.066353271149    -5.005689074499
C                    -1.471067088797     1.266485337615    -4.174429671966
C                    -0.754452135044     3.299762376143    -0.593601604427
C                    -2.174004542063     2.991995678014    -1.092161066197
C                     0.268233572670     3.163207217952    -1.730989504740
C                    -2.221026271192     1.631330476131    -1.796995021793
C                     0.156337548611     1.796500516273    -2.417452644834
C                    -2.610570417343    -1.323315837312    -4.969236580631
N                    -1.219666479153     1.565207741034    -2.861587728058
O                    -0.571583593754     1.100844446174    -5.004451768221
H                    -5.602031017820     3.196108975070    -5.177507141480
H                    -6.577561950671     1.008015872955    -5.877894198721
H                    -3.259501261596     3.281401847846    -4.347033662357
H                    -5.204198802944    -1.049363515319    -5.765253273069
H                    -0.496199019195     2.596598143983     0.210433694408
H                    -0.711973228223     4.304404601502    -0.158514917037
H                    -2.885760320787     2.993283928183    -0.258579337724
H                    -2.497451824590     3.767242022055    -1.798071892125
H                     0.097950738737     3.946405417977    -2.480123588737
H                     1.287678292224     3.294754243021    -1.350622947747
H                    -2.003315479952     0.835471679589    -1.068538177463
H                    -3.208706091488     1.433683205996    -2.210150250734
H                     0.804407918969     1.725000303528    -3.290233513861
H                     0.440603952490     0.998678593991    -1.715519622831
H                    -1.791680214602    -1.260219530184    -5.691819817220
H                    -2.152700211526    -1.472250863509    -3.985099988061
H                    -3.215406136446    -2.204495457769    -5.199189458007
