20
0 1 C8ClF3H6O2
C                     1.689157829274    -0.948592441969    -0.002740524106
C                     0.650872067349    -0.333783298809     0.699550258734
C                     2.725973473406    -1.563466552215     2.108840448525
C                     1.695711868948    -0.947973294049     2.829635701155
C                     2.715694274882    -1.551922344985     0.717256718707
C                     0.667735600943    -0.339089924920     2.094149451970
C                     1.702604211613    -0.968317575414     4.346010302424
C                     4.834931081765    -1.512804195003    -0.313203988677
O                     0.725772137837    -1.850617289398     4.899807541030
O                     3.734180723299    -2.233286137682     0.020974843638
F                     5.472425199972    -1.004092701285     0.767338007590
F                     4.546208598306    -0.467480238591    -1.123953990680
F                     5.676853733184    -2.327426864004    -0.957032638559
Cl                   -0.665748058966     0.445677851755     2.941961581154
H                     1.701318908962    -0.962200302734    -1.087533258028
H                    -0.165005413112     0.144569938638     0.167712884809
H                     3.538480428417    -2.058391508483     2.632181712996
H                     2.667270898199    -1.339837771141     4.696550918377
H                     1.573894677082     0.051194841780     4.731405535198
H                    -0.150220815692    -1.459195760090     4.751127488289
