35
0 1 C11H18N4O2
C                     3.364020962805    -3.249290977820     0.502230750379
C                     2.449313187581    -3.461369185662     1.551361829900
C                    -0.693263046084    -1.821583473725    -0.742595803220
C                     1.441193733478     1.267409789035    -0.840620505056
C                     1.029747334169    -0.107096032210    -1.391444323374
C                    -1.109417513870     0.553010595515    -0.339651911117
C                    -0.453284673615     1.366447955189     0.802694332033
C                     1.102530949820     1.402727222897     0.648018770288
C                    -0.941377872716     0.885124128553     2.174940391960
C                     1.835474550133     0.332205033069     1.467965147239
C                     0.285803467880    -2.933186436557    -1.161697438812
N                     2.674925732307    -3.018763937879    -0.622631308394
N                     1.207270989836    -3.358088907440     1.062637893898
N                     1.397279147718    -3.093787354283    -0.231108769740
N                    -0.238118203447    -0.536374666331    -0.780232648603
O                    -1.830959207997    -2.133600253329    -0.390679215392
O                     1.600300641061     2.703897745374     1.022947973232
H                     4.445444319591    -3.251134821725     0.501377097578
H                     2.618828291217    -3.673325105943     2.598252875829
H                     2.515920463791     1.408505779828    -0.985988993272
H                     0.938857147657     2.074682096619    -1.382922670536
H                     0.922635177930    -0.050209826028    -2.483787542950
H                     1.810575439428    -0.833984368829    -1.176417010937
H                    -2.053980715888     0.112550452224    -0.023584137087
H                    -1.319062035720     1.201096624226    -1.199611472509
H                    -0.769901648921     2.407134562368     0.670667353817
H                    -0.739925098755    -0.179775061277     2.324394922008
H                    -2.022728091921     1.031838743049     2.262211382067
H                    -0.471672936090     1.438458866277     2.996810380990
H                     1.725997670276     0.517139704444     2.541459111614
H                     2.903418784386     0.355801764574     1.231185508131
H                     1.454342839936    -0.671796321646     1.274818100647
H                     0.729490898934    -2.754349606475    -2.141629903656
H                    -0.293515770633    -3.856400645482    -1.185764682942
H                     1.459541154056     2.811795613353     1.977400338419
