
  -OEChem-05262117483D

 20 20  0     0  0  0  0  0  0999 V2000
    1.6892   -0.9486   -0.0027 C   0  0  0  0  0  0  0  0  0  0  0  0
    0.6509   -0.3338    0.6996 C   0  0  0  0  0  0  0  0  0  0  0  0
    2.7260   -1.5635    2.1088 C   0  0  0  0  0  0  0  0  0  0  0  0
    1.6957   -0.9480    2.8296 C   0  0  0  0  0  0  0  0  0  0  0  0
    2.7157   -1.5519    0.7173 C   0  0  0  0  0  0  0  0  0  0  0  0
    0.6677   -0.3391    2.0941 C   0  0  0  0  0  0  0  0  0  0  0  0
    1.7026   -0.9683    4.3460 C   0  0  0  0  0  0  0  0  0  0  0  0
    4.8349   -1.5128   -0.3132 C   0  0  0  0  0  0  0  0  0  0  0  0
    0.7258   -1.8506    4.8998 O   0  0  0  0  0  0  0  0  0  0  0  0
    3.7342   -2.2333    0.0210 O   0  0  0  0  0  0  0  0  0  0  0  0
    5.4724   -1.0041    0.7673 F   0  0  0  0  0  0  0  0  0  0  0  0
    4.5462   -0.4675   -1.1240 F   0  0  0  0  0  0  0  0  0  0  0  0
    5.6769   -2.3274   -0.9570 F   0  0  0  0  0  0  0  0  0  0  0  0
   -0.6657    0.4457    2.9420 Cl  0  0  0  0  0  0  0  0  0  0  0  0
    1.7013   -0.9622   -1.0875 H   0  0  0  0  0  0  0  0  0  0  0  0
   -0.1650    0.1446    0.1677 H   0  0  0  0  0  0  0  0  0  0  0  0
    3.5385   -2.0584    2.6322 H   0  0  0  0  0  0  0  0  0  0  0  0
    2.6673   -1.3398    4.6966 H   0  0  0  0  0  0  0  0  0  0  0  0
    1.5739    0.0512    4.7314 H   0  0  0  0  0  0  0  0  0  0  0  0
   -0.1502   -1.4592    4.7511 H   0  0  0  0  0  0  0  0  0  0  0  0
  1  2  1  0  0  0  0
  1  5  2  0  0  0  0
  1 15  1  0  0  0  0
  2  6  2  0  0  0  0
  2 16  1  0  0  0  0
  3  4  2  0  0  0  0
  3  5  1  0  0  0  0
  3 17  1  0  0  0  0
  4  6  1  0  0  0  0
  4  7  1  0  0  0  0
  5 10  1  0  0  0  0
  6 14  1  0  0  0  0
  7  9  1  0  0  0  0
  7 18  1  0  0  0  0
  7 19  1  0  0  0  0
  8 10  1  0  0  0  0
  8 11  1  0  0  0  0
  8 12  1  0  0  0  0
  8 13  1  0  0  0  0
  9 20  1  0  0  0  0
M  END
$$$$
