
  -OEChem-05262117483D

 23 23  0     0  0  0  0  0  0999 V2000
    2.2874   -1.1075   -0.1895 C   0  0  0  0  0  0  0  0  0  0  0  0
    3.2245   -1.7737    1.9483 C   0  0  0  0  0  0  0  0  0  0  0  0
    1.2424   -0.4252    0.4494 C   0  0  0  0  0  0  0  0  0  0  0  0
    2.1901   -1.0895    2.5724 C   0  0  0  0  0  0  0  0  0  0  0  0
    1.1965   -0.4302    1.8516 C   0  0  0  0  0  0  0  0  0  0  0  0
    3.2653   -1.7837    0.5463 C   0  0  0  0  0  0  0  0  0  0  0  0
   -1.4533    3.4586   -0.8802 C   0  0  0  0  0  0  0  0  0  0  0  0
   -0.8065    2.1058   -1.1993 C   0  0  0  0  0  0  0  0  0  0  0  0
   -0.2389    1.4484    0.0490 C   0  0  0  0  0  0  0  0  0  0  0  0
    0.3103    0.1674   -0.3459 O   0  0  0  0  0  0  0  0  0  0  0  0
    2.1195   -1.0722    3.9208 F   0  0  0  0  0  0  0  0  0  0  0  0
    0.1896    0.1723    2.5274 F   0  0  0  0  0  0  0  0  0  0  0  0
    4.5311   -2.6419   -0.3696 S   0  0  0  0  0  0  0  0  0  0  0  0
    2.3092   -1.0854   -1.2747 H   0  0  0  0  0  0  0  0  0  0  0  0
    3.9604   -2.2824    2.5623 H   0  0  0  0  0  0  0  0  0  0  0  0
   -2.2765    3.3495   -0.1652 H   0  0  0  0  0  0  0  0  0  0  0  0
   -0.7277    4.1576   -0.4488 H   0  0  0  0  0  0  0  0  0  0  0  0
   -1.8590    3.9189   -1.7862 H   0  0  0  0  0  0  0  0  0  0  0  0
   -0.0024    2.2309   -1.9328 H   0  0  0  0  0  0  0  0  0  0  0  0
   -1.5437    1.4297   -1.6467 H   0  0  0  0  0  0  0  0  0  0  0  0
    0.5566    2.0613    0.4899 H   0  0  0  0  0  0  0  0  0  0  0  0
   -1.0173    1.2989    0.8024 H   0  0  0  0  0  0  0  0  0  0  0  0
    5.3095   -2.9546    0.6853 H   0  0  0  0  0  0  0  0  0  0  0  0
  1  3  1  0  0  0  0
  1  6  2  0  0  0  0
  1 14  1  0  0  0  0
  2  4  2  0  0  0  0
  2  6  1  0  0  0  0
  2 15  1  0  0  0  0
  3  5  2  0  0  0  0
  3 10  1  0  0  0  0
  4  5  1  0  0  0  0
  4 11  1  0  0  0  0
  5 12  1  0  0  0  0
  6 13  1  0  0  0  0
  7  8  1  0  0  0  0
  7 16  1  0  0  0  0
  7 17  1  0  0  0  0
  7 18  1  0  0  0  0
  8  9  1  0  0  0  0
  8 19  1  0  0  0  0
  8 20  1  0  0  0  0
  9 10  1  0  0  0  0
  9 21  1  0  0  0  0
  9 22  1  0  0  0  0
 13 23  1  0  0  0  0
M  END
$$$$
