
  -OEChem-05262117483D

 23 23  0     0  0  0  0  0  0999 V2000
    1.7693   -1.5874   -0.0782 C   0  0  0  0  0  0  0  0  0  0  0  0
    3.5154   -1.5635    1.6170 C   0  0  0  0  0  0  0  0  0  0  0  0
    0.8611   -1.0176    0.8228 C   0  0  0  0  0  0  0  0  0  0  0  0
    2.5979   -1.0023    2.5035 C   0  0  0  0  0  0  0  0  0  0  0  0
    1.2910   -0.7264    2.1300 C   0  0  0  0  0  0  0  0  0  0  0  0
    3.0891   -1.8570    0.3192 C   0  0  0  0  0  0  0  0  0  0  0  0
   -3.2738   -1.3973    0.1901 C   0  0  0  0  0  0  0  0  0  0  0  0
   -2.4057   -0.6046   -0.7927 C   0  0  0  0  0  0  0  0  0  0  0  0
   -0.9397   -1.0102   -0.7619 C   0  0  0  0  0  0  0  0  0  0  0  0
   -0.4310   -0.7133    0.5484 O   0  0  0  0  0  0  0  0  0  0  0  0
    2.9860   -0.7139    3.7639 F   0  0  0  0  0  0  0  0  0  0  0  0
    0.4330   -0.1834    3.0156 F   0  0  0  0  0  0  0  0  0  0  0  0
    4.1687   -2.5667   -0.9101 S   0  0  0  0  0  0  0  0  0  0  0  0
    1.4554   -1.8260   -1.0873 H   0  0  0  0  0  0  0  0  0  0  0  0
    4.5271   -1.7509    1.9614 H   0  0  0  0  0  0  0  0  0  0  0  0
   -3.2348   -2.4711   -0.0270 H   0  0  0  0  0  0  0  0  0  0  0  0
   -2.9339   -1.2486    1.2185 H   0  0  0  0  0  0  0  0  0  0  0  0
   -4.3199   -1.0812    0.1280 H   0  0  0  0  0  0  0  0  0  0  0  0
   -2.4761    0.4683   -0.5811 H   0  0  0  0  0  0  0  0  0  0  0  0
   -2.7639   -0.7500   -1.8193 H   0  0  0  0  0  0  0  0  0  0  0  0
   -0.8284   -2.0849   -0.9606 H   0  0  0  0  0  0  0  0  0  0  0  0
   -0.3627   -0.4531   -1.5113 H   0  0  0  0  0  0  0  0  0  0  0  0
    5.2297   -2.7604   -0.1023 H   0  0  0  0  0  0  0  0  0  0  0  0
  1  3  1  0  0  0  0
  1  6  2  0  0  0  0
  1 14  1  0  0  0  0
  2  4  2  0  0  0  0
  2  6  1  0  0  0  0
  2 15  1  0  0  0  0
  3  5  2  0  0  0  0
  3 10  1  0  0  0  0
  4  5  1  0  0  0  0
  4 11  1  0  0  0  0
  5 12  1  0  0  0  0
  6 13  1  0  0  0  0
  7  8  1  0  0  0  0
  7 16  1  0  0  0  0
  7 17  1  0  0  0  0
  7 18  1  0  0  0  0
  8  9  1  0  0  0  0
  8 19  1  0  0  0  0
  8 20  1  0  0  0  0
  9 10  1  0  0  0  0
  9 21  1  0  0  0  0
  9 22  1  0  0  0  0
 13 23  1  0  0  0  0
M  END
$$$$
