37
0 1 C15H15IN6
C                     0.220623234438    -4.326427057264     2.777787526607
C                     1.464894024963    -3.777692822165     2.536745571445
C                     0.298459598141     5.973136185152    -2.049793246660
C                    -0.841501511027    -2.378762853221     1.746984161104
C                    -0.933052613417    -3.588520250974     2.390146010658
C                     0.809735130073    -0.621150892813     0.981789464095
C                     1.322753882865     5.128724929731    -1.604460635408
C                    -1.021798473328     5.520205165959    -1.924373606847
C                     2.216201990109    -0.648371959034     1.027969711500
C                     1.584120830882    -2.519611580671     1.907198303207
C                    -0.232946295270     3.590819473037    -1.001342096354
C                    -0.107593860963     0.369780128764     0.481097365249
C                     2.774591751347     5.516617968900    -1.690164567750
C                    -2.198973811082     6.345109547075    -2.371693500779
C                     3.143978415687     0.415960180372     0.539473178820
N                     2.666992058851    -1.798889439165     1.599582595212
N                     1.060147707655     3.924042457847    -1.074205263214
N                    -1.294068699721     4.319959702109    -1.395953151339
N                     0.331903073970     1.482088939910    -0.011626314366
N                     0.405522302770    -1.831079352391     1.542163655749
N                    -0.580663840764     2.364419579010    -0.465071222840
I                    -2.869360452265    -4.747850251489     2.094871546024
H                     0.122532501869    -5.289202453916     3.266465344815
H                     2.376972509131    -4.290172163459     2.824988683853
H                     0.518898117981     6.945663640450    -2.477336142488
H                    -1.699008082043    -1.821189210244     1.393847830390
H                    -1.183916176985     0.154482105141     0.527790099615
H                     3.218954592442     5.514089062761    -0.689854404000
H                     3.321470844607     4.779033383905    -2.285815310382
H                     2.906739038002     6.505099169871    -2.136476961190
H                    -2.765354105868     5.804377900180    -3.136610591423
H                    -2.876681110964     6.517722665773    -1.529706422035
H                    -1.886172229924     7.309488990979    -2.778762911333
H                     2.942042143093     1.370343323889     1.035389707345
H                     4.175713196582     0.111234928262     0.725563335093
H                     3.001010629848     0.601201012514    -0.529872930532
H                    -1.581255304536     2.169170704039    -0.428818048861
