35
0 1 C11H18N4O2
C                     0.216573298367     0.048811549334    -4.204820382676
C                     1.372525269698     0.723671166725    -3.767318493454
C                     1.615218215423    -1.653051475511    -0.306182934239
C                     0.633664055266     1.205558985140     1.295995460404
C                     0.779472914173    -0.301104293545     1.544105667319
C                    -0.740783127852    -0.751797713362    -0.317594677829
C                    -0.941260760508     0.743851784162    -0.611888968683
C                    -0.718353216221     1.591553759819     0.662520861163
C                    -2.293472573413     0.980114866937    -1.290565070327
C                    -1.864089977137     1.471346981207     1.677886746277
C                     1.442885999864    -2.148199622851    -1.753655847456
N                     0.101961722074    -1.091785990682    -3.512366480297
N                     1.957359185635    -0.008397243276    -2.811063872397
N                     1.164069565619    -1.074850129147    -2.699419794900
N                     0.561323181021    -1.020508201702     0.288338835273
O                     2.688673242938    -1.856180090197     0.260775693028
O                    -0.649375591240     2.954027848161     0.192773712070
H                    -0.513417974663     0.320353553800    -4.955051276402
H                     1.793495392979     1.669552120541    -4.079594606934
H                     0.767253106399     1.745226049199     2.242966254686
H                     1.430402878801     1.526936015292     0.617032465335
H                     1.777137414125    -0.546590670513     1.905412663503
H                     0.052865480693    -0.653996541272     2.286505632637
H                    -1.514160761950    -1.103831667403     0.378443172461
H                    -0.868061777789    -1.323961756307    -1.233863779830
H                    -0.152029649233     1.051039938139    -1.306327428480
H                    -3.123192244892     0.572160994884    -0.702598811602
H                    -2.310384367969     0.491596077064    -2.270010316421
H                    -2.469289574366     2.048587606345    -1.436644852091
H                    -2.794093503216     1.855857302682     1.253513373228
H                    -1.634549143597     2.057685734253     2.575846517876
H                    -2.034287063195     0.439664038512     1.999737331823
H                     0.632817932657    -2.871376294639    -1.854823607919
H                     2.386378009622    -2.624676445534    -2.020712619970
H                    -0.491187679260     3.526544614175     0.960971013490
