
  -OEChem-05262117483D

 31 32  0     0  0  0  0  0  0999 V2000
    8.4587   -3.8880   -1.7942 C   0  0  0  0  0  0  0  0  0  0  0  0
    8.4571   -3.9922   -0.3998 C   0  0  0  0  0  0  0  0  0  0  0  0
    7.3630   -3.3109   -2.4546 C   0  0  0  0  0  0  0  0  0  0  0  0
    7.3654   -3.5219    0.3324 C   0  0  0  0  0  0  0  0  0  0  0  0
    6.2700   -2.8392   -1.7326 C   0  0  0  0  0  0  0  0  0  0  0  0
    2.0835   -0.9583    0.0321 C   0  0  0  0  0  0  0  0  0  0  0  0
    0.9517   -0.5700    2.1037 C   0  0  0  0  0  0  0  0  0  0  0  0
    0.9643   -0.4702    0.7017 C   0  0  0  0  0  0  0  0  0  0  0  0
    6.2704   -2.9451   -0.3294 C   0  0  0  0  0  0  0  0  0  0  0  0
    3.1719   -1.5328    0.7132 C   0  0  0  0  0  0  0  0  0  0  0  0
    3.1522   -1.6305    2.1386 C   0  0  0  0  0  0  0  0  0  0  0  0
    2.0183   -1.1353    2.7999 C   0  0  0  0  0  0  0  0  0  0  0  0
   -1.3802    0.6220    0.7359 C   0  0  0  0  0  0  0  0  0  0  0  0
   -0.1818    0.1430   -0.0871 C   0  0  0  0  0  0  0  0  0  0  0  0
    5.2136   -2.4986    0.4976 N   0  0  0  0  0  0  0  0  0  0  0  0
    4.2196   -1.9759   -0.1000 N   0  0  0  0  0  0  0  0  0  0  0  0
    4.1624   -2.1689    2.8376 O   0  0  0  0  0  0  0  0  0  0  0  0
    1.9471   -1.2454    4.7079 Br  0  0  0  0  0  0  0  0  0  0  0  0
    9.3071   -4.2532   -2.3668 H   0  0  0  0  0  0  0  0  0  0  0  0
    9.3030   -4.4382    0.1159 H   0  0  0  0  0  0  0  0  0  0  0  0
    7.3671   -3.2311   -3.5386 H   0  0  0  0  0  0  0  0  0  0  0  0
    7.3460   -3.5942    1.4164 H   0  0  0  0  0  0  0  0  0  0  0  0
    5.4167   -2.3910   -2.2296 H   0  0  0  0  0  0  0  0  0  0  0  0
    2.1503   -0.9093   -1.0521 H   0  0  0  0  0  0  0  0  0  0  0  0
    0.1038   -0.2058    2.6725 H   0  0  0  0  0  0  0  0  0  0  0  0
   -1.8378   -0.1979    1.2997 H   0  0  0  0  0  0  0  0  0  0  0  0
   -2.1476    1.0382    0.0760 H   0  0  0  0  0  0  0  0  0  0  0  0
   -1.0967    1.4051    1.4471 H   0  0  0  0  0  0  0  0  0  0  0  0
    0.2107    0.9859   -0.6697 H   0  0  0  0  0  0  0  0  0  0  0  0
   -0.5262   -0.5925   -0.8247 H   0  0  0  0  0  0  0  0  0  0  0  0
    4.8459   -2.4468    2.1620 H   0  0  0  0  0  0  0  0  0  0  0  0
  1  2  1  0  0  0  0
  1  3  2  0  0  0  0
  1 19  1  0  0  0  0
  2  4  2  0  0  0  0
  2 20  1  0  0  0  0
  3  5  1  0  0  0  0
  3 21  1  0  0  0  0
  4  9  1  0  0  0  0
  4 22  1  0  0  0  0
  5  9  2  0  0  0  0
  5 23  1  0  0  0  0
  6  8  2  0  0  0  0
  6 10  1  0  0  0  0
  6 24  1  0  0  0  0
  7  8  1  0  0  0  0
  7 12  2  0  0  0  0
  7 25  1  0  0  0  0
  8 14  1  0  0  0  0
  9 15  1  0  0  0  0
 10 11  2  0  0  0  0
 10 16  1  0  0  0  0
 11 12  1  0  0  0  0
 11 17  1  0  0  0  0
 12 18  1  0  0  0  0
 13 14  1  0  0  0  0
 13 26  1  0  0  0  0
 13 27  1  0  0  0  0
 13 28  1  0  0  0  0
 14 29  1  0  0  0  0
 14 30  1  0  0  0  0
 15 16  2  0  0  0  0
 17 31  1  0  0  0  0
M  END
$$$$
