29
0 1 C11FH14NO2
C                     0.368780782893     2.393791740009     1.434702575932
C                    -2.277037879739     3.117619654315     1.854243021142
C                    -0.628471244590     1.464293800420     1.096890116549
C                     0.085176363829     3.646429277327     1.970360297103
C                    -1.259569271935     4.018499489263     2.189697154659
C                    -1.942163639777     1.874427390446     1.322933792533
C                    -0.863396858423    -1.192519349572     1.096873336340
C                    -1.045257639925    -1.639428967121    -0.374941919072
C                    -0.267333294065     0.123881967258     0.515728298863
C                     1.274908092524     5.643246212419     1.505047541908
C                    -2.819759185321     5.634648500941     3.004763962092
N                    -0.887248632176    -0.219685352500    -0.798333234470
O                     1.126107001079     4.476733567913     2.326899676499
O                    -1.473885095029     5.254319965331     2.730659999078
F                    -2.973909533393     1.036480817836     1.037593783345
H                     1.415482272254     2.140150260673     1.285847921170
H                    -3.325412198806     3.346897312153     2.002473056292
H                    -1.811521915204    -1.034419990106     1.610010926458
H                    -0.195924031008    -1.786194287377     1.724613485571
H                    -0.235565135076    -2.303383882649    -0.710602251781
H                    -2.007917331979    -2.080730115877    -0.652674603682
H                     0.830223781565     0.050289694745     0.493607283846
H                     2.154017196018     6.169954890778     1.882137327777
H                     0.397868341804     6.293622049131     1.576303444119
H                     1.440400131707     5.357272222475     0.458344427974
H                    -2.763382015865     6.630887132898     3.444976566868
H                    -3.288742345399     4.947110765977     3.718816576290
H                    -3.418676316620     5.675078798734     2.086742114043
H                    -0.277141471954    -0.069098891231    -1.599931222450
