20
0 1 BrC8H7N2O2
C                     0.886828306718     1.089271965006     3.448996308087
C                    -0.768285144837     2.571214148200     2.581338689392
C                     0.085317844648     2.220175190192     3.625599666375
C                    -0.040976572720     0.762182689119     1.384529665306
C                     0.024118061017    -1.527992559927     0.229358823038
C                    -0.865573104994     0.456681615592    -1.076288734436
C                     0.622874888664     0.583155953211    -1.096568514391
C                    -0.057158690111    -0.038230936762     0.123832901947
N                     0.831552148658     0.368141166399     2.329334965898
N                    -0.835107923175     1.840838898895     1.463207859991
O                     0.461156470379    -2.262993061475    -0.637566181559
O                    -0.532700266160    -2.003854960243     1.370920058256
Br                    0.167868499952     3.251055630356     5.227809615855
H                     1.587766904198     0.768657918431     4.217407487061
H                    -1.408971842073     3.448528817064     2.644800890811
H                    -1.463736243436     1.342192853150    -0.896453886718
H                    -1.317572433623    -0.312356945299    -1.693557895446
H                     1.195032798445    -0.102858158852    -1.711581586573
H                     1.054794540408     1.567069920930    -0.944543082701
H                    -0.448944801350    -2.975534922362     1.326447111162
