
  -OEChem-05262117483D

 29 30  0     1  0  0  0  0  0999 V2000
    0.3688    2.3938    1.4347 C   0  0  0  0  0  0  0  0  0  0  0  0
   -2.2770    3.1176    1.8542 C   0  0  0  0  0  0  0  0  0  0  0  0
   -0.6285    1.4643    1.0969 C   0  0  0  0  0  0  0  0  0  0  0  0
    0.0852    3.6464    1.9704 C   0  0  0  0  0  0  0  0  0  0  0  0
   -1.2596    4.0185    2.1897 C   0  0  0  0  0  0  0  0  0  0  0  0
   -1.9422    1.8744    1.3229 C   0  0  0  0  0  0  0  0  0  0  0  0
   -0.8634   -1.1925    1.0969 C   0  0  0  0  0  0  0  0  0  0  0  0
   -1.0453   -1.6394   -0.3749 C   0  0  0  0  0  0  0  0  0  0  0  0
   -0.2673    0.1239    0.5157 C   0  0  1  0  0  0  0  0  0  0  0  0
    1.2749    5.6432    1.5050 C   0  0  0  0  0  0  0  0  0  0  0  0
   -2.8198    5.6346    3.0048 C   0  0  0  0  0  0  0  0  0  0  0  0
   -0.8872   -0.2197   -0.7983 N   0  0  0  0  0  0  0  0  0  0  0  0
    1.1261    4.4767    2.3269 O   0  0  0  0  0  0  0  0  0  0  0  0
   -1.4739    5.2543    2.7307 O   0  0  0  0  0  0  0  0  0  0  0  0
   -2.9739    1.0365    1.0376 F   0  0  0  0  0  0  0  0  0  0  0  0
    1.4155    2.1402    1.2858 H   0  0  0  0  0  0  0  0  0  0  0  0
   -3.3254    3.3469    2.0025 H   0  0  0  0  0  0  0  0  0  0  0  0
   -1.8115   -1.0344    1.6100 H   0  0  0  0  0  0  0  0  0  0  0  0
   -0.1959   -1.7862    1.7246 H   0  0  0  0  0  0  0  0  0  0  0  0
   -0.2356   -2.3034   -0.7106 H   0  0  0  0  0  0  0  0  0  0  0  0
   -2.0079   -2.0807   -0.6527 H   0  0  0  0  0  0  0  0  0  0  0  0
    0.8302    0.0503    0.4936 H   0  0  0  0  0  0  0  0  0  0  0  0
    2.1540    6.1700    1.8821 H   0  0  0  0  0  0  0  0  0  0  0  0
    0.3979    6.2936    1.5763 H   0  0  0  0  0  0  0  0  0  0  0  0
    1.4404    5.3573    0.4583 H   0  0  0  0  0  0  0  0  0  0  0  0
   -2.7634    6.6309    3.4450 H   0  0  0  0  0  0  0  0  0  0  0  0
   -3.2887    4.9471    3.7188 H   0  0  0  0  0  0  0  0  0  0  0  0
   -3.4187    5.6751    2.0867 H   0  0  0  0  0  0  0  0  0  0  0  0
   -0.2771   -0.0691   -1.5999 H   0  0  0  0  0  0  0  0  0  0  0  0
  1  3  1  0  0  0  0
  1  4  2  0  0  0  0
  1 16  1  0  0  0  0
  2  5  2  0  0  0  0
  2  6  1  0  0  0  0
  2 17  1  0  0  0  0
  3  6  2  0  0  0  0
  3  9  1  0  0  0  0
  4  5  1  0  0  0  0
  4 13  1  0  0  0  0
  5 14  1  0  0  0  0
  6 15  1  0  0  0  0
  7  8  1  0  0  0  0
  7  9  1  0  0  0  0
  7 18  1  0  0  0  0
  7 19  1  0  0  0  0
  8 12  1  0  0  0  0
  8 20  1  0  0  0  0
  8 21  1  0  0  0  0
  9 12  1  0  0  0  0
  9 22  1  0  0  0  0
 10 13  1  0  0  0  0
 10 23  1  0  0  0  0
 10 24  1  0  0  0  0
 10 25  1  0  0  0  0
 11 14  1  0  0  0  0
 11 26  1  0  0  0  0
 11 27  1  0  0  0  0
 11 28  1  0  0  0  0
 12 29  1  0  0  0  0
M  END
$$$$
