27
0 1 C10FH12N3O
C                    -2.536271979009    -1.985602235928     5.882393326867
C                    -2.906461262300    -1.225516612593     4.770728090461
C                    -1.266565359793    -1.851722952262     6.453510927170
C                    -0.707423320232    -0.183988084472     4.756253723180
C                    -1.984760590158    -0.342828593664     4.188984156676
C                    -0.386564846704    -0.938796228776     5.875456670903
C                    -0.686682616342    -1.507308869591     1.794208321684
C                    -0.245906723593     0.404379909716     0.365227215046
C                     0.738974807612    -1.982367936567     1.518642014490
C                     1.168618372922    -0.123866128984     0.151261204547
N                    -2.431135341841     0.516189233381     3.144518271694
N                    -1.827384631815     0.707676917826     2.060360317587
N                    -0.724627892663    -0.035376539012     1.683854679857
O                     1.212267692730    -1.546124076203     0.248341145141
F                     0.847885224433    -0.786882643981     6.424059611844
H                    -3.247651592113    -2.681236869058     6.318887027668
H                    -3.900341393764    -1.307489951435     4.341426622343
H                    -0.962493032983    -2.421032004779     7.325876460879
H                     0.018437502414     0.500955803726     4.331326386260
H                    -1.377651774470    -1.940179241112     1.055446465565
H                    -0.987448585730    -1.840595980096     2.783186853982
H                    -0.255384890698     1.495693450984     0.343985697844
H                    -0.907761546443     0.031430279340    -0.430342386150
H                     1.403813930634    -1.619172899596     2.316921701519
H                     0.771081481263    -3.074493743686     1.503385433332
H                     1.522030664260     0.130233940614    -0.850936169182
H                     1.848702726250     0.324107203551     0.892022016996
