
  -OEChem-05262117483D

 18 18  0     1  0  0  0  0  0999 V2000
    1.4288    0.7233    1.6442 C   0  0  0  0  0  0  0  0  0  0  0  0
    0.1119    0.5036    1.1358 C   0  0  0  0  0  0  0  0  0  0  0  0
    1.5346    0.0270    2.8341 C   0  0  0  0  0  0  0  0  0  0  0  0
   -0.5509   -0.3129    2.0358 C   0  0  0  0  0  0  0  0  0  0  0  0
   -1.9411   -0.8765    2.0122 C   0  0  2  0  0  0  0  0  0  0  0  0
   -1.9535   -2.3650    1.6362 C   0  0  0  0  0  0  0  0  0  0  0  0
    0.3227   -0.5862    3.0698 N   0  0  0  0  0  0  0  0  0  0  0  0
   -2.7691   -0.1534    1.0426 N   0  0  0  0  0  0  0  0  0  0  0  0
   -1.2452   -2.6226    0.5034 F   0  0  0  0  0  0  0  0  0  0  0  0
   -1.3667   -3.0860    2.6660 F   0  0  0  0  0  0  0  0  0  0  0  0
    2.2081    1.3225    1.1912 H   0  0  0  0  0  0  0  0  0  0  0  0
   -0.3025    0.8755    0.2085 H   0  0  0  0  0  0  0  0  0  0  0  0
    2.3580   -0.0753    3.5277 H   0  0  0  0  0  0  0  0  0  0  0  0
   -2.3484   -0.8494    3.0390 H   0  0  0  0  0  0  0  0  0  0  0  0
   -2.9658   -2.7613    1.4998 H   0  0  0  0  0  0  0  0  0  0  0  0
    0.1379   -1.2450    3.8136 H   0  0  0  0  0  0  0  0  0  0  0  0
   -2.6751    0.8467    1.2052 H   0  0  0  0  0  0  0  0  0  0  0  0
   -3.7515   -0.3879    1.1725 H   0  0  0  0  0  0  0  0  0  0  0  0
  1  2  1  0  0  0  0
  1  3  2  0  0  0  0
  1 11  1  0  0  0  0
  2  4  2  0  0  0  0
  2 12  1  0  0  0  0
  3  7  1  0  0  0  0
  3 13  1  0  0  0  0
  4  5  1  0  0  0  0
  4  7  1  0  0  0  0
  5  6  1  0  0  0  0
  5  8  1  0  0  0  0
  5 14  1  0  0  0  0
  6  9  1  0  0  0  0
  6 10  1  0  0  0  0
  6 15  1  0  0  0  0
  7 16  1  0  0  0  0
  8 17  1  0  0  0  0
  8 18  1  0  0  0  0
M  END
$$$$
