
  -OEChem-05262117483D

 30 31  0     0  0  0  0  0  0999 V2000
    3.3762   -0.0526    0.4045 C   0  0  0  0  0  0  0  0  0  0  0  0
    2.1289   -0.3912   -0.0922 C   0  0  0  0  0  0  0  0  0  0  0  0
    4.7949    1.4576    1.8168 C   0  0  0  0  0  0  0  0  0  0  0  0
    1.1277    1.4580    1.1067 C   0  0  0  0  0  0  0  0  0  0  0  0
    3.5367    1.0527    1.2679 C   0  0  0  0  0  0  0  0  0  0  0  0
    4.9471    2.5312    2.6552 C   0  0  0  0  0  0  0  0  0  0  0  0
    0.9844    0.3653    0.2558 C   0  0  0  0  0  0  0  0  0  0  0  0
    2.3921    1.8081    1.6151 C   0  0  0  0  0  0  0  0  0  0  0  0
    3.7624    3.3383    3.0305 C   0  0  0  0  0  0  0  0  0  0  0  0
    6.2976    2.8372    3.1487 C   0  0  0  0  0  0  0  0  0  0  0  0
   -0.3673   -0.0170   -0.2971 C   0  0  0  0  0  0  0  0  0  0  0  0
    8.5189    5.3098    3.8589 C   0  0  0  0  0  0  0  0  0  0  0  0
    8.0007    3.9374    4.3040 C   0  0  0  0  0  0  0  0  0  0  0  0
    6.6014    3.7883    3.9414 N   0  0  0  0  0  0  0  0  0  0  0  0
    2.5614    2.8845    2.4580 N   0  0  0  0  0  0  0  0  0  0  0  0
    3.7383    4.3215    3.7611 O   0  0  0  0  0  0  0  0  0  0  0  0
    4.2512   -0.6386    0.1330 H   0  0  0  0  0  0  0  0  0  0  0  0
    2.0211   -1.2453   -0.7560 H   0  0  0  0  0  0  0  0  0  0  0  0
    5.6759    0.8747    1.5492 H   0  0  0  0  0  0  0  0  0  0  0  0
    0.2579    2.0500    1.3845 H   0  0  0  0  0  0  0  0  0  0  0  0
    7.0694    2.1446    2.7630 H   0  0  0  0  0  0  0  0  0  0  0  0
   -0.6256   -1.0456   -0.0222 H   0  0  0  0  0  0  0  0  0  0  0  0
   -1.1571    0.6407    0.0746 H   0  0  0  0  0  0  0  0  0  0  0  0
   -0.3704    0.0361   -1.3916 H   0  0  0  0  0  0  0  0  0  0  0  0
    8.4987    5.3963    2.7676 H   0  0  0  0  0  0  0  0  0  0  0  0
    7.8924    6.1046    4.2735 H   0  0  0  0  0  0  0  0  0  0  0  0
    9.5492    5.4596    4.1993 H   0  0  0  0  0  0  0  0  0  0  0  0
    8.0649    3.8710    5.3976 H   0  0  0  0  0  0  0  0  0  0  0  0
    8.6379    3.1381    3.8846 H   0  0  0  0  0  0  0  0  0  0  0  0
    1.7553    3.4435    2.7211 H   0  0  0  0  0  0  0  0  0  0  0  0
  1  2  1  0  0  0  0
  1  5  2  0  0  0  0
  1 17  1  0  0  0  0
  2  7  2  0  0  0  0
  2 18  1  0  0  0  0
  3  5  1  0  0  0  0
  3  6  2  0  0  0  0
  3 19  1  0  0  0  0
  4  7  1  0  0  0  0
  4  8  2  0  0  0  0
  4 20  1  0  0  0  0
  5  8  1  0  0  0  0
  6  9  1  0  0  0  0
  6 10  1  0  0  0  0
  7 11  1  0  0  0  0
  8 15  1  0  0  0  0
  9 15  1  0  0  0  0
  9 16  2  0  0  0  0
 10 14  2  0  0  0  0
 10 21  1  0  0  0  0
 11 22  1  0  0  0  0
 11 23  1  0  0  0  0
 11 24  1  0  0  0  0
 12 13  1  0  0  0  0
 12 25  1  0  0  0  0
 12 26  1  0  0  0  0
 12 27  1  0  0  0  0
 13 14  1  0  0  0  0
 13 28  1  0  0  0  0
 13 29  1  0  0  0  0
 15 30  1  0  0  0  0
M  END
$$$$
