
  -OEChem-05262117483D

 25 26  0     0  0  0  0  0  0999 V2000
   -3.0549   -1.7890    0.1388 C   0  0  0  0  0  0  0  0  0  0  0  0
   -2.7247   -2.5382   -0.9979 C   0  0  0  0  0  0  0  0  0  0  0  0
   -1.9332    0.1497   -0.8480 C   0  0  0  0  0  0  0  0  0  0  0  0
   -1.6174   -0.5991   -1.9881 C   0  0  0  0  0  0  0  0  0  0  0  0
   -2.6472   -0.4630    0.1797 C   0  0  0  0  0  0  0  0  0  0  0  0
   -2.0222   -1.9458   -2.0348 C   0  0  0  0  0  0  0  0  0  0  0  0
    1.7225    0.7923   -1.0344 C   0  0  0  0  0  0  0  0  0  0  0  0
    2.0561    0.1054   -2.3612 C   0  0  0  0  0  0  0  0  0  0  0  0
    0.5717    1.7895   -2.7906 C   0  0  0  0  0  0  0  0  0  0  0  0
   -0.7683    1.2549   -3.3008 C   0  0  0  0  0  0  0  0  0  0  0  0
    0.6507    1.6884   -1.3719 O   0  0  0  0  0  0  0  0  0  0  0  0
    1.6755    1.0923   -3.3320 O   0  0  0  0  0  0  0  0  0  0  0  0
   -0.9283   -0.1482   -3.0744 O   0  0  0  0  0  0  0  0  0  0  0  0
   -2.9403    0.2813    1.2793 F   0  0  0  0  0  0  0  0  0  0  0  0
   -1.7107   -2.6767   -3.1326 F   0  0  0  0  0  0  0  0  0  0  0  0
   -3.6057   -2.2205    0.9675 H   0  0  0  0  0  0  0  0  0  0  0  0
   -3.0155   -3.5800   -1.0897 H   0  0  0  0  0  0  0  0  0  0  0  0
   -1.5922    1.1696   -0.7272 H   0  0  0  0  0  0  0  0  0  0  0  0
    1.3687    0.0980   -0.2675 H   0  0  0  0  0  0  0  0  0  0  0  0
    2.5678    1.3724   -0.6467 H   0  0  0  0  0  0  0  0  0  0  0  0
    3.1212   -0.0968   -2.4903 H   0  0  0  0  0  0  0  0  0  0  0  0
    1.4795   -0.8136   -2.5054 H   0  0  0  0  0  0  0  0  0  0  0  0
    0.6628    2.8424   -3.0912 H   0  0  0  0  0  0  0  0  0  0  0  0
   -0.7941    1.3787   -4.3870 H   0  0  0  0  0  0  0  0  0  0  0  0
   -1.5933    1.8266   -2.8622 H   0  0  0  0  0  0  0  0  0  0  0  0
  1  2  1  0  0  0  0
  1  5  2  0  0  0  0
  1 16  1  0  0  0  0
  2  6  2  0  0  0  0
  2 17  1  0  0  0  0
  3  4  2  0  0  0  0
  3  5  1  0  0  0  0
  3 18  1  0  0  0  0
  4  6  1  0  0  0  0
  4 13  1  0  0  0  0
  5 14  1  0  0  0  0
  6 15  1  0  0  0  0
  7  8  1  0  0  0  0
  7 11  1  0  0  0  0
  7 19  1  0  0  0  0
  7 20  1  0  0  0  0
  8 12  1  0  0  0  0
  8 21  1  0  0  0  0
  8 22  1  0  0  0  0
  9 10  1  0  0  0  0
  9 11  1  0  0  0  0
  9 12  1  0  0  0  0
  9 23  1  0  0  0  0
 10 13  1  0  0  0  0
 10 24  1  0  0  0  0
 10 25  1  0  0  0  0
M  END
$$$$
