25
0 1 C10F2H10O3
C                    -5.450323690426    -0.562827123821    -3.245982826487
C                    -4.588148411135    -1.578053433154    -2.807086380686
C                    -3.613134711966     1.039192803414    -3.046801820875
C                    -2.756116915481     0.022361324972    -2.607074889652
C                    -4.935829067686     0.719898926978    -3.353671452505
C                    -3.271861518294    -1.282867589827    -2.497038960530
C                     1.877766202306     3.123917519302    -1.114279054321
C                     1.071550608694     2.519783743185     0.029889220051
C                     0.549459430132     1.420734737077    -1.916580763322
C                    -0.903269477521     1.503289837469    -2.368810993136
O                     1.169548587081     2.655307661995    -2.269835291059
O                     0.680454544538     1.252614528693    -0.511461992814
O                    -1.450265974037     0.190044755778    -2.274533167582
F                    -5.746738050398     1.725365398761    -3.777436255886
F                    -2.445193130238    -2.268640419501    -2.075941898221
H                    -6.486580761554    -0.762286751818    -3.496135477515
H                    -4.933048363154    -2.602134856345    -2.703648852165
H                    -3.281822840068     2.064330723615    -3.157444647464
H                     1.878519232061     4.215866364270    -1.135216220541
H                     2.909617328102     2.750001531963    -1.121297192992
H                     1.648766785846     2.336503872449     0.938374389871
H                     0.191941125814     3.132468075799     0.270147744227
H                     1.050430849877     0.570524916535    -2.395829246898
H                    -0.935980725552     1.862729303775    -3.404636790128
H                    -1.449273052378     2.202280300798    -1.723796240162
