
  -OEChem-05262117483D

 20 20  0     0  0  0  0  0  0999 V2000
    2.0888   -1.1190   -0.0457 C   0  0  0  0  0  0  0  0  0  0  0  0
    1.0665   -0.4995    0.6716 C   0  0  0  0  0  0  0  0  0  0  0  0
    3.0643   -1.8571    0.6165 C   0  0  0  0  0  0  0  0  0  0  0  0
    1.0023   -0.6340    2.0678 C   0  0  0  0  0  0  0  0  0  0  0  0
    3.0447   -1.9948    2.0171 C   0  0  0  0  0  0  0  0  0  0  0  0
    1.9923   -1.3810    2.7314 C   0  0  0  0  0  0  0  0  0  0  0  0
   -0.1571   -0.0223    2.7907 C   0  0  0  0  0  0  0  0  0  0  0  0
   -1.7864    1.6845    2.7235 C   0  0  0  0  0  0  0  0  0  0  0  0
    4.0778   -2.6673    2.6679 N   0  0  0  0  0  0  0  0  0  0  0  0
   -0.6554   -0.4350    3.8197 O   0  0  0  0  0  0  0  0  0  0  0  0
   -0.6274    1.0671    2.1289 O   0  0  0  0  0  0  0  0  0  0  0  0
    2.0112   -1.5522    4.4789 Cl  0  0  0  0  0  0  0  0  0  0  0  0
    2.1281   -1.0244   -1.1272 H   0  0  0  0  0  0  0  0  0  0  0  0
    0.3063    0.0824    0.1650 H   0  0  0  0  0  0  0  0  0  0  0  0
    3.8696   -2.3275    0.0564 H   0  0  0  0  0  0  0  0  0  0  0  0
   -2.0306    2.5260    2.0751 H   0  0  0  0  0  0  0  0  0  0  0  0
   -1.5572    2.0301    3.7342 H   0  0  0  0  0  0  0  0  0  0  0  0
   -2.6171    0.9760    2.7673 H   0  0  0  0  0  0  0  0  0  0  0  0
    4.5423   -3.3700    2.1060 H   0  0  0  0  0  0  0  0  0  0  0  0
    3.8590   -2.9957    3.6010 H   0  0  0  0  0  0  0  0  0  0  0  0
  1  2  1  0  0  0  0
  1  3  2  0  0  0  0
  1 13  1  0  0  0  0
  2  4  2  0  0  0  0
  2 14  1  0  0  0  0
  3  5  1  0  0  0  0
  3 15  1  0  0  0  0
  4  6  1  0  0  0  0
  4  7  1  0  0  0  0
  5  6  2  0  0  0  0
  5  9  1  0  0  0  0
  6 12  1  0  0  0  0
  7 10  2  0  0  0  0
  7 11  1  0  0  0  0
  8 11  1  0  0  0  0
  8 16  1  0  0  0  0
  8 17  1  0  0  0  0
  8 18  1  0  0  0  0
  9 19  1  0  0  0  0
  9 20  1  0  0  0  0
M  END
$$$$
