
  -OEChem-05262117483D

 27 28  0     0  0  0  0  0  0999 V2000
   -2.3776   -0.0284    4.5066 C   0  0  0  0  0  0  0  0  0  0  0  0
   -1.9301    0.1940    3.2045 C   0  0  0  0  0  0  0  0  0  0  0  0
   -3.5386   -0.7713    4.7551 C   0  0  0  0  0  0  0  0  0  0  0  0
   -3.8448   -1.0387    2.3465 C   0  0  0  0  0  0  0  0  0  0  0  0
   -2.6585   -0.3272    2.1194 C   0  0  0  0  0  0  0  0  0  0  0  0
   -4.2444   -1.2591    3.6593 C   0  0  0  0  0  0  0  0  0  0  0  0
   -0.4370   -2.1860    1.5295 C   0  0  0  0  0  0  0  0  0  0  0  0
    0.9747   -0.9700   -0.0280 C   0  0  0  0  0  0  0  0  0  0  0  0
    0.8289   -2.5918    2.2824 C   0  0  0  0  0  0  0  0  0  0  0  0
    2.1888   -1.3985    0.7887 C   0  0  0  0  0  0  0  0  0  0  0  0
   -2.3249    0.0138    0.7775 N   0  0  0  0  0  0  0  0  0  0  0  0
   -1.2036   -0.1732    0.2448 N   0  0  0  0  0  0  0  0  0  0  0  0
   -0.1965   -0.8931    0.8577 N   0  0  0  0  0  0  0  0  0  0  0  0
    1.9670   -2.6533    1.4293 O   0  0  0  0  0  0  0  0  0  0  0  0
   -5.3790   -1.9724    3.8781 F   0  0  0  0  0  0  0  0  0  0  0  0
   -1.8154    0.3778    5.3432 H   0  0  0  0  0  0  0  0  0  0  0  0
   -1.0234    0.7607    3.0190 H   0  0  0  0  0  0  0  0  0  0  0  0
   -3.8990   -0.9595    5.7612 H   0  0  0  0  0  0  0  0  0  0  0  0
   -4.4358   -1.4137    1.5170 H   0  0  0  0  0  0  0  0  0  0  0  0
   -0.6859   -2.9439    0.7718 H   0  0  0  0  0  0  0  0  0  0  0  0
   -1.2599   -2.1205    2.2351 H   0  0  0  0  0  0  0  0  0  0  0  0
    1.1361    0.0160   -0.4677 H   0  0  0  0  0  0  0  0  0  0  0  0
    0.7984   -1.6916   -0.8393 H   0  0  0  0  0  0  0  0  0  0  0  0
    1.0072   -1.8787    3.1018 H   0  0  0  0  0  0  0  0  0  0  0  0
    0.7044   -3.5911    2.7066 H   0  0  0  0  0  0  0  0  0  0  0  0
    3.0570   -1.5305    0.1386 H   0  0  0  0  0  0  0  0  0  0  0  0
    2.4219   -0.6290    1.5408 H   0  0  0  0  0  0  0  0  0  0  0  0
  1  2  1  0  0  0  0
  1  3  2  0  0  0  0
  1 16  1  0  0  0  0
  2  5  2  0  0  0  0
  2 17  1  0  0  0  0
  3  6  1  0  0  0  0
  3 18  1  0  0  0  0
  4  5  1  0  0  0  0
  4  6  2  0  0  0  0
  4 19  1  0  0  0  0
  5 11  1  0  0  0  0
  6 15  1  0  0  0  0
  7  9  1  0  0  0  0
  7 13  1  0  0  0  0
  7 20  1  0  0  0  0
  7 21  1  0  0  0  0
  8 10  1  0  0  0  0
  8 13  1  0  0  0  0
  8 22  1  0  0  0  0
  8 23  1  0  0  0  0
  9 14  1  0  0  0  0
  9 24  1  0  0  0  0
  9 25  1  0  0  0  0
 10 14  1  0  0  0  0
 10 26  1  0  0  0  0
 10 27  1  0  0  0  0
 11 12  2  0  0  0  0
 12 13  1  0  0  0  0
M  END
$$$$
