39   
torsion grid (-90,)
C        1.6801958041   -4.3618110279   -0.6678270714
C        2.1235034636   -3.3807259758    1.4804708628
C        0.7067395904    1.2826382912    1.2246738174
C        2.5365740582   -5.4229933273   -0.3731478694
C        2.9781314642   -4.4392070944    1.7952298391
C        0.0008976306    2.4539376685    1.5071132163
C       -1.5983686094    1.8389207671   -0.2022019063
C        1.4510804720   -3.3249115964    0.2509378962
C        0.2767612940    0.3613100178    0.2560989119
C       -0.8981346533    0.6617230302   -0.4691002532
C        3.1868312277   -5.4654328701    0.8649212609
C       -1.1627696759    2.7308490885    0.7852765209
C       -0.7288956459   -2.4978626522   -0.4581625878
C        0.5248828409   -2.1890963183   -0.0558720738
C        1.1434004493   -0.8482106156    0.0905892842
C        2.4015645868   -0.6031585282   -0.4540575630
C       -1.3966016152   -0.2737289041   -1.5384101096
C       -1.8444644976   -1.6180220631   -0.9545097774
C        3.8197910798   -0.7374122255    0.0752948093
O        4.0208474587   -6.5323803137    1.1111629940
O       -1.9164984028    3.8607693941    0.9911973117
H        1.1907948534   -4.3253571281   -1.6374828659
H        1.9670825586   -2.5878593507    2.2075358510
H        1.6125631079    1.0667463018    1.7846619763
H        2.7181663600   -6.2176412982   -1.0910316326
H        3.4779552283   -4.4672123838    2.7627816961
H        0.3555396373    3.1398155585    2.2749066714
H       -2.4951537483    2.0870287408   -0.7638733737
H       -0.9539492503   -3.5629264315   -0.4870836816
H        2.3830710697    0.4310116598   -0.8303289720
H       -2.2347739889    0.1899312599   -2.0677377250
H       -0.6055320382   -0.4537207460   -2.2764757686
H       -2.3828214978   -2.1760769412   -1.7309439263
H       -2.5772513217   -1.4421377729   -0.1532949564
H        3.9329562601    0.0342543781    0.8459391554
H        4.5552710711   -0.5267774679   -0.7084753172
H        4.0609761435   -1.7074437620    0.5193340011
H        4.4009772770   -6.4358982894    1.9984824753
H       -1.5061990392    4.3898772088    1.6935865361
39   
torsion grid (-75,)
C        1.6705125248   -4.3780871597   -0.5896470477
C        2.1041268365   -3.2865548149    1.5082214651
C        0.6877747812    1.2468604151    1.2883141014
C        2.4996039210   -5.4385905928   -0.2221977537
C        2.9298585956   -4.3430621466    1.8952433702
C       -0.0543546453    2.3791192177    1.6350752485
C       -1.6231484228    1.8319241153   -0.1251567525
C        1.4510041708   -3.2865713945    0.2661869323
C        0.2881870313    0.3820474335    0.2596541379
C       -0.8862074547    0.6946328376   -0.4584607411
C        3.1295511859   -5.4245356486    1.0267301730
C       -1.2200636870    2.6694905636    0.9219141623
C       -0.6898075699   -2.4493460582   -0.5442018140
C        0.5567380855   -2.1513519233   -0.1170832836
C        1.1734728812   -0.7982335733   -0.0000884784
C        2.3840414225   -0.5164297879   -0.5967096594
C       -1.3351059005   -0.1906281718   -1.5907387813
C       -1.7806759103   -1.5702523344   -1.0942047369
C        3.8073813138   -0.8948496865   -0.2367579445
O        3.9374572077   -6.4920803092    1.3453467014
O       -2.0066917868    3.7640188303    1.1929004555
H        1.1986304463   -4.3850572361   -1.5685280513
H        1.9591288091   -2.4477598300    2.1844050090
H        1.5970485147    1.0209178734    1.8392500042
H        2.6752809857   -6.2756405870   -0.8917587138
H        3.4162376329   -4.3262927925    2.8698473379
H        0.2753168271    3.0259124745    2.4467236329
H       -2.5212024052    2.0912749687   -0.6797806517
H       -0.9409319223   -3.5092933264   -0.5345597518
H        2.4145741050    0.5465569324   -0.8692076132
H       -2.1638332923    0.2852195275   -2.1242275580
H       -0.5167398424   -0.3188068413   -2.3094799750
H       -2.2467567135   -2.1099337977   -1.9291528885
H       -2.5742945738   -1.4482800520   -0.3423697625
H        4.0933421414   -0.2494219002    0.6023895070
H        4.4993373604   -0.6833089434   -1.0596753440
H        3.9442514575   -1.9346366065    0.0679159173
H        4.3059786485   -6.3540312389    2.2320807450
H       -1.6161718364    4.2569892113    1.9318046985
39   
torsion grid (-60,)
C        1.6016624202   -4.4044278157   -0.4906743184
C        2.1388714577   -3.1330652249    1.4781158607
C        0.6574563288    1.1873574452    1.3825655648
C        2.3943345325   -5.4594802199   -0.0387981882
C        2.9305052798   -4.1817070061    1.9473912858
C       -0.1265153525    2.2646909915    1.8075226739
C       -1.6489193358    1.8253855698   -0.0239192133
C        1.4502853315   -3.2247730429    0.2579589574
C        0.3004891302    0.4077326581    0.2761176537
C       -0.8691232072    0.7444473630   -0.4373698751
C        3.0594051613   -5.3518866994    1.1874249855
C       -1.2884305757    2.5804560201    1.0988909553
C       -0.6382856779   -2.3756873525   -0.6798018420
C        0.5959217135   -2.0944781022   -0.2103867024
C        1.2018675048   -0.7290491673   -0.0973474883
C        2.3714011576   -0.4007211092   -0.7233492627
C       -1.2572571922   -0.0618960226   -1.6490471700
C       -1.6935340458   -1.4839584601   -1.2772399893
C        3.7595826073   -0.9863815592   -0.5909693759
O        3.8313017501   -6.4174014572    1.5901334551
O       -2.1129455938    3.6250830626    1.4477242265
H        1.1097502688   -4.4858031853   -1.4561417384
H        2.0510368719   -2.2257202155    2.0702060781
H        1.5644842324    0.9418656949    1.9291782038
H        2.5173155389   -6.3641715110   -0.6272228892
H        3.4462759838   -4.0898995292    2.9024954276
H        0.1685473614    2.8502433847    2.6769890525
H       -2.5451690783    2.1047535656   -0.5718310976
H       -0.9241333865   -3.4265952725   -0.6473681530
H        2.4536856983    0.6813822221   -0.8751086313
H       -2.0758369165    0.4350944247   -2.1790316846
H       -0.4091844886   -0.1187151746   -2.3416525418
H       -2.0732093880   -1.9820870120   -2.1799539521
H       -2.5504222887   -1.4319584558   -0.5894042996
H        4.2153961380   -0.5229146432    0.2923782054
H        4.3888909806   -0.7309913245   -1.4512967166
H        3.7845462305   -2.0690272911   -0.4570243164
H        4.2317129448   -6.2092576794    2.4489283150
H       -1.7500134786    4.0625525271    2.2340343650
39   
torsion grid (-45,)
C        1.5750215769   -4.4366772666   -0.3965121388
C        2.1823172586   -3.0468435540    1.4686327577
C        0.6584676941    1.1206168609    1.4373530765
C        2.3398323362   -5.4821995134    0.1191169045
C        2.9479767240   -4.0847883698    2.0006847929
C       -0.1546823095    2.1577626794    1.9067965182
C       -1.6478340538    1.7817337359    0.0370499866
C        1.4713905506   -3.2015491391    0.2676141938
C        0.3306409402    0.3961455561    0.2867872584
C       -0.8378608496    0.7430250561   -0.4236113867
C        3.0273975618   -5.3097185483    1.3257145089
C       -1.3160445281    2.4843607642    1.2021576117
C       -0.5789776470   -2.3561801924   -0.7637586260
C        0.6453159510   -2.0810120209   -0.2662789438
C        1.2393207808   -0.7078864762   -0.1560252232
C        2.4100679547   -0.3605079340   -0.7494386086
C       -1.1873359655   -0.0111285033   -1.6807185488
C       -1.6108261464   -1.4566290560   -1.3896523454
C        3.7218200475   -1.1062038698   -0.8010326803
O        3.7716674156   -6.3685975408    1.7925073739
O       -2.1682052211    3.4905432448    1.5964412750
H        1.0701796653   -4.5711641888   -1.3492120430
H        2.1329869220   -2.0979766032    1.9961912507
H        1.5638512779    0.8654927399    1.9823697276
H        2.4253311761   -6.4295662720   -0.4053296142
H        3.4821480346   -3.9415628123    2.9392163848
H        0.1168571439    2.7034129386    2.8092840087
H       -2.5447396293    2.0692615558   -0.5055610726
H       -0.8877578647   -3.4000247192   -0.7162374694
H        2.5669292945    0.7201246537   -0.8118361490
H       -2.0022054861    0.4973003879   -2.2055879106
H       -0.3232214574   -0.0208376369   -2.3551708980
H       -1.9342736977   -1.9248137680   -2.3299869401
H       -2.5031018137   -1.4480423883   -0.7463747776
H        4.2769943574   -0.8661592077    0.1142151958
H        4.3349742849   -0.7764995480   -1.6475593750
H        3.6193050634   -2.1909530729   -0.8536817504
H        4.1932537325   -6.1130110453    2.6280587395
H       -1.8230607896    3.8937483938    2.4086075089
39   
torsion grid (-30,)
C        1.5532285547   -4.3931828850   -0.3889695318
C        2.1954779853   -2.9545633202    1.4262739274
C        0.6266314314    1.1345390121    1.4531699100
C        2.3071416797   -5.4317045734    0.1548343964
C        2.9514335799   -3.9854032531    1.9858516026
C       -0.2032863604    2.1481431955    1.9450103837
C       -1.6838506646    1.7992971807    0.0604653013
C        1.4721597511   -3.1357520115    0.2365119070
C        0.3152981862    0.4383631518    0.2814325397
C       -0.8556857343    0.7864459020   -0.4245768010
C        3.0075926025   -5.2318960278    1.3500111336
C       -1.3668820860    2.4762768532    1.2448327099
C       -0.5647947149   -2.3017311579   -0.8354089666
C        0.6538856770   -2.0235540416   -0.3253323772
C        1.2261586377   -0.6428981521   -0.2049514841
C        2.4193227776   -0.2848783638   -0.7334405318
C       -1.1822257462    0.0629851542   -1.7063625738
C       -1.5884989018   -1.3980419774   -1.4689988529
C        3.6457058331   -1.1283674634   -0.9632048867
O        3.7407093397   -6.2863705201    1.8435808087
O       -2.2356573779    3.4590589095    1.6623036798
H        1.0406497567   -4.5517961576   -1.3337827492
H        2.1635382255   -1.9897276710    1.9248242658
H        1.5316161891    0.8761803089    1.9972182268
H        2.3750113837   -6.3962546355   -0.3399961561
H        3.4953208221   -3.8195026344    2.9150557316
H        0.0561497039    2.6732963480    2.8631017035
H       -2.5830075351    2.0875655771   -0.4780083487
H       -0.8806919437   -3.3433301542   -0.7860651735
H        2.6218723655    0.7881323947   -0.7186390975
H       -1.9986981137    0.5751543007   -2.2251165898
H       -0.3108356599    0.0875845840   -2.3710187945
H       -1.8777219930   -1.8430103849   -2.4317823321
H       -2.4990984477   -1.4226460858   -0.8524554539
H        4.2744607578   -1.0890763588   -0.0645745093
H        4.2437097848   -0.7352192816   -1.7933656591
H        3.4260906271   -2.1772948528   -1.1650633149
H        4.1734267335   -6.0108689282    2.6670403489
H       -1.8989631739    3.8462404216    2.4857174582
39   
torsion grid (-15,)
C        1.5549034066   -4.3855673619   -0.3706857037
C        2.2034558459   -2.9279688538    1.4269698379
C        0.6119970357    1.1206403564    1.4687123769
C        2.3013398720   -5.4228064370    0.1851890395
C        2.9522898805   -3.9577267703    1.9985061774
C       -0.2270065270    2.1249419995    1.9641873334
C       -1.6921721108    1.7894263330    0.0638620114
C        1.4806441713   -3.1197118984    0.2388676180
C        0.3138471615    0.4386460472    0.2854348004
C       -0.8538849951    0.7872466457   -0.4258281989
C        3.0019333433   -5.2122227764    1.3784234358
C       -1.3863119426    2.4548759855    1.2575974558
C       -0.5523487207   -2.2966738367   -0.8509862531
C        0.6644923101   -2.0135094259   -0.3384914173
C        1.2265630183   -0.6297054500   -0.2222090023
C        2.4561000348   -0.2834621750   -0.6591225359
C       -1.1672185695    0.0711250190   -1.7155701682
C       -1.5722482129   -1.3926080668   -1.4899778099
C        3.6017073951   -1.1815326288   -1.0401864532
O        3.7285687199   -6.2647252039    1.8855582510
O       -2.2632061340    3.4287764498    1.6793711000
H        1.0420598770   -4.5527229634   -1.3138962574
H        2.1768442589   -1.9579400271    1.9151149314
H        1.5124012294    0.8588131790    2.0186402714
H        2.3634327961   -6.3935226847   -0.2982317586
H        3.4961828826   -3.7840778963    2.9262869574
H        0.0212397333    2.6403099460    2.8909100964
H       -2.5895213256    2.0779065578   -0.4775416168
H       -0.8730383514   -3.3363025615   -0.7930851023
H        2.7118896275    0.7740674762   -0.5832441189
H       -1.9807306104    0.5837417731   -2.2384825581
H       -0.2900834557    0.1022999160   -2.3724488980
H       -1.8552313475   -1.8334715411   -2.4565550788
H       -2.4865050634   -1.4214434539   -0.8790166725
H        4.2647146674   -1.3263264595   -0.1773277489
H        4.2018149747   -0.7250362395   -1.8356083553
H        3.2822495834   -2.1692161323   -1.3745273340
H        4.1621332952   -5.9815254713    2.7059571148
H       -1.9343156252    3.8084828490    2.5093758973
39   
torsion grid (0,)
C        1.5913798867   -4.3516021579   -0.3710639276
C        2.2277149878   -2.9004223053    1.4350186899
C        0.6305777405    1.1488354418    1.4693382983
C        2.3353154877   -5.3906911797    0.1849199470
C        2.9739479234   -3.9318529202    2.0071572043
C       -0.2131277514    2.1506259781    1.9614409542
C       -1.6757970403    1.8073476269    0.0600856660
C        1.5128037434   -3.0876490812    0.2416521264
C        0.3371648185    0.4660817710    0.2850689585
C       -0.8315216039    0.8088827414   -0.4270151337
C        3.0287766992   -5.1840170589    1.3828291565
C       -1.3728460600    2.4755085415    1.2528364393
C       -0.5277877007   -2.2758170931   -0.8396699182
C        0.6925559954   -1.9848733611   -0.3385700900
C        1.2474671727   -0.5987599337   -0.2312020164
C        2.5156026119   -0.2750917481   -0.5591042473
C       -1.1399301784    0.0875971457   -1.7153370050
C       -1.5463397960   -1.3754270290   -1.4860982773
C        3.6001799355   -1.1780807161   -1.0773587843
O        3.7533667448   -6.2375990496    1.8905473943
O       -2.2539969993    3.4462802829    1.6733104390
H        1.0831662742   -4.5157451263   -1.3173229857
H        2.1974700034   -1.9331229464    1.9277129916
H        1.5288313617    0.8884744819    2.0233875992
H        2.4005248998   -6.3594573924   -0.3019649497
H        3.5115467036   -3.7611976152    2.9391684430
H        0.0307853286    2.6669498584    2.8888125753
H       -2.5743864200    2.0901277230   -0.4823125617
H       -0.8513146455   -3.3135190679   -0.7654923119
H        2.8021569660    0.7673959616   -0.4197036648
H       -1.9501129714    0.5990413504   -2.2445417245
H       -0.2596103482    0.1156347217   -2.3683904037
H       -1.8253013793   -1.8204685988   -2.4520273825
H       -2.4627916610   -1.4024443729   -0.8784557018
H        4.3126144278   -1.4294408953   -0.2805007925
H        4.1671764941   -0.6708418793   -1.8666583327
H        3.2150623225   -2.1159717790   -1.4785364752
H        4.1815897450   -5.9569928235    2.7146433758
H       -1.9259536727    3.8294396595    2.5020491041
39   
torsion grid (15,)
C        1.5728645712   -4.3523805299   -0.3843995499
C        2.1991650951   -2.9213336874    1.4411810620
C        0.5987311404    1.1437207972    1.4635971298
C        2.3174964067   -5.3965739915    0.1618462350
C        2.9451342092   -3.9583647903    2.0030076060
C       -0.2453575239    2.1487721241    1.9476429470
C       -1.6977213966    1.8017254044    0.0406377054
C        1.4899859555   -3.0959616171    0.2424176771
C        0.3128757971    0.4585009283    0.2786070455
C       -0.8525642109    0.7999860625   -0.4389552552
C        3.0063689049   -5.2032227357    1.3641968822
C       -1.4001769605    2.4751249760    1.2313999660
C       -0.5634815722   -2.2876948955   -0.8141386672
C        0.6636877360   -1.9930447269   -0.3307287418
C        1.2206785889   -0.6073757869   -0.2402505909
C        2.5205061644   -0.3147037227   -0.4566653004
C       -1.1636858374    0.0655139505   -1.7192691417
C       -1.5807460772   -1.3912519412   -1.4677317663
C        3.5623859450   -1.1811957547   -1.1071510661
O        3.7318976740   -6.2607533909    1.8624761446
O       -2.2814611208    3.4495052140    1.6439347047
H        1.0660352049   -4.5061813383   -1.3331683574
H        2.1642524623   -1.9609370778    1.9464338922
H        1.4911766114    0.8816779703    2.0261325366
H        2.3864107824   -6.3592896330   -0.3363460250
H        3.4772849178   -3.7984097909    2.9400174140
H       -0.0067269692    2.6654972650    2.8761835838
H       -2.5942228967    2.0819183857   -0.5064927592
H       -0.8915905743   -3.3222528128   -0.7194646423
H        2.8272280528    0.7122962855   -0.2577468017
H       -1.9701768224    0.5752364366   -2.2556415756
H       -0.2829445592    0.0777839943   -2.3724069303
H       -1.8682761195   -1.8485966359   -2.4254083262
H       -2.4940534693   -1.4016491585   -0.8548948204
H        4.3501241364   -1.4696773716   -0.3983720950
H        4.0493056492   -0.6205166513   -1.9141084097
H        3.1449733304   -2.0970211892   -1.5262562579
H        4.1563497320   -5.9884500926    2.6912863078
H       -1.9564158257    3.8352123878    2.4726456295
39   
torsion grid (30,)
C        1.5600537519   -4.3632841746   -0.4073237184
C        2.1805811207   -2.9642303128    1.4448488703
C        0.5859483056    1.1369732457    1.4458471918
C        2.3063299675   -5.4162077557    0.1204608138
C        2.9274681944   -4.0095502216    1.9892693855
C       -0.2554130919    2.1501845199    1.9161393347
C       -1.7010836593    1.7929557029    0.0071360822
C        1.4746340978   -3.1184037157    0.2413060916
C        0.3028209307    0.4431322322    0.2644303909
C       -0.8591480307    0.7820851227   -0.4594284269
C        2.9924845810   -5.2421990471    1.3269636299
C       -1.4049513974    2.4773276414    1.1914522843
C       -0.5957405891   -2.3090815219   -0.7759401372
C        0.6408795068   -2.0122179527   -0.3162681475
C        1.2073585164   -0.6293787303   -0.2493446514
C        2.5313552011   -0.3726871705   -0.3491024113
C       -1.1776173378    0.0272885909   -1.7258515248
C       -1.6108857828   -1.4182856953   -1.4399574613
C        3.5565176819   -1.1625561534   -1.1145984768
O        3.7193540218   -6.3066961810    1.8077837146
O       -2.2825808712    3.4604455780    1.5912339920
H        1.0528592528   -4.5003383233   -1.3584318583
H        2.1412547761   -2.0142787813    1.9688168480
H        1.4717055060    0.8740161515    2.0183430189
H        2.3778673170   -6.3696372453   -0.3949400223
H        3.4563326333   -3.8662490032    2.9308517906
H       -0.0195015679    2.6720643942    2.8425036521
H       -2.5951992293    2.0700023744   -0.5454373695
H       -0.9303361161   -3.3386149950   -0.6536505639
H        2.8423991322    0.6407947550   -0.0924254517
H       -1.9778741627    0.5349418836   -2.2733768446
H       -0.2969212962    0.0143645642   -2.3792958821
H       -1.9101826387   -1.8942620270   -2.3850020688
H       -2.5196853302   -1.4044933648   -0.8206216024
H        4.4328721611   -1.4130481282   -0.5024255829
H        3.9158310505   -0.5483137302   -1.9495062423
H        3.1545414568   -2.0925641629   -1.5183587479
H        4.1421654013   -6.0479281448    2.6417566093
H       -1.9586321399    3.8523150212    2.4174706887
39   
torsion grid (45,)
C        1.5633271097   -4.3727149279   -0.4096922994
C        2.1668259583   -3.0178095425    1.4812210083
C        0.5815013534    1.1245530326    1.4496474914
C        2.3143310887   -5.4345615339    0.0943734338
C        2.9167657273   -4.0724218892    2.0023521340
C       -0.2596799701    2.1444894799    1.9037019776
C       -1.6889773531    1.7774115188   -0.0143443138
C        1.4687897053   -3.1455602242    0.2698205797
C        0.3086709176    0.4209831113    0.2707074026
C       -0.8471889361    0.7578621404   -0.4633318785
C        2.9934805246   -5.2870370159    1.3078988678
C       -1.4002312388    2.4723919586    1.1647956610
C       -0.6185610241   -2.3297417359   -0.7020178043
C        0.6284348525   -2.0337325625   -0.2685955847
C        1.2152585293   -0.6581271440   -0.2331264145
C        2.5530127865   -0.4385907557   -0.2165197225
C       -1.1714448506   -0.0184330244   -1.7146673683
C       -1.6260007759   -1.4489005301   -1.3897254125
C        3.5873504269   -1.1159538782   -1.0760162333
O        3.7245958577   -6.3587390583    1.7655101587
O       -2.2759494880    3.4640316868    1.5476805138
H        1.0578105756   -4.4880166314   -1.3645666914
H        2.1169740229   -2.0829175793    2.0306926840
H        1.4582173447    0.8626300080    2.0361499902
H        2.3936937984   -6.3742388926   -0.4445669757
H        3.4384240756   -3.9512789913    2.9510295495
H       -0.0310456329    2.6710230128    2.8292863232
H       -2.5782763626    2.0503702194   -0.5766456560
H       -0.9614207740   -3.3517888732   -0.5450634364
H        2.8648124316    0.5586360769    0.1002557490
H       -1.9626036431    0.4875930289   -2.2766413434
H       -0.2896205661   -0.0617481961   -2.3654015946
H       -1.9282527454   -1.9489539884   -2.3214948371
H       -2.5359120480   -1.4060131894   -0.7735552637
H        4.5246015849   -1.3083648118   -0.5386338306
H        3.8248661835   -0.4392429357   -1.9060428471
H        3.2368293880   -2.0626231046   -1.4924322698
H        4.1421222448   -6.1182702577    2.6075807822
H       -1.9570359721    3.8616969417    2.3730895085
39   
torsion grid (60,)
C        1.5502752077   -4.3765652268   -0.4097535883
C        2.1436984153   -3.0661103555    1.5155921702
C        0.5796770989    1.1366999533    1.4251630474
C        2.3118272743   -5.4450383774    0.0653701251
C        2.9022503266   -4.1276302708    2.0088308326
C       -0.2538128079    2.1750880118    1.8486156840
C       -1.6674109041    1.7857374934   -0.0737520707
C        1.4469857165   -3.1684395999    0.3007561553
C        0.3120363514    0.4111599614    0.2574945845
C       -0.8354068954    0.7443139853   -0.4912377761
C        2.9902527000   -5.3226748022    1.2816515004
C       -1.3815133902    2.5048771864    1.0905752764
C       -0.6617899091   -2.3438526766   -0.6135823881
C        0.5981735263   -2.0510099796   -0.2145759592
C        1.2123126480   -0.6873711989   -0.2253972556
C        2.5565722401   -0.5052568551   -0.1067887663
C       -1.1760291781   -0.0701529292   -1.7132104613
C       -1.6628438045   -1.4733344701   -1.3227247303
C        3.6218139721   -1.0369013861   -1.0329327026
O        3.7313663867   -6.3989990440    1.7114022711
O       -2.2464171795    3.5174581659    1.4423636551
H        1.0412229495   -4.4712373003   -1.3649926921
H        2.0836936704   -2.1472997393    2.0906636525
H        1.4442886881    0.8774971964    2.0302747324
H        2.3985442006   -6.3698321605   -0.4976300711
H        3.4217412454   -4.0279596698    2.9611770841
H       -0.0290652809    2.7156296075    2.7670406127
H       -2.5494114688    2.0540231155   -0.6495737016
H       -1.0143565653   -3.3552119644   -0.4146190591
H        2.8453107857    0.4797284243    0.2698242604
H       -1.9556680501    0.4307363523   -2.2954146209
H       -0.2963651262   -0.1628619411   -2.3617252002
H       -1.9888461074   -2.0069953715   -2.2275053034
H       -2.5628465503   -1.3810906348   -0.6975257905
H        4.5885258214   -1.1766919431   -0.5339043981
H        3.7656517114   -0.2874694691   -1.8202341530
H        3.3433128903   -1.9835345867   -1.5046013916
H        4.1474535702   -6.1762682348    2.5590393370
H       -1.9298451115    3.9289006532    2.2618870244
39   
torsion grid (75,)
C        1.5326701032   -4.3806372759   -0.4290748762
C        2.1332401861   -3.1070594395    1.5195930392
C        0.5928516610    1.1437991710    1.3927667798
C        2.3030550922   -5.4550584391    0.0191576799
C        2.8985720893   -4.1751644647    1.9868771358
C       -0.2318290124    2.1954118373    1.7983823185
C       -1.6429489327    1.7911189611   -0.1213476990
C        1.4302774907   -3.1881110645    0.3064750369
C        0.3246017385    0.4022613877    0.2344623480
C       -0.8212601321    0.7327621068   -0.5180339209
C        2.9880642407   -5.3541247211    1.2334225228
C       -1.3522239415    2.5273604502    1.0300701592
C       -0.7003247433   -2.3505275236   -0.5418830691
C        0.5744906201   -2.0642103543   -0.1846221969
C        1.2136124473   -0.7142022714   -0.2399070025
C        2.5614871902   -0.5563706117   -0.0514793085
C       -1.1844654620   -0.1110774748   -1.7128094478
C       -1.6971077515   -1.4885653471   -1.2670508341
C        3.6721407056   -0.8851881926   -1.0220484516
O        3.7364889719   -6.4355198939    1.6369595570
O       -2.2055850897    3.5563196695    1.3619324220
H        1.0141330478   -4.4583893036   -1.3807170571
H        2.0699959789   -2.2013761892    2.1149095735
H        1.4496118167    0.8866527498    2.0094047505
H        2.3898504587   -6.3681595222   -0.5625867037
H        3.4217939080   -4.0939310400    2.9389286828
H       -0.0058915580    2.7449296901    2.7112054973
H       -2.5221302946    2.0560190989   -0.7030443375
H       -1.0617317040   -3.3499605482   -0.3026199784
H        2.7944653610    0.4172730781    0.3928370611
H       -1.9575053508    0.3866908058   -2.3062993191
H       -0.3119981209   -0.2458624528   -2.3635914674
H       -2.0428965820   -2.0490722030   -2.1481071866
H       -2.5879623282   -1.3552348645   -0.6363485618
H        4.6494102932   -0.9722621355   -0.5325488540
H        3.7287208124   -0.0472386231   -1.7260147431
H        3.4940505532   -1.8031831008   -1.5919016171
H        4.1570140579   -6.2278518146    2.4862236917
H       -1.8870171900    3.9768834327    2.1760307120
39   
torsion grid (90,)
C        1.4786610431   -4.4333374083   -0.3822276034
C        2.1309535326   -3.1243766336    1.5254514251
C        0.6284644294    1.0927355688    1.3722820695
C        2.2322092861   -5.5125442769    0.0833895964
C        2.8784108200   -4.1967602525    2.0112076396
C       -0.1927390023    2.1441102630    1.7845685612
C       -1.6024081289    1.7623088819   -0.1397651751
C        1.4111742737   -3.2202976189    0.3230565795
C        0.3590351092    0.3608664813    0.2078920324
C       -0.7870622112    0.7005050126   -0.5411563147
C        2.9338868256   -5.3957751383    1.2865211192
C       -1.3089620853    2.4897067348    1.0160653074
C       -0.7168214039   -2.3640317909   -0.5152229193
C        0.5689597522   -2.0927543734   -0.1840230662
C        1.2388457973   -0.7599315943   -0.2887328391
C        2.5933207430   -0.6051000721   -0.0853803356
C       -1.1649085398   -0.1449921820   -1.7300031690
C       -1.7001550260   -1.5067586101   -1.2632172258
C        3.7405473009   -0.6805709668   -1.0726430887
O        3.6640351740   -6.4824904031    1.7088580797
O       -2.1555768957    3.5226166413    1.3531653156
H        0.9458520655   -4.5242464697   -1.3246860054
H        2.0929081457   -2.2039545096    2.0998413519
H        1.4820438809    0.8294174359    1.9906697557
H        2.2926432765   -6.4414682793   -0.4762236165
H        3.4141929524   -4.1032334459    2.9551105503
H        0.0337541638    2.6842626708    2.7028326261
H       -2.4799139516    2.0345200063   -0.7206556977
H       -1.0976187553   -3.3445249657   -0.2322664266
H        2.7678136205    0.3473627760    0.4311455504
H       -1.9304654897    0.3594666602   -2.3275232293
H       -0.2957761597   -0.3023591997   -2.3800802219
H       -2.0507247141   -2.0798528274   -2.1343776937
H       -2.5910122577   -1.3480935162   -0.6383790322
H        4.7150006854   -0.6713015125   -0.5717494890
H        3.6721286498    0.2248493926   -1.6855464769
H        3.7074865350   -1.5502875708   -1.7388368946
H        4.1000221957   -6.2620194026    2.5470194959
H       -1.8361656496    3.9346471936    2.1712753498
