22
0 1 C10ClH8NO2
C                    -0.070110482263    -1.027517545448     0.358417476943
C                     0.466053375743    -2.070546571426    -0.380053606882
C                    -0.694743186493    -1.300818265083     1.580919060044
C                     0.277222018018    -6.046025159986     0.937125277649
C                     0.382635303740    -3.386890742408     0.094727880188
C                    -0.247679260870    -3.698956957748     1.337384061083
C                    -0.281592291513    -5.101076568788     1.741788916213
C                    -0.785513307988    -2.602754697487     2.065794094398
C                     0.985341354451    -4.429815160634    -0.766906791665
C                    -0.925067974904    -6.756808543834     3.335795814578
N                     0.881493194997    -5.709392913953    -0.264121325983
O                     1.540902007318    -4.212094971207    -1.847600386619
O                    -0.884658817740    -5.396242673805     2.930745754842
Cl                   -1.602698485880    -2.759114307496     3.615742640138
H                    -0.011439467185    -0.003633965741     0.000620539656
H                     0.959349672726    -1.908375828337    -1.332537009504
H                    -1.119509298993    -0.494845024050     2.170778984709
H                     0.284797142162    -7.099220299317     1.179582369091
H                    -1.442553142107    -6.765048896650     4.295584074668
H                     0.086120918692    -7.165940988787     3.463244393901
H                    -1.481947072792    -7.371570706641     2.616017592921
H                     1.289944080870    -6.434759426874    -0.842589335327
