
  -OEChem-05262117483D

 28 29  0     0  0  0  0  0  0999 V2000
    0.7395   -2.8831   -0.6749 C   0  0  0  0  0  0  0  0  0  0  0  0
    0.2206   -3.0311   -1.9664 C   0  0  0  0  0  0  0  0  0  0  0  0
    0.0044   -0.5864   -0.6465 C   0  0  0  0  0  0  0  0  0  0  0  0
    0.6354   -1.6608   -0.0009 C   0  0  0  0  0  0  0  0  0  0  0  0
   -0.5044   -0.7071   -1.9429 C   0  0  0  0  0  0  0  0  0  0  0  0
   -0.3891   -1.9492   -2.5811 C   0  0  0  0  0  0  0  0  0  0  0  0
    0.8985    0.2089   -5.4060 C   0  0  0  0  0  0  0  0  0  0  0  0
   -0.5530    0.5752   -5.7093 C   0  0  0  0  0  0  0  0  0  0  0  0
    0.1678    1.8408   -3.9354 C   0  0  0  0  0  0  0  0  0  0  0  0
    1.1627   -1.4940    1.4066 C   0  0  0  0  0  0  0  0  0  0  0  0
   -0.5749    1.5978   -2.6209 C   0  0  0  0  0  0  0  0  0  0  0  0
    1.1362    0.8177   -4.1276 O   0  0  0  0  0  0  0  0  0  0  0  0
   -0.6922    1.8499   -5.0612 O   0  0  0  0  0  0  0  0  0  0  0  0
   -1.1738    0.2976   -2.5939 O   0  0  0  0  0  0  0  0  0  0  0  0
   -0.8816   -2.0931   -3.8406 F   0  0  0  0  0  0  0  0  0  0  0  0
    1.2233   -3.7290   -0.1940 H   0  0  0  0  0  0  0  0  0  0  0  0
    0.2913   -3.9723   -2.5038 H   0  0  0  0  0  0  0  0  0  0  0  0
   -0.1048    0.3598   -0.1226 H   0  0  0  0  0  0  0  0  0  0  0  0
    1.0618   -0.8664   -5.3095 H   0  0  0  0  0  0  0  0  0  0  0  0
    1.5896    0.6275   -6.1488 H   0  0  0  0  0  0  0  0  0  0  0  0
   -0.7532    0.7174   -6.7738 H   0  0  0  0  0  0  0  0  0  0  0  0
   -1.2513   -0.1490   -5.2826 H   0  0  0  0  0  0  0  0  0  0  0  0
    0.6545    2.8270   -3.8889 H   0  0  0  0  0  0  0  0  0  0  0  0
    1.8147   -0.6177    1.4872 H   0  0  0  0  0  0  0  0  0  0  0  0
    0.3435   -1.3590    2.1224 H   0  0  0  0  0  0  0  0  0  0  0  0
    1.7373   -2.3694    1.7211 H   0  0  0  0  0  0  0  0  0  0  0  0
   -1.3853    2.3262   -2.5298 H   0  0  0  0  0  0  0  0  0  0  0  0
    0.1236    1.7353   -1.7901 H   0  0  0  0  0  0  0  0  0  0  0  0
  1  2  1  0  0  0  0
  1  4  2  0  0  0  0
  1 16  1  0  0  0  0
  2  6  2  0  0  0  0
  2 17  1  0  0  0  0
  3  4  1  0  0  0  0
  3  5  2  0  0  0  0
  3 18  1  0  0  0  0
  4 10  1  0  0  0  0
  5  6  1  0  0  0  0
  5 14  1  0  0  0  0
  6 15  1  0  0  0  0
  7  8  1  0  0  0  0
  7 12  1  0  0  0  0
  7 19  1  0  0  0  0
  7 20  1  0  0  0  0
  8 13  1  0  0  0  0
  8 21  1  0  0  0  0
  8 22  1  0  0  0  0
  9 11  1  0  0  0  0
  9 12  1  0  0  0  0
  9 13  1  0  0  0  0
  9 23  1  0  0  0  0
 10 24  1  0  0  0  0
 10 25  1  0  0  0  0
 10 26  1  0  0  0  0
 11 14  1  0  0  0  0
 11 27  1  0  0  0  0
 11 28  1  0  0  0  0
M  END
$$$$
