
  -OEChem-05262117483D

 23 24  0     0  0  0  0  0  0999 V2000
    2.0444   -0.8584   -0.4914 C   0  0  0  0  0  0  0  0  0  0  0  0
    0.9740   -0.1959    0.1163 C   0  0  0  0  0  0  0  0  0  0  0  0
    2.9889   -1.5109    0.2978 C   0  0  0  0  0  0  0  0  0  0  0  0
    0.8599   -0.1981    1.5071 C   0  0  0  0  0  0  0  0  0  0  0  0
    2.8837   -1.5116    1.7006 C   0  0  0  0  0  0  0  0  0  0  0  0
    1.7988   -0.8451    2.3221 C   0  0  0  0  0  0  0  0  0  0  0  0
    3.9162   -2.2181    2.4643 C   0  0  0  0  0  0  0  0  0  0  0  0
    5.2693   -3.0355    3.8604 C   0  0  0  0  0  0  0  0  0  0  0  0
    5.9459   -3.3231    5.1584 C   0  0  0  0  0  0  0  0  0  0  0  0
    1.5845   -0.8174    3.8017 C   0  0  0  0  0  0  0  0  0  0  0  0
    4.1983   -2.1729    3.7425 N   0  0  0  0  0  0  0  0  0  0  0  0
    5.6424   -3.5879    2.7287 N   0  0  0  0  0  0  0  0  0  0  0  0
    4.7419   -3.0482    1.7863 O   0  0  0  0  0  0  0  0  0  0  0  0
    0.6553   -2.4854    4.4139 Br  0  0  0  0  0  0  0  0  0  0  0  0
    2.1444   -0.8664   -1.5730 H   0  0  0  0  0  0  0  0  0  0  0  0
    0.2307    0.3166   -0.4883 H   0  0  0  0  0  0  0  0  0  0  0  0
    3.8233   -2.0241   -0.1682 H   0  0  0  0  0  0  0  0  0  0  0  0
    0.0181    0.3037    1.9775 H   0  0  0  0  0  0  0  0  0  0  0  0
    5.2259   -3.7411    5.8680 H   0  0  0  0  0  0  0  0  0  0  0  0
    6.7634   -4.0310    5.0130 H   0  0  0  0  0  0  0  0  0  0  0  0
    6.3399   -2.3981    5.5894 H   0  0  0  0  0  0  0  0  0  0  0  0
    0.9156   -0.0111    4.0941 H   0  0  0  0  0  0  0  0  0  0  0  0
    2.5031   -0.8023    4.3776 H   0  0  0  0  0  0  0  0  0  0  0  0
  1  2  1  0  0  0  0
  1  3  2  0  0  0  0
  1 15  1  0  0  0  0
  2  4  2  0  0  0  0
  2 16  1  0  0  0  0
  3  5  1  0  0  0  0
  3 17  1  0  0  0  0
  4  6  1  0  0  0  0
  4 18  1  0  0  0  0
  5  6  2  0  0  0  0
  5  7  1  0  0  0  0
  6 10  1  0  0  0  0
  7 11  2  0  0  0  0
  7 13  1  0  0  0  0
  8  9  1  0  0  0  0
  8 11  1  0  0  0  0
  8 12  2  0  0  0  0
  9 19  1  0  0  0  0
  9 20  1  0  0  0  0
  9 21  1  0  0  0  0
 10 14  1  0  0  0  0
 10 22  1  0  0  0  0
 10 23  1  0  0  0  0
 12 13  1  0  0  0  0
M  END
$$$$
