23
0 1 C9FH7N2O4
C                    -1.408541525749    -4.011293333929    -2.226611149264
C                    -1.873522031740    -4.371758250418    -0.963547667289
C                    -0.361021256366    -2.729084823734     0.013415896440
C                     0.095113152948    -2.337187220148    -1.250906439909
C                    -0.462395374773    -2.994968352162    -2.360221573864
C                    -1.338322313445    -3.711583861551     0.137025808402
C                     2.607777838075    -0.320368079715    -2.915429641248
C                     0.705912233540     0.140287751981    -1.698308229306
C                     1.189897927381    -1.287646097082    -1.313001025161
N                     2.186454039206    -1.516271364088    -2.343408513192
N                    -0.099258753675    -2.644066101795    -3.746860745911
O                    -0.172991660324    -1.457338099368    -4.074659240970
O                     3.569127911785    -0.146065123555    -3.623728718012
O                     0.200873758841    -3.573203878083    -4.498576251593
O                     1.740883970265     0.671831014503    -2.541341480812
F                    -1.761722862985    -4.048894375182     1.374176852940
H                    -1.781633372500    -4.507004949162    -3.116452088301
H                    -2.620552768619    -5.146959931902    -0.828955984096
H                     0.053032108013    -2.282426517734     0.912905360602
H                    -0.226914622295     0.113318679948    -2.260399632759
H                     0.605402176849     0.786503133961    -0.824510228763
H                     1.656931826162    -1.254097431407    -0.320134881902
H                     2.896554001270    -2.228601178374    -2.228720454918
