28
0 1 C11FH13O3
C                     2.590409765761    -4.484466566787    -0.927523182533
C                     2.034261477477    -5.543663708127    -1.653327198005
C                     0.383861576674    -3.760679721924    -0.288369051292
C                     1.772714926714    -3.576241810364    -0.242567160302
C                    -0.191873496966    -4.811748542555    -1.002606877513
C                     0.655543035211    -5.689034794603    -1.690684251521
C                    -2.442641448311    -7.807988269425     2.477620374151
C                    -1.294837297869    -6.858588165446     2.830263337077
C                    -2.285567115686    -6.055357226555     0.965054943905
C                     2.363298940431    -2.413861071479     0.523247573645
C                    -2.162118750943    -6.105467757771    -0.550957573150
O                    -3.119226040531    -7.131647093430     1.405878150389
O                    -1.020705701220    -6.229687705221     1.576160455144
O                    -1.563452772440    -4.909755813294    -1.071914201064
F                     0.113053239367    -6.707220342275    -2.414169348955
H                     3.670811646486    -4.368220716640    -0.900300793369
H                     2.654963606848    -6.249595658809    -2.197325148899
H                    -0.284186095945    -3.087967241066     0.243367599042
H                    -2.073810965095    -8.777363955839     2.122618767854
H                    -3.144324820381    -7.963290662743     3.302342797683
H                    -1.602501277409    -6.112269150749     3.576401891762
H                    -0.385880816366    -7.360439458723     3.166437992992
H                    -2.733138575172    -5.101274602776     1.287006951555
H                     2.227321908343    -1.472464100757    -0.022252626681
H                     1.884812138657    -2.296404781380     1.500896220775
H                     3.435973701441    -2.549499059729     0.687342045232
H                    -3.165490056688    -6.146487490184    -0.979396889881
H                    -1.608973839669    -7.000696837376    -0.844127960401
