
  -OEChem-05262117483D

 13 13  0     0  0  0  0  0  0999 V2000
   -0.8325   -0.9197    0.1974 C   0  0  0  0  0  0  0  0  0  0  0  0
   -1.3421   -1.1686    1.4409 C   0  0  0  0  0  0  0  0  0  0  0  0
   -0.5290   -3.1840    1.0916 C   0  0  0  0  0  0  0  0  0  0  0  0
   -0.2115   -4.6377    1.3122 C   0  0  0  0  0  0  0  0  0  0  0  0
   -1.1741   -2.4313    1.9420 N   0  0  0  0  0  0  0  0  0  0  0  0
   -1.1098   -5.4965    0.5198 N   0  0  0  0  0  0  0  0  0  0  0  0
   -0.0778   -2.3633   -0.3958 S   0  0  0  0  0  0  0  0  0  0  0  0
   -2.2522    0.1347    2.4826 Br  0  0  0  0  0  0  0  0  0  0  0  0
   -0.8551   -0.0023   -0.3737 H   0  0  0  0  0  0  0  0  0  0  0  0
    0.8594   -4.8071    1.1151 H   0  0  0  0  0  0  0  0  0  0  0  0
   -0.3909   -4.8349    2.3716 H   0  0  0  0  0  0  0  0  0  0  0  0
   -0.9596   -6.4688    0.7844 H   0  0  0  0  0  0  0  0  0  0  0  0
   -0.8798   -5.4249   -0.4701 H   0  0  0  0  0  0  0  0  0  0  0  0
  1  2  2  0  0  0  0
  1  7  1  0  0  0  0
  1  9  1  0  0  0  0
  2  5  1  0  0  0  0
  2  8  1  0  0  0  0
  3  4  1  0  0  0  0
  3  5  2  0  0  0  0
  3  7  1  0  0  0  0
  4  6  1  0  0  0  0
  4 10  1  0  0  0  0
  4 11  1  0  0  0  0
  6 12  1  0  0  0  0
  6 13  1  0  0  0  0
M  END
$$$$
