
  -OEChem-05262117483D

 28 29  0     0  0  0  0  0  0999 V2000
    2.5904   -4.4845   -0.9275 C   0  0  0  0  0  0  0  0  0  0  0  0
    2.0343   -5.5437   -1.6533 C   0  0  0  0  0  0  0  0  0  0  0  0
    0.3839   -3.7607   -0.2884 C   0  0  0  0  0  0  0  0  0  0  0  0
    1.7727   -3.5762   -0.2426 C   0  0  0  0  0  0  0  0  0  0  0  0
   -0.1919   -4.8117   -1.0026 C   0  0  0  0  0  0  0  0  0  0  0  0
    0.6555   -5.6890   -1.6907 C   0  0  0  0  0  0  0  0  0  0  0  0
   -2.4426   -7.8080    2.4776 C   0  0  0  0  0  0  0  0  0  0  0  0
   -1.2948   -6.8586    2.8303 C   0  0  0  0  0  0  0  0  0  0  0  0
   -2.2856   -6.0554    0.9651 C   0  0  0  0  0  0  0  0  0  0  0  0
    2.3633   -2.4139    0.5232 C   0  0  0  0  0  0  0  0  0  0  0  0
   -2.1621   -6.1055   -0.5510 C   0  0  0  0  0  0  0  0  0  0  0  0
   -3.1192   -7.1316    1.4059 O   0  0  0  0  0  0  0  0  0  0  0  0
   -1.0207   -6.2297    1.5762 O   0  0  0  0  0  0  0  0  0  0  0  0
   -1.5635   -4.9098   -1.0719 O   0  0  0  0  0  0  0  0  0  0  0  0
    0.1131   -6.7072   -2.4142 F   0  0  0  0  0  0  0  0  0  0  0  0
    3.6708   -4.3682   -0.9003 H   0  0  0  0  0  0  0  0  0  0  0  0
    2.6550   -6.2496   -2.1973 H   0  0  0  0  0  0  0  0  0  0  0  0
   -0.2842   -3.0880    0.2434 H   0  0  0  0  0  0  0  0  0  0  0  0
   -2.0738   -8.7774    2.1226 H   0  0  0  0  0  0  0  0  0  0  0  0
   -3.1443   -7.9633    3.3023 H   0  0  0  0  0  0  0  0  0  0  0  0
   -1.6025   -6.1123    3.5764 H   0  0  0  0  0  0  0  0  0  0  0  0
   -0.3859   -7.3604    3.1664 H   0  0  0  0  0  0  0  0  0  0  0  0
   -2.7331   -5.1013    1.2870 H   0  0  0  0  0  0  0  0  0  0  0  0
    2.2273   -1.4725   -0.0223 H   0  0  0  0  0  0  0  0  0  0  0  0
    1.8848   -2.2964    1.5009 H   0  0  0  0  0  0  0  0  0  0  0  0
    3.4360   -2.5495    0.6873 H   0  0  0  0  0  0  0  0  0  0  0  0
   -3.1655   -6.1465   -0.9794 H   0  0  0  0  0  0  0  0  0  0  0  0
   -1.6090   -7.0007   -0.8441 H   0  0  0  0  0  0  0  0  0  0  0  0
  1  2  1  0  0  0  0
  1  4  2  0  0  0  0
  1 16  1  0  0  0  0
  2  6  2  0  0  0  0
  2 17  1  0  0  0  0
  3  4  1  0  0  0  0
  3  5  2  0  0  0  0
  3 18  1  0  0  0  0
  4 10  1  0  0  0  0
  5  6  1  0  0  0  0
  5 14  1  0  0  0  0
  6 15  1  0  0  0  0
  7  8  1  0  0  0  0
  7 12  1  0  0  0  0
  7 19  1  0  0  0  0
  7 20  1  0  0  0  0
  8 13  1  0  0  0  0
  8 21  1  0  0  0  0
  8 22  1  0  0  0  0
  9 11  1  0  0  0  0
  9 12  1  0  0  0  0
  9 13  1  0  0  0  0
  9 23  1  0  0  0  0
 10 24  1  0  0  0  0
 10 25  1  0  0  0  0
 10 26  1  0  0  0  0
 11 14  1  0  0  0  0
 11 27  1  0  0  0  0
 11 28  1  0  0  0  0
M  END
$$$$
