
  -OEChem-05262117483D

 28 29  0     0  0  0  0  0  0999 V2000
    0.5329   -2.8935   -0.8842 C   0  0  0  0  0  0  0  0  0  0  0  0
    0.1802   -3.0773   -2.2296 C   0  0  0  0  0  0  0  0  0  0  0  0
    0.1524   -0.5195   -1.1144 C   0  0  0  0  0  0  0  0  0  0  0  0
    0.5218   -1.6181   -0.3163 C   0  0  0  0  0  0  0  0  0  0  0  0
   -0.2005   -0.6836   -2.4572 C   0  0  0  0  0  0  0  0  0  0  0  0
   -0.1793   -1.9834   -2.9947 C   0  0  0  0  0  0  0  0  0  0  0  0
   -0.6396    4.8221   -4.1527 C   0  0  0  0  0  0  0  0  0  0  0  0
    0.5629    4.0488   -4.6820 C   0  0  0  0  0  0  0  0  0  0  0  0
   -1.0177    2.5585   -3.9399 C   0  0  0  0  0  0  0  0  0  0  0  0
    0.8949   -1.3989    1.1327 C   0  0  0  0  0  0  0  0  0  0  0  0
   -0.5988    1.6433   -2.7963 C   0  0  0  0  0  0  0  0  0  0  0  0
   -1.3216    3.8321   -3.3720 O   0  0  0  0  0  0  0  0  0  0  0  0
    0.0112    2.7464   -4.9033 O   0  0  0  0  0  0  0  0  0  0  0  0
   -0.5707    0.3156   -3.3070 O   0  0  0  0  0  0  0  0  0  0  0  0
   -0.5231   -2.1528   -4.2945 F   0  0  0  0  0  0  0  0  0  0  0  0
    0.8157   -3.7541   -0.2841 H   0  0  0  0  0  0  0  0  0  0  0  0
    0.1823   -4.0615   -2.6888 H   0  0  0  0  0  0  0  0  0  0  0  0
    0.1429    0.4706   -0.6703 H   0  0  0  0  0  0  0  0  0  0  0  0
   -0.3831    5.6566   -3.4962 H   0  0  0  0  0  0  0  0  0  0  0  0
   -1.2824    5.1746   -4.9696 H   0  0  0  0  0  0  0  0  0  0  0  0
    0.9517    4.4187   -5.6330 H   0  0  0  0  0  0  0  0  0  0  0  0
    1.3744    4.0116   -3.9423 H   0  0  0  0  0  0  0  0  0  0  0  0
   -1.8844    2.1397   -4.4658 H   0  0  0  0  0  0  0  0  0  0  0  0
    1.7383   -0.7054    1.2260 H   0  0  0  0  0  0  0  0  0  0  0  0
    0.0585   -0.9728    1.6984 H   0  0  0  0  0  0  0  0  0  0  0  0
    1.1797   -2.3378    1.6149 H   0  0  0  0  0  0  0  0  0  0  0  0
   -1.3296    1.7329   -1.9827 H   0  0  0  0  0  0  0  0  0  0  0  0
    0.3896    1.9459   -2.4285 H   0  0  0  0  0  0  0  0  0  0  0  0
  1  2  1  0  0  0  0
  1  4  2  0  0  0  0
  1 16  1  0  0  0  0
  2  6  2  0  0  0  0
  2 17  1  0  0  0  0
  3  4  1  0  0  0  0
  3  5  2  0  0  0  0
  3 18  1  0  0  0  0
  4 10  1  0  0  0  0
  5  6  1  0  0  0  0
  5 14  1  0  0  0  0
  6 15  1  0  0  0  0
  7  8  1  0  0  0  0
  7 12  1  0  0  0  0
  7 19  1  0  0  0  0
  7 20  1  0  0  0  0
  8 13  1  0  0  0  0
  8 21  1  0  0  0  0
  8 22  1  0  0  0  0
  9 11  1  0  0  0  0
  9 12  1  0  0  0  0
  9 13  1  0  0  0  0
  9 23  1  0  0  0  0
 10 24  1  0  0  0  0
 10 25  1  0  0  0  0
 10 26  1  0  0  0  0
 11 14  1  0  0  0  0
 11 27  1  0  0  0  0
 11 28  1  0  0  0  0
M  END
$$$$
