21
0 1 C6H11NO3
C                     1.380331612534    -0.743980681147     1.789440143968
C                    -1.594509865428     0.472530647680    -0.130555251725
C                    -0.801875954185     1.016467277519    -1.318919925180
C                     1.147059709234    -0.095798781401    -0.599507502562
C                     0.404305999535    -0.666187609432     0.632607875763
C                     3.110580523183    -2.009741961460     2.783088538148
N                    -0.749777505276     0.143721048432     1.023842277426
O                     1.543495023277     0.140157055793     2.609701603615
O                     0.246344183810     0.111972294371    -1.680031766101
O                     2.097522961979    -1.887574258485     1.759838267143
H                    -2.354141052541     1.194775464859     0.186805609154
H                    -2.117398932097    -0.440232014996    -0.441350875539
H                    -1.430890949526     1.122834082365    -2.207530977003
H                    -0.370799795039     2.001361038010    -1.073322902549
H                     1.632604591976     0.854913645018    -0.324284631378
H                     1.908036339989    -0.794205816272    -0.957334624117
H                     0.061960957423    -1.675376705306     0.381567948014
H                     3.589462847880    -2.971730334013     2.602973274134
H                     2.651188721215    -1.985531262680     3.773624211430
H                     3.834011835046    -1.195344949498     2.700995642299
H                    -0.412344164322     0.989187096912     1.482394275161
