28
0 1 C11FH13O3
C                     0.245847095905    -2.795756331474    -0.288537652443
C                    -0.458103213126    -3.194632205520    -1.428746236625
C                     0.210287223448    -0.524074143157    -1.083379523847
C                     0.600267861421    -1.452266946532    -0.109850505427
C                    -0.510571128272    -0.896196193292    -2.225027718755
C                    -0.811893368743    -2.255798188199    -2.386533656515
C                    -3.398634089606     0.100769417025    -0.683687192866
C                    -2.808204098207     1.480200666286    -0.980287548044
C                    -3.250815690825     0.434173496861    -2.976645432489
C                     1.405447013840    -1.008153707743     1.090449537761
C                    -2.033707238433     0.119107465874    -3.846407186776
O                    -3.393848544294    -0.551176694849    -1.960023825729
O                    -3.180471095273     1.702237735228    -2.345286039228
O                    -0.795759062513     0.102494476523    -3.121097121188
F                    -1.471363877835    -2.684225847156    -3.498460115959
H                     0.523342560955    -3.537204005358     0.456032484491
H                    -0.733802132129    -4.232204853527    -1.593216249403
H                     0.466513775792     0.527064740537    -0.978035565631
H                    -2.787868373637    -0.488672933903     0.005132928983
H                    -4.426914444003     0.167529090980    -0.307365888726
H                    -3.244448969300     2.279371455986    -0.376695691725
H                    -1.718890042446     1.487590430237    -0.873392947139
H                    -4.140986693563     0.441282283589    -3.622784655285
H                     2.472652601375    -0.947035983622     0.845831053753
H                     1.093938688866    -0.018511529014     1.439091354754
H                     1.298209500811    -1.709256450703     1.923125071428
H                    -1.914680080492     0.923609525469    -4.575702205474
H                    -2.204185735640    -0.821053987188    -4.373665981888
