21
0 1 C10H9NO
C                     1.518910741261     1.030518657580     1.039637243478
C                     1.799084943685     1.836699007989     2.123632719015
C                     0.198557751277     0.578617105024     0.787369492306
C                     0.953782506215     3.063721389044     4.136990220266
C                    -0.121978998382     3.395636173705     4.931654674427
C                    -1.605185401808     2.210303024195     3.644014530588
C                     0.754911074563     2.232783593960     3.002407636517
C                    -0.578746039051     1.785504616010     2.753780010709
C                    -0.830357446437     0.945857505974     1.629850563268
C                    -2.436715504944    -0.762657922005     1.911819136821
N                    -1.399901093794     2.981082435231     4.696289129119
O                    -2.123996898772     0.532770265721     1.380838516675
H                     2.316164872272     0.733967801638     0.362975984064
H                     2.813554598401     2.178090202887     2.312949522747
H                    -0.016921182159    -0.049480799752    -0.072545432988
H                     1.947803425276     3.434177943869     4.374357949884
H                     0.010726464394     4.028281965015     5.806996628859
H                    -2.630004450405     1.897771196411     3.453828346909
H                    -3.480506382059    -0.956326589157     1.657643278462
H                    -2.313311760423    -0.779991338503     3.001830441766
H                    -1.798991184067    -1.534602343129     1.464165855954
