
  -OEChem-05262117483D

 24 25  0     0  0  0  0  0  0999 V2000
    0.7295    1.5117    1.3429 C   0  0  0  0  0  0  0  0  0  0  0  0
   -0.1975    0.5692    0.9166 C   0  0  0  0  0  0  0  0  0  0  0  0
    0.6139    2.1251    2.6096 C   0  0  0  0  0  0  0  0  0  0  0  0
   -1.2940    0.1820    1.7262 C   0  0  0  0  0  0  0  0  0  0  0  0
   -0.4566    1.7429    3.3920 C   0  0  0  0  0  0  0  0  0  0  0  0
   -1.3961    0.7951    2.9736 C   0  0  0  0  0  0  0  0  0  0  0  0
   -2.2377   -0.8343    1.1905 C   0  0  0  0  0  0  0  0  0  0  0  0
   -1.9747    1.5014    5.0318 C   0  0  0  0  0  0  0  0  0  0  0  0
   -5.2310   -2.2626    2.7007 C   0  0  0  0  0  0  0  0  0  0  0  0
   -4.1994   -2.1040    1.5989 C   0  0  0  0  0  0  0  0  0  0  0  0
   -2.1231   -1.3545    0.0923 O   0  0  0  0  0  0  0  0  0  0  0  0
   -0.7773    2.1956    4.6534 O   0  0  0  0  0  0  0  0  0  0  0  0
   -2.3377    0.6200    3.9553 O   0  0  0  0  0  0  0  0  0  0  0  0
   -3.2359   -1.1200    2.0519 O   0  0  0  0  0  0  0  0  0  0  0  0
    1.5575    1.7843    0.6955 H   0  0  0  0  0  0  0  0  0  0  0  0
   -0.1079    0.0985   -0.0566 H   0  0  0  0  0  0  0  0  0  0  0  0
    1.3289    2.8633    2.9590 H   0  0  0  0  0  0  0  0  0  0  0  0
   -1.7841    0.9085    5.9329 H   0  0  0  0  0  0  0  0  0  0  0  0
   -2.7817    2.2248    5.1917 H   0  0  0  0  0  0  0  0  0  0  0  0
   -4.7619   -2.6055    3.6275 H   0  0  0  0  0  0  0  0  0  0  0  0
   -5.7368   -1.3134    2.9003 H   0  0  0  0  0  0  0  0  0  0  0  0
   -5.9825   -2.9995    2.3990 H   0  0  0  0  0  0  0  0  0  0  0  0
   -4.6451   -1.7541    0.6634 H   0  0  0  0  0  0  0  0  0  0  0  0
   -3.6727   -3.0395    1.3894 H   0  0  0  0  0  0  0  0  0  0  0  0
  1  2  1  0  0  0  0
  1  3  2  0  0  0  0
  1 15  1  0  0  0  0
  2  4  2  0  0  0  0
  2 16  1  0  0  0  0
  3  5  1  0  0  0  0
  3 17  1  0  0  0  0
  4  6  1  0  0  0  0
  4  7  1  0  0  0  0
  5  6  2  0  0  0  0
  5 12  1  0  0  0  0
  6 13  1  0  0  0  0
  7 11  2  0  0  0  0
  7 14  1  0  0  0  0
  8 12  1  0  0  0  0
  8 13  1  0  0  0  0
  8 18  1  0  0  0  0
  8 19  1  0  0  0  0
  9 10  1  0  0  0  0
  9 20  1  0  0  0  0
  9 21  1  0  0  0  0
  9 22  1  0  0  0  0
 10 14  1  0  0  0  0
 10 23  1  0  0  0  0
 10 24  1  0  0  0  0
M  END
$$$$
