24   
torsion grid (-165,)
C        1.5948945599   -0.5801827352    0.2005707508
C        0.5795812303   -0.6835578555    1.1576033439
C        2.9209134455   -0.7834658166    0.5542618181
C        2.2686815825   -1.1400798726    2.8833572308
C        0.9278101995   -0.9608903287    2.4781405679
C        3.2678731958   -1.0815350351    1.8862010067
C        2.5662330635   -1.1851966977    4.3626597832
C        1.9935389350   -2.2248174156    6.5094726443
C        5.1414004256   -1.9103739251    3.2308769141
N        2.0004093629   -2.2229234052    5.0511622650
O        3.2874039314   -0.3453140559    4.9027727530
O       -0.0386274812   -1.0524168738    3.4626458698
O        4.6005532058   -1.2951801150    2.0561693068
H        1.3405708754   -0.3549292888   -0.8315361601
H       -0.4633810159   -0.5404153313    0.8823263316
H        3.7186929384   -0.7381987104   -0.1798413044
H        1.7400708051   -3.2270876407    6.8632906951
H        1.2735117184   -1.5032797673    6.9153640495
H        2.9869552574   -1.9567661162    6.8711684937
H        6.1171974751   -2.2943732517    2.9269207127
H        4.5135826009   -2.7435055133    3.5644955366
H        5.2506161348   -1.1856761900    4.0383711166
H        1.2425056431   -2.7048074646    4.5844088592
H       -0.8922968189   -0.7975951084    3.0783512351
24   
torsion grid (-150,)
C        1.5973106907   -0.5657331370    0.2065201486
C        0.5742580705   -0.7385467007    1.1439620091
C        2.9273800641   -0.7025959041    0.5815609108
C        2.2522863637   -1.1244447394    2.8953013820
C        0.9113321827   -1.0169694600    2.4681600499
C        3.2632163786   -0.9935833589    1.9155825316
C        2.5680963231   -1.1778956874    4.3691574814
C        2.0080526204   -2.1631248766    6.5417653595
C        5.1090127019   -1.9893731740    3.1571078600
N        1.9525106501   -2.1684724047    5.0844630118
O        3.3604217314   -0.3875622657    4.8846280118
O       -0.0730447794   -1.1770128952    3.4266640584
O        4.5998750574   -1.1243829723    2.1334144453
H        1.3473723743   -0.3442604310   -0.8274761246
H       -0.4700780075   -0.6516785940    0.8504850252
H        3.7345448173   -0.6068669499   -0.1372584183
H        1.6609940057   -3.1303609766    6.9130281938
H        1.3896666091   -1.3657664448    6.9726387086
H        3.0388060785   -2.0046649398    6.8617094331
H        6.0616251146   -2.3648575160    2.7763232955
H        4.4315595354   -2.8316759179    3.3330633258
H        5.2606834467   -1.4390988758    4.0865578911
H        1.1413228289   -2.5935260982    4.6534750378
H       -0.9321862931   -0.9838097172    3.0192110864
24   
torsion grid (-135,)
C        1.6371212366   -0.6328739402    0.2212032390
C        0.5922975243   -0.8196137183    1.1293373816
C        2.9591205394   -0.7354988713    0.6400862389
C        2.2196096128   -1.1632481471    2.9362943285
C        0.8920310371   -1.0869957134    2.4662910187
C        3.2551664049   -0.9974569627    1.9866765153
C        2.5237113639   -1.2651456141    4.4107117348
C        1.9132435835   -2.2578754664    6.5632475242
C        5.0690429958   -2.1423673763    3.1095056203
N        1.8336181061   -2.2201673163    5.1075968498
O        3.3776413866   -0.5548822741    4.9434463379
O       -0.1253768726   -1.2691216948    3.3860078276
O        4.5835082820   -1.0784523053    2.2774597771
H        1.4131566174   -0.4286850422   -0.8222569143
H       -0.4443808009   -0.7586098618    0.8033648262
H        3.7868587236   -0.6245803590   -0.0526795547
H        1.4610450679   -3.1873414553    6.9172551520
H        1.3994868119   -1.4053032950    7.0247681033
H        2.9599594894   -2.2285106546    6.8696685736
H        6.0160476324   -2.4646531282    2.6690152064
H        4.3683484508   -2.9837832174    3.1199382351
H        5.2272849624   -1.7831533096    4.1278167732
H        0.9844267807   -2.5664805276    4.6794970060
H       -0.9735914736   -1.1115665100    2.9419093825
24   
torsion grid (-120,)
C        1.6560941317   -0.6752854515    0.2437790724
C        0.6035035108   -0.8388909309    1.1452651730
C        2.9757834875   -0.7450918341    0.6847234241
C        2.2080185926   -1.1008353869    2.9809757699
C        0.8864822499   -1.0554593646    2.4967851247
C        3.2533688401   -0.9506477756    2.0418234834
C        2.5026500535   -1.1822746809    4.4604127662
C        1.9096050003   -2.2007883416    6.6063673891
C        5.0678812066   -2.1860946123    2.9905201015
N        1.8331324632   -2.1570752715    5.1508223640
O        3.3317340201   -0.4493177191    4.9978629766
O       -0.1392465445   -1.2207808730    3.4095860107
O        4.5782377209   -0.9826810191    2.3857187681
H        1.4423160277   -0.5088652821   -0.8084730128
H       -0.4294030855   -0.7989221981    0.8040383839
H        3.8114303049   -0.6406761322    0.0003522992
H        1.4700534664   -3.1383805746    6.9547371044
H        1.3824662006   -1.3578109554    7.0701846720
H        2.9550700017   -2.1574321035    6.9160373042
H        6.1554475349   -2.0940263445    2.9934396973
H        4.7747999623   -3.0598189089    2.3955673929
H        4.7173084786   -2.2970176417    4.0195903425
H        0.9986215263   -2.5294306633    4.7159736488
H       -0.9847201978   -1.0890439091    2.9520410267
24   
torsion grid (-105,)
C        1.6921527991   -0.7427004531    0.2703280620
C        0.6264705680   -0.8734487314    1.1612016982
C        3.0058127996   -0.7838374492    0.7363092616
C        2.1983698395   -1.0629069290    3.0306202857
C        0.8854224268   -1.0401874297    2.5255099707
C        3.2557939030   -0.9268201032    2.1050715428
C        2.4876886193   -1.1579558587    4.5119957413
C        1.8844119494   -2.2112051910    6.6379117668
C        5.0844917869   -2.2182074972    2.8725008826
N        1.8106303122   -2.1442365733    5.1830417148
O        3.3162228036   -0.4381438822    5.0642396699
O       -0.1544767550   -1.1835255412    3.4253995738
O        4.5664319963   -0.9341949642    2.5106723435
H        1.4936208737   -0.6170823041   -0.7905286806
H       -0.4006532078   -0.8476086248    0.8013329987
H        3.8522131945   -0.6913649231    0.0631780615
H        1.4382252702   -3.1512884345    6.9710332061
H        1.3625980914   -1.3720293992    7.1147027261
H        2.9298132241   -2.1798670773    6.9491409536
H        6.1242354509   -2.0560654103    3.1610850228
H        5.0385646469   -2.9069244948    2.0185707655
H        4.5397500123   -2.6486342495    3.7200223539
H        0.9692794516   -2.4952966304    4.7434424011
H       -0.9936127432   -1.0853106852    2.9481337733
24   
torsion grid (-90,)
C        1.7829673915   -0.2510704514    0.4512187056
C        0.6637401478   -0.6131412128    1.2031221894
C        3.0548927335   -0.2724388257    1.0240229735
C        2.0918038754   -1.0053866143    3.1477602258
C        0.8253298147   -0.9944516715    2.5393017063
C        3.2021211555   -0.6336766834    2.3671815107
C        2.2662115268   -1.3463222780    4.6106994859
C        1.6931729689   -2.9350205894    6.3890770194
C        5.1505402863   -1.8826106442    2.8028571464
N        1.7710699777   -2.5731004251    4.9784028903
O        2.8471035549   -0.6012024306    5.3932665237
O       -0.2544813383   -1.3801825558    3.3091100349
O        4.4608353599   -0.6341792642    2.9202910674
H        1.6583486767    0.0457710278   -0.5865512977
H       -0.3288176037   -0.5993832452    0.7562279814
H        3.9377850197    0.0057715716    0.4567937822
H        1.5107458258   -4.0093731217    6.4714065250
H        0.8956040748   -2.3900483107    6.9097636831
H        2.6412198601   -2.6937849116    6.8715704384
H        6.1260934110   -1.7397429493    3.2708997288
H        5.2823636726   -2.1624992940    1.7493035504
H        4.6087339795   -2.6809326960    3.3255133187
H        1.0811882764   -2.9796102839    4.3589607672
H       -1.0664838313   -1.2524214118    2.7934567977
24   
torsion grid (-75,)
C        1.8138199461   -0.3270262822    0.4422253617
C        0.6682635130   -0.6166894827    1.1878218599
C        3.0770124253   -0.3789695738    1.0319554228
C        2.0547118166   -1.0010554547    3.1587034814
C        0.7960343977   -0.9549298819    2.5392030624
C        3.1901602333   -0.7110078302    2.3872822467
C        2.1839622969   -1.2884748985    4.6376726232
C        1.7112026547   -2.9251238343    6.4056015615
C        5.2214386442   -1.8835142228    2.6542262939
N        1.8406646726   -2.5664748451    4.9981166293
O        2.5900069913   -0.4524213595    5.4371622113
O       -0.2980442029   -1.2693281722    3.3168790366
O        4.4256131829   -0.7432619476    2.9924683166
H        1.7154042901   -0.0556980415   -0.6053349948
H       -0.3159918408   -0.5758564230    0.7247510769
H        3.9725541304   -0.1457497773    0.4641270545
H        1.6865806700   -4.0138717849    6.4964655927
H        0.8039882564   -2.5016816219    6.8545417598
H        2.5738261924   -2.5387418549    6.9501110419
H        6.1659621344   -1.7671184146    3.1887316880
H        5.4148432100   -1.9345549934    1.5753023823
H        4.7280446777   -2.8087470461    2.9780535697
H        1.2887101285   -3.0879930588    4.3288978548
H       -1.1044701847   -1.1200376364    2.7984044554
24   
torsion grid (-60,)
C        1.8268513889   -0.3505769118    0.4907382649
C        0.6748095756   -0.5940510249    1.2419449350
C        3.0906055527   -0.4468983922    1.0731076135
C        2.0579178660   -1.0252867208    3.2081701963
C        0.7998239801   -0.9310019424    2.5939364102
C        3.2009023751   -0.7867991699    2.4282436310
C        2.1828388651   -1.3052842579    4.6889727176
C        1.6362198280   -2.9024070687    6.4726238476
C        5.3481221116   -1.7978021148    2.5069071742
N        1.7736729300   -2.5590408248    5.0625618100
O        2.6378154222   -0.4837065535    5.4777546508
O       -0.3016815925   -1.1987080861    3.3784531274
O        4.4221383599   -0.8540216254    3.0518151455
H        1.7345012214   -0.0765977528   -0.5567049901
H       -0.3097228450   -0.5179215484    0.7841463468
H        3.9837697935   -0.2431256355    0.4913630733
H        1.5663640288   -3.9885720173    6.5714780402
H        0.7496994875   -2.4384151145    6.9230872708
H        2.5170668134   -2.5488462544    7.0101831801
H        6.2357840068   -1.7485122730    3.1398454711
H        5.6278656216   -1.5537286490    1.4752852057
H        4.9293960501   -2.8113010218    2.5382553387
H        1.1960489937   -3.0594403609    4.3991487771
H       -1.1036186392   -1.0241580071    2.8609146725
24   
torsion grid (-45,)
C        1.8506460482   -0.4102446753    0.5014283272
C        0.6987470917   -0.6124834764    1.2624879526
C        3.1160557494   -0.5491128081    1.0728703734
C        2.0816792314   -1.0895273233    3.2176556930
C        0.8231981465   -0.9529611310    2.6145029995
C        3.2292152312   -0.8967792513    2.4265448782
C        2.2122764025   -1.3635268610    4.6987951101
C        1.5689083889   -2.8741752769    6.5230619822
C        5.4708841200   -1.7032619335    2.3546642986
N        1.7008635720   -2.5684113467    5.1041298020
O        2.7578472492   -0.5759780689    5.4652374182
O       -0.2836607966   -1.1801904390    3.4055739812
O        4.4400550968   -1.0024402751    3.0536024899
H        1.7598527523   -0.1354947066   -0.5460038391
H       -0.2866109320   -0.5043810525    0.8132765481
H        4.0060105972   -0.3832575528    0.4755370384
H        1.4023520645   -3.9475221069    6.6439166648
H        0.7402110313   -2.3234972698    6.9860802609
H        2.4916517869   -2.5943059787    7.0330868454
H        6.2498491773   -1.9018028238    3.0927842193
H        5.8967277351   -1.1016695476    1.5424875500
H        5.0955704083   -2.6497152734    1.9484976123
H        1.0649853927   -3.0264001511    4.4639766286
H       -1.0809473279   -0.9790690217    2.8905433754
24   
torsion grid (-30,)
C        1.8600265645   -0.4679049392    0.5007357157
C        0.6978036647   -0.6260318101    1.2541472278
C        3.1195675525   -0.6484576471    1.0754015581
C        2.0548201899   -1.1400466888    3.2193446675
C        0.8063026399   -0.9645662482    2.6089535922
C        3.2144692805   -0.9930477373    2.4319100037
C        2.1694140813   -1.4058610213    4.7031715927
C        1.4487072626   -2.8588801364    6.5442260402
C        5.5179349240   -1.6083607139    2.3022939045
N        1.5935946032   -2.5762171697    5.1218791795
O        2.7564115839   -0.6406100057    5.4622533315
O       -0.3127893302   -1.1486889262    3.3946013318
O        4.4065047035   -1.1541660201    3.0733170082
H        1.7845171086   -0.1972735170   -0.5489571125
H       -0.2811166552   -0.4872099960    0.7994793268
H        4.0126840177   -0.5200561552    0.4747174716
H        1.2140580984   -3.9181035184    6.6759657711
H        0.6592499626   -2.2517247644    7.0052212104
H        2.3897087533   -2.6343202018    7.0483574573
H        6.2764610560   -1.9113273417    3.0256392721
H        5.9271198884   -0.8094658845    1.6718388893
H        5.2409775706   -2.4635817374    1.6747900111
H        0.9326932042   -3.0060216653    4.4876137363
H       -1.0988809353   -0.9225008035    2.8728993628
24   
torsion grid (-15,)
C        1.8685537458   -0.5056532184    0.5095406084
C        0.7065265771   -0.6211043933    1.2687734646
C        3.1252582243   -0.7367424141    1.0746338429
C        2.0571594986   -1.1875755483    3.2257759743
C        0.8135603685   -0.9659938024    2.6230247038
C        3.2185579049   -1.0841314640    2.4307220062
C        2.1719861078   -1.4517474253    4.7099862314
C        1.3953053733   -2.8563168473    6.5662875605
C        5.5620813593   -1.5276807091    2.2735640370
N        1.5402443156   -2.5875320557    5.1414910302
O        2.8052962071   -0.7133128901    5.4590169547
O       -0.3074473302   -1.1070164757    3.4151571130
O        4.3979738698   -1.3187048951    3.0672789177
H        1.7973183020   -0.2333229084   -0.5400335728
H       -0.2697409102   -0.4457661779    0.8211320128
H        4.0137024096   -0.6456237014    0.4616425260
H        1.1120007452   -3.9026194066    6.7055435273
H        0.6394586825   -2.2105123248    7.0311639535
H        2.3504089453   -2.6741525001    7.0608825915
H        6.3424636849   -1.8343962888    2.9710224278
H        5.8753222160   -0.6059658062    1.7682049348
H        5.4004277982   -2.3172581840    1.5297030497
H        0.8553657456   -2.9895871299    4.5146171050
H       -1.0864966177   -0.8478402820    2.8982805790
24   
torsion grid (0,)
C        1.8436352779   -0.5369316333    0.5001389927
C        0.6919634587   -0.6140711698    1.2789460978
C        3.1013847279   -0.8148485026    1.0418993174
C        2.0545942822   -1.2288623270    3.2138427246
C        0.8098972412   -0.9649881419    2.6310352354
C        3.2048328164   -1.1648910642    2.3965711439
C        2.1911985722   -1.4869944341    4.6973000155
C        1.3689887101   -2.8059206426    6.5949796578
C        5.5743470175   -1.4441861309    2.2354439357
N        1.4893642136   -2.5665916831    5.1626933415
O        2.8991718859   -0.7895976502    5.4190217512
O       -0.3038454105   -1.0642072446    3.4403284367
O        4.3788447347   -1.4745415586    3.0070426822
H        1.7635499421   -0.2627784190   -0.5483220050
H       -0.2852278973   -0.4042984875    0.8484863523
H        3.9797292760   -0.7604118051    0.4107463545
H        1.0005912753   -3.8219399189    6.7571441027
H        0.6876107073   -2.0918157795    7.0748959062
H        2.3517661216   -2.7024305773    7.0571077308
H        6.3736613983   -1.7236034701    2.9225670688
H        5.7697124053   -0.4395366446    1.8416078326
H        5.5357696393   -2.1630381450    1.4075382051
H        0.7563529654   -2.9225805215    4.5630399154
H       -1.0800386555   -0.7758832917    2.9346988393
24   
torsion grid (15,)
C        1.8399788583   -0.5577185406    0.4922045941
C        0.6946042090   -0.5917177375    1.2841213494
C        3.0910751912   -0.8873837090    1.0195189523
C        2.0534560585   -1.2599342431    3.2031611124
C        0.8126912430   -0.9487769827    2.6343994680
C        3.1950945842   -1.2403413267    2.3730675311
C        2.2007988735   -1.5121475978    4.6866392508
C        1.3559890563   -2.7790319391    6.6095426894
C        5.5803336638   -1.3725152641    2.2744070106
N        1.4613068192   -2.5557014921    5.1736179722
O        2.9481501707   -0.8377989275    5.3908406173
O       -0.2947007076   -1.0027783953    3.4565384210
O        4.3586098780   -1.6264771475    2.9604336184
H        1.7582352380   -0.2816651573   -0.5556388355
H       -0.2782596958   -0.3433976768    0.8644683319
H        3.9645296047   -0.8749749491    0.3788421830
H        0.9479896276   -3.7773003519    6.7862990388
H        0.7137025844   -2.0332096276    7.0950579363
H        2.3501469050   -2.7136894219    7.0540125756
H        6.3721533363   -1.6281278278    2.9793933792
H        5.6651051593   -0.3156515190    1.9961593700
H        5.6772787504   -1.9985599420    1.3784682458
H        0.7075335928   -2.8902226534    4.5875895782
H       -1.0639397383   -0.6804834263    2.9608540717
24   
torsion grid (30,)
C        1.8204948539   -0.5885459514    0.4701881812
C        0.6878362126   -0.5826128108    1.2828903921
C        3.0640325190   -0.9727285674    0.9759692375
C        2.0508952581   -1.3117317277    3.1759533179
C        0.8126684715   -0.9509273345    2.6287623742
C        3.1753010703   -1.3349400118    2.3261981108
C        2.2198859920   -1.5623856119    4.6572827128
C        1.3697319805   -2.7874553498    6.6054165297
C        5.5654114191   -1.3318960676    2.3305250476
N        1.4511292368   -2.5726921507    5.1666694948
O        3.0078340564   -0.9119661895    5.3400448416
O       -0.2811158582   -0.9636850717    3.4702798716
O        4.3321249595   -1.7937047907    2.8788898763
H        1.7308669740   -0.3056830026   -0.5752020612
H       -0.2812905458   -0.2942516189    0.8804247602
H        3.9293887034   -1.0003766906    0.3237630263
H        0.9314659937   -3.7703681966    6.7951757950
H        0.7644860270   -2.0181683115    7.1017141497
H        2.3751988886   -2.7552125808    7.0274783903
H        6.3323494027   -1.6006641418    3.0581859949
H        5.5516137758   -0.2447642695    2.1959101397
H        5.7903307685   -1.8198306075    1.3738647141
H        0.6740967488   -2.8829865278    4.5979072558
H       -1.0455136664   -0.6080650351    2.9900646931
24   
torsion grid (45,)
C        1.8136285364   -0.6064294435    0.4320971711
C        0.6960517735   -0.5541378388    1.2659971587
C        3.0490858021   -1.0382062531    0.9170366133
C        2.0654504154   -1.3258368920    3.1361854156
C        0.8299422328   -0.9210934466    2.6104175243
C        3.1685713507   -1.4010162558    2.2655082333
C        2.2631506591   -1.5632102161    4.6157072338
C        1.4233911830   -2.7235617772    6.6075093096
C        5.5455768221   -1.2656533818    2.4296837474
N        1.4659278814   -2.5285865298    5.1643297711
O        3.0997461298   -0.9376614785    5.2639143785
O       -0.2467716964   -0.8869897043    3.4729223499
O        4.3222748661   -1.9127042993    2.7870643417
H        1.7144375597   -0.3251229175   -0.6128242586
H       -0.2684025813   -0.2305170899    0.8791194721
H        3.9036140074   -1.1092173317    0.2528155414
H        0.9447790297   -3.6817846392    6.8238980353
H        0.8732781406   -1.9203677940    7.1140016618
H        2.4430075966   -2.7359255658    6.9954089989
H        6.2958141365   -1.6409734655    3.1272519853
H        5.4544191611   -0.1799317102    2.5390194809
H        5.8524205801   -1.5115437858    1.4056333410
H        0.6611925031   -2.8164793475    4.6230279260
H       -1.0066205132   -0.5049074050    3.0058824978
24   
torsion grid (60,)
C        1.7705248186   -0.6474425490    0.3753704828
C        0.6673509274   -0.5629108931    1.2274698319
C        2.9979030626   -1.1180551855    0.8429124582
C        2.0402794972   -1.3758666250    3.0754930474
C        0.8077387688   -0.9342023679    2.5691095282
C        3.1227180720   -1.4945983176    2.1860391627
C        2.2704513146   -1.6017665435    4.5512110996
C        1.4383729757   -2.6702042103    6.5970886580
C        5.4561471469   -1.2263642954    2.5711409105
N        1.4318278338   -2.4976835877    5.1505371302
O        3.1710494814   -1.0199854330    5.1550949653
O       -0.2547107211   -0.8664051365    3.4476696047
O        4.2811611643   -2.0377470363    2.6753229103
H        1.6632670146   -0.3615710939   -0.6674985223
H       -0.2925436896   -0.2104768148    0.8543891749
H        3.8417413217   -1.2257191575    0.1690905970
H        0.9126831645   -3.5946560429    6.8482423679
H        0.9588918473   -1.8286365337    7.1129127868
H        2.4708302664   -2.7389691396    6.9427605036
H        6.2664213099   -1.8145152421    3.0049136315
H        5.3240131568   -0.3032436043    3.1451042224
H        5.6986583039   -0.9901676668    1.5283853931
H        0.5908425746   -2.7450851812    4.6455672254
H       -1.0114930785   -0.4670078151    2.9901303317
24   
torsion grid (75,)
C        1.7581458195   -0.6777899382    0.3256453530
C        0.6889250200   -0.5468183109    1.2148617914
C        2.9861384324   -1.1742686774    0.7623035273
C        2.0974436035   -1.3713088979    3.0309702134
C        0.8610026250   -0.9016172439    2.5567712682
C        3.1458063821   -1.5288333863    2.1070022086
C        2.3605503959   -1.6139447805    4.4978712692
C        1.5400197888   -2.6389288883    6.5696760441
C        5.4239651634   -1.1756046309    2.6612804838
N        1.4902209480   -2.4579397919    5.1248955555
O        3.3166316581   -1.0931934135    5.0737849849
O       -0.1736914362   -0.7946212327    3.4649707748
O        4.3228458038   -2.0892795335    2.5355873695
H        1.6222464346   -0.4064275517   -0.7177242177
H       -0.2729845616   -0.1732027693    0.8682817328
H        3.8114040263   -1.3205977558    0.0721302805
H        0.9617105163   -3.5265339166    6.8372682751
H        1.1390753624   -1.7694543443    7.1057296719
H        2.5774335735   -2.7803576959    6.8761198185
H        6.2914113793   -1.7828773765    2.9260684444
H        5.2162262451   -0.4552775594    3.4581083041
H        5.6164247335   -0.6557399942    1.7146459830
H        0.6174338783   -2.6506799231    4.6510826840
H       -0.9366925218   -0.3916454564    3.0210502118
24   
torsion grid (90,)
C        1.8051361864   -0.7462900679    0.3112299699
C        0.7776788856   -0.5543224909    1.2369743271
C        3.0395444318   -1.2482593186    0.7221192023
C        2.2382981140   -1.3522102456    3.0277934299
C        0.9955375893   -0.8690583054    2.5821149675
C        3.2563626334   -1.5405046597    2.0736836435
C        2.5040981394   -1.6280624145    4.4883724381
C        1.6746686871   -2.7024137717    6.5305350750
C        5.4934158185   -1.1724862756    2.7780880365
N        1.6299648839   -2.4858313103    5.0903313211
O        3.4620640571   -1.1323058906    5.0837880231
O       -0.0058339857   -0.7203989262    3.5215283368
O        4.4519167185   -2.1092979515    2.4406122477
H        1.6327288181   -0.5153083218   -0.7364426503
H       -0.1894503326   -0.1710571193    0.9162199130
H        3.8402717833   -1.4344159001    0.0129974104
H        1.0477094974   -3.5621147967    6.7779492561
H        1.3246762201   -1.8248617234    7.0887941226
H        2.7030942066   -2.9092972903    6.8298384889
H        6.3751047019   -1.7755140805    3.0032902040
H        5.2039638310   -0.5882032687    3.6541565811
H        5.7073847481   -0.5149160040    1.9255837831
H        0.7564268971   -2.6609953548    4.6112553588
H       -0.7803124540   -0.3262666041    3.0897433774
24   
torsion grid (105,)
C        1.7001068728   -0.8103764107    0.3292393315
C        0.7262277322   -0.5226955838    1.2872888251
C        2.9409584939   -1.3172174544    0.7141120599
C        2.2468970441   -1.2647798610    3.0519916806
C        1.0009847776   -0.7645770918    2.6374281465
C        3.2240361755   -1.5192404146    2.0705728621
C        2.5024899202   -1.5385152022    4.5165652509
C        1.7210564756   -2.7908328592    6.4810026012
C        5.4337116275   -1.2058168737    2.9224043182
N        1.7254518723   -2.5239932785    5.0489390096
O        3.3554777733   -0.9377974486    5.1719089834
O        0.0550717075   -0.5417886291    3.6163324969
O        4.4296127017   -2.0972674219    2.3903254720
H        1.4836784637   -0.6437318475   -0.7224641322
H       -0.2433961645   -0.1278365433    0.9891737100
H        3.7055777196   -1.5633679150   -0.0159803859
H        1.3009416014   -3.7837029164    6.6587155205
H        1.1356536588   -2.0444100495    7.0321842660
H        2.7471352136   -2.7632743432    6.8500437758
H        6.2983801227   -1.8349507467    3.1422743002
H        5.0799242056   -0.7169594806    3.8309123241
H        5.7084158263   -0.4594972119    2.1656514373
H        0.9339723512   -2.8339339521    4.5009669678
H       -0.7300383537   -0.1459263772    3.2061153944
24   
torsion grid (120,)
C        1.8760161333   -0.8347128010    0.3439829867
C        1.0096738365   -0.2517124569    1.2704311432
C        2.9938915270   -1.5504319042    0.7718353126
C        2.3768826707   -1.1185527253    3.0974411282
C        1.2579394566   -0.3973828669    2.6411760377
C        3.2435715689   -1.6778849277    2.1421829077
C        2.6009281954   -1.2855888657    4.5816304794
C        2.9608045089   -2.9439670175    6.3664119806
C        5.3577018723   -1.7874424864    3.2628197123
N        2.6082157172   -2.5880681208    4.9993772046
O        2.7550609686   -0.3348419194    5.3451569674
O        0.4071329783    0.1088977656    3.5848275572
O        4.3297764293   -2.4524279307    2.5085068467
H        1.6760996207   -0.7269675281   -0.7186193652
H        0.1359844674    0.3033429669    0.9336743135
H        3.6843128998   -2.0075059678    0.0703424095
H        4.0477722978   -2.9538270904    6.5218907288
H        2.5579163226   -3.9333030696    6.5963656073
H        2.5249605628   -2.2101215793    7.0454915875
H        6.1551584804   -2.5216993865    3.3908133270
H        5.0060368644   -1.4553621950    4.2428033911
H        5.7377286307   -0.9241014747    2.7044988153
H        2.6568430663   -3.3023040948    4.2840608746
H       -0.3285898307    0.5547694672    3.1363088671
24   
torsion grid (135,)
C        1.7317914039   -0.8771857592    0.1802765866
C        0.7886138354   -0.4008110721    1.0955515062
C        2.9187447277   -1.4571944050    0.6197272886
C        2.2351145297   -1.1059781095    2.9345719793
C        1.0460640090   -0.5204754726    2.4644181746
C        3.1719617209   -1.5704075853    1.9953899085
C        2.4363074632   -1.2182813042    4.4293667570
C        2.3020759556   -2.7827155831    6.3377261594
C        5.1669337955   -1.6002445161    3.3613946264
N        2.2373414502   -2.4793372766    4.9151128044
O        2.7700579567   -0.2691910412    5.1344174318
O        0.1428279827   -0.1148508902    3.4145307517
O        4.3474433259   -2.1909466351    2.3376940679
H        1.5379834272   -0.7857364976   -0.8850364656
H       -0.1387293100    0.0523883704    0.7505349096
H        3.6675124926   -1.8228308675   -0.0753964203
H        2.6079869211   -3.8230820268    6.4758854848
H        1.3366977254   -2.6213010357    6.8325209959
H        3.0376899583   -2.1237592023    6.8013845211
H        6.1936809835   -1.8857529456    3.1220611197
H        4.9039370885   -1.9857667857    4.3497395389
H        5.0728645159   -0.5110528184    3.3609691747
H        1.8731588535   -3.1739907289    4.2765975868
H       -0.6196387661    0.2895734519    2.9715886017
24   
torsion grid (150,)
C        1.6903680113   -0.8636617669    0.1575036214
C        0.7405331747   -0.4912487239    1.1142536951
C        2.9337431671   -1.3499043722    0.5442745253
C        2.3119828939   -1.1087260591    2.8894888379
C        1.0606551959   -0.6211861132    2.4669125524
C        3.2528853652   -1.4721589251    1.9086276056
C        2.5373600446   -1.2056796150    4.3842649341
C        2.1914364717   -2.6646780102    6.3448582157
C        5.2226268047   -1.6330735410    3.3312099718
N        2.2039901983   -2.4230667320    4.9082285682
O        2.9832958187   -0.2812436936    5.0593045713
O        0.1629018059   -0.3113189576    3.4615318305
O        4.4893288413   -2.0029313316    2.1539062706
H        1.4548915430   -0.7668656673   -0.8988870344
H       -0.2331876888   -0.1096106023    0.8137195953
H        3.6845639311   -1.6377113108   -0.1843680991
H        2.3387831421   -3.7307315216    6.5361887924
H        1.2491450137   -2.3406382267    6.8031947234
H        3.0055606939   -2.0993339968    6.8003111904
H        6.2641466236   -1.8736443220    3.1093374241
H        4.8959500518   -2.2111031973    4.1998716074
H        5.1203153542   -0.5663879361    3.5434661921
H        1.7130699908   -3.0658866513    4.3004946872
H       -0.6405507129    0.0518206781    3.0570548480
24   
torsion grid (165,)
C        1.5660405751   -0.7469450624    0.1841670711
C        0.6026394618   -0.5292909492    1.1753186759
C        2.8535350206   -1.1386971607    0.5233514678
C        2.2665352842   -1.0948437031    2.8902913463
C        0.9647542991   -0.7089377419    2.5096077968
C        3.2154525641   -1.3180830462    1.8731470780
C        2.5231537356   -1.1784133382    4.3812550047
C        2.0256089917   -2.4835039977    6.4060572496
C        5.1689675838   -1.6912325987    3.3000030849
N        2.0866704580   -2.3395810801    4.9565812984
O        3.0718038883   -0.2814900537    5.0178219508
O        0.0619912414   -0.5310554306    3.5359317800
O        4.5007841447   -1.7461764810    2.0337985105
H        1.3033292941   -0.6081696731   -0.8610373146
H       -0.4086450597   -0.2240710134    0.9145162265
H        3.6111976197   -1.3168026579   -0.2327430532
H        1.9489390269   -3.5437793236    6.6589208988
H        1.1705254633   -1.9442031899    6.8315305991
H        2.9387197668   -2.0747410526    6.8409551104
H        6.2009461187   -1.9740622638    3.0859244997
H        4.7396401034   -2.4070207351    4.0074488296
H        5.1318186613   -0.6868015296    3.7259674604
H        1.4803466897   -2.9215843632    4.3927988228
H       -0.7644173789   -0.1822420318    3.1666567360
24   
torsion grid (180,)
C        1.5799263112   -0.6418475655    0.1940855734
C        0.5839442914   -0.6049797264    1.1763492990
C        2.8940842938   -0.9297910693    0.5314816187
C        2.2745223951   -1.1158925790    2.8855951415
C        0.9438828013   -0.8423219309    2.5013003890
C        3.2533415709   -1.1799693661    1.8712146358
C        2.5500894722   -1.1741639881    4.3717313561
C        1.9864842699   -2.3280772622    6.4645601449
C        5.1690113363   -1.7857008285    3.2821943601
N        2.0446637928   -2.2740557656    5.0084973400
O        3.1841207514   -0.2976051699    4.9579248099
O        0.0068714080   -0.8125355565    3.5154478775
O        4.5711869861   -1.4916309099    2.0150399580
H        1.3198419694   -0.4511541972   -0.8435359880
H       -0.4499288988   -0.3871197333    0.9165319350
H        3.6752107578   -0.9815167349   -0.2199067782
H        1.8113728943   -3.3601879590    6.7776382631
H        1.1912629701   -1.6862478946    6.8634715346
H        2.9390595763   -1.9859289519    6.8710599718
H        6.1768586987   -2.1290294138    3.0429679626
H        4.6294286155   -2.5865096627    3.7984123365
H        5.2085706405   -0.8997419442    3.9173672891
H        1.3584098762   -2.8103479206    4.4928612822
H       -0.8350305568   -0.5007397236    3.1478190082
