13   
torsion grid (-165,)
C        0.1632313412    0.0429252890   -2.1134241021
C        0.8343787117   -0.1031311243   -0.7862047256
C        0.0299045133    0.4342424010    0.3939165840
N        0.6484395773    0.6859137959   -3.1634094271
N       -0.2857345267    0.5638753392   -4.1523491919
N       -1.3089697320   -0.1193032350   -3.7463722201
N       -1.0416105770   -0.4625950704   -2.4630994287
Br      -1.4689838081   -0.7789440174    0.8907645332
H        1.7788744436    0.4481227669   -0.8377749869
H        1.0937348233   -1.1514194468   -0.6059342540
H        0.6409167623    0.4928650599    1.2928272553
H       -0.4270314090    1.4011334734    0.1888330299
H       -1.7161933554   -0.9738796565   -1.9034774360
13   
torsion grid (-150,)
C        0.2336732048    0.0674031587   -2.1155643700
C        0.9085816653   -0.0979287832   -0.7958308401
C        0.1153648124    0.4829590001    0.3775794018
N        0.7059967326    0.6937945834   -3.1799272757
N       -0.2622292793    0.5971952839   -4.1404579662
N       -1.2931152335   -0.0523829716   -3.7020496440
N       -0.9986305500   -0.3987631699   -2.4245535362
Br      -1.1802206203   -0.8380912179    1.1078198750
H        1.8994265950    0.3635349804   -0.8300611019
H        1.0954338791   -1.1605640206   -0.6086565744
H        0.7647897547    0.7128731893    1.2199845993
H       -0.4666057097    1.3630173893    0.1093079136
H       -1.6640503709   -0.9082597403   -1.8521290799
13   
torsion grid (-135,)
C        0.2642937954    0.0359553742   -2.0758293264
C        0.9150752359   -0.1760188238   -0.7514939709
C        0.1543155307    0.4923313106    0.4073450801
N        0.7321005046    0.7250491230   -3.1021438985
N       -0.2271375064    0.6606797319   -4.0750920338
N       -1.2490560924   -0.0289133749   -3.6801171060
N       -0.9581419845   -0.4342014321   -2.4184193087
Br      -0.9290861286   -0.8163674351    1.4354402860
H        1.9466082203    0.1823726599   -0.7785431869
H        0.9958796963   -1.2498235793   -0.5573860232
H        0.8362860674    0.9131915661    1.1431405805
H       -0.5391084328    1.2625996158    0.0754985699
H       -1.6168253107   -0.9944993323   -1.8879869267
13   
torsion grid (-120,)
C        0.2391252012    0.0117061143   -2.0486911081
C        0.8562349582   -0.2817769902   -0.7218078967
C        0.1721686416    0.4919473608    0.4280428254
N        0.6937720987    0.8406012748   -2.9734934943
N       -0.2181995446    0.8196556840   -3.9909657957
N       -1.2014367423    0.0213915389   -3.7212863363
N       -0.9320235013   -0.4983214590   -2.4974175974
Br      -0.6197201776   -0.7208148639    1.7826004015
H        1.9147949702   -0.0187894476   -0.7692079505
H        0.8144478236   -1.3563494548   -0.5288557778
H        0.8792172461    1.1071668756    0.9799288347
H       -0.6495364664    1.1162069316    0.0831571506
H       -1.5675135037   -1.1637107729   -2.0715729847
13   
torsion grid (-105,)
C        0.2318741240    0.0049685877   -2.0360776084
C        0.8067338698   -0.3305908679   -0.6974070381
C        0.1927586199    0.5548561328    0.4093485662
N        0.6885755097    0.9069340826   -2.8891204479
N       -0.1752855589    0.9099280350   -3.9471766197
N       -1.1316943134    0.0545338653   -3.7721149292
N       -0.8946419204   -0.5247290370   -2.5684596485
Br      -0.2523562984   -0.4915637655    2.0306981516
H        1.8823719279   -0.1549226769   -0.7588725534
H        0.6492043283   -1.3885322453   -0.4788413875
H        0.8736088250    1.3387125181    0.7332623608
H       -0.7492985417    1.0048711580    0.1020849569
H       -1.5138861031   -1.2473500515   -2.2194450526
13   
torsion grid (-90,)
C       -0.0545400884    0.0387165680   -2.1971499542
C        0.3203664604   -0.4242808464   -0.8201894968
C        0.1799423130    0.7134136221    0.1975947810
N       -0.1782163592    1.2892133877   -2.6082420429
N       -0.5086941685    1.2301496120   -3.9338238911
N       -0.5898819702    0.0051308811   -4.3395062912
N       -0.3056188578   -0.7646236830   -3.2571111692
Br      -0.2371148252   -0.0026412928    1.9950443925
H        1.3620666325   -0.7613708043   -0.8568875924
H       -0.3016076575   -1.2772562317   -0.5383790732
H        1.0898432065    1.2997023573    0.2996708160
H       -0.6482424958    1.3734147954   -0.0471876315
H       -0.3167336906   -1.7748726415   -3.3350032182
13   
torsion grid (-75,)
C       -0.0801400361    0.0347923485   -2.1724737806
C        0.1890119606   -0.4156420496   -0.7669592913
C        0.1432423494    0.7687693420    0.1961571706
N       -0.2590935551    1.2776621159   -2.5862464482
N       -0.4626763996    1.2101227576   -3.9369842803
N       -0.4134432019   -0.0121986513   -4.3551413557
N       -0.1719454029   -0.7721211081   -3.2555539383
Br       0.0318658186    0.1231476915    2.0625131904
H        1.1809001473   -0.8796231092   -0.7379813938
H       -0.5443866368   -1.1729715752   -0.4751939860
H        1.0315495636    1.3929162721    0.1324947127
H       -0.7417091721    1.3815871437    0.0433514989
H       -0.0952576607   -1.7789236465   -3.3407586660
13   
torsion grid (-60,)
C       -0.0927151388    0.0377638373   -2.1633001655
C        0.1217580246   -0.4082520687   -0.7489075856
C        0.1225293268    0.7832236958    0.2031949470
N       -0.2577578007    1.2799986238   -2.5850322246
N       -0.4173589122    1.2104374910   -3.9415811792
N       -0.3566954073   -0.0131026182   -4.3548038359
N       -0.1524365230   -0.7715223705   -3.2467607646
Br       0.3661881585    0.1512168807    2.0613754700
H        1.0737056141   -0.9444056395   -0.6727099514
H       -0.6649448368   -1.1134178078   -0.4607347585
H        0.9403699171    1.4715140054    0.0024915621
H       -0.8204072427    1.3248395184    0.1854970280
H       -0.0715021178   -1.7783643962   -3.3275789308
13   
torsion grid (-45,)
C       -0.1002581630    0.0353246109   -2.1752104152
C        0.0483574624   -0.4194196764   -0.7565856506
C        0.0765371278    0.7663984640    0.2047543794
N       -0.2287537830    1.2820894453   -2.5963196063
N       -0.3396705170    1.2211164512   -3.9580401727
N       -0.2852109323   -0.0014139985   -4.3749814635
N       -0.1341772845   -0.7681468550   -3.2640461477
Br       0.6551199051    0.1688300308    1.9986075438
H        0.9558330997   -1.0198613725   -0.6367686163
H       -0.7849235347   -1.0816079126   -0.4949148596
H        0.7953964650    1.5221128349   -0.1025515271
H       -0.9015428675    1.2257841117    0.3284190030
H       -0.0636308237   -1.7755520362   -3.3473358783
13   
torsion grid (-30,)
C       -0.1283702737    0.0365348391   -2.2189178334
C       -0.0791326944   -0.4402466679   -0.8018322547
C        0.0465803477    0.7233656251    0.1863847175
N       -0.3004060389    1.2814740916   -2.6295370652
N       -0.2962979463    1.2415724524   -3.9964410389
N       -0.1286632051    0.0340225703   -4.4270196550
N       -0.0210135424   -0.7443446863   -3.3191620974
Br       0.9149987909    0.1233325808    1.8597095223
H        0.7377352788   -1.1526769624   -0.6559217462
H       -0.9934244676   -1.0037855404   -0.5804561810
H        0.6834868358    1.5146888967   -0.2010596006
H       -0.9170175861    1.1417066531    0.4670947330
H        0.1254445164   -1.7427250730   -3.4115552318
13   
torsion grid (-15,)
C       -0.1216065952    0.0416694403   -2.2167230074
C       -0.1498817136   -0.4299687817   -0.7962213358
C        0.0000745029    0.7287906281    0.2024553743
N       -0.2257820719    1.2884093400   -2.6440771351
N       -0.1658836568    1.2365032152   -4.0091237920
N       -0.0312646998    0.0194112202   -4.4237344382
N       -0.0025360553   -0.7522967433   -3.3063239936
Br       1.2000186426    0.2425861842    1.6999932301
H        0.6259482282   -1.1823720908   -0.6320224576
H       -1.0988581425   -0.9474862288   -0.6130717856
H        0.4542475433    1.6014514057   -0.2588552560
H       -0.9460534497    1.0123170465    0.6569098417
H        0.1084541020   -1.7563679283   -3.3855116272
13   
torsion grid (0,)
C        0.0630246142    0.1155139610   -2.0198212157
C        0.5282019794    0.0491934407   -0.6014047616
C       -0.6137011043    0.3599834446    0.3936044223
N       -0.2935564855   -0.9002229461   -2.7877113456
N       -0.6878843196   -0.3614697711   -3.9805831854
N       -0.5879005190    0.9291151010   -3.9659183355
N       -0.1155978197    1.2510885615   -2.7352108173
Br      -0.1894832564    1.9011654078    1.5663851286
H        1.3560572167    0.7477974035   -0.4625425866
H        0.9132509504   -0.9570841540   -0.4268702005
H       -1.5429399005    0.6264214767   -0.1057036135
H       -0.7994495232   -0.4702371725    1.0712498032
H        0.0500885598    2.2201232197   -2.4875715781
13   
torsion grid (15,)
C        0.0734548399    0.0978189789   -2.0216752145
C        0.4971446007   -0.0338266689   -0.5932838600
C       -0.6206131429    0.4072531673    0.3718864975
N       -0.1597992778   -0.8775074375   -2.8826804565
N       -0.5516488691   -0.2756555265   -4.0468144706
N       -0.5674134075    1.0129070262   -3.9251869835
N       -0.1741221892    1.2701533877   -2.6520799297
Br      -0.2579845690    2.1937047777    1.1559148813
H        1.3822200237    0.5915836559   -0.4538439822
H        0.7669353619   -1.0766595924   -0.4175529509
H       -1.5938217234    0.4814565284   -0.1088629443
H       -0.6929779360   -0.2553386618    1.2319203501
H       -0.1157853707    2.2237004259   -2.3110866179
13   
torsion grid (30,)
C        0.0110284605    0.0477378276   -2.0464935092
C        0.4065181667   -0.1733034727   -0.6200468810
C       -0.6753991030    0.3016118750    0.3573179737
N       -0.1406436819   -0.8729969427   -2.9829608715
N       -0.5202249822   -0.2073157558   -4.1157904287
N       -0.6081409070    1.0666165180   -3.9022817808
N       -0.2736932527    1.2493506642   -2.6004250636
Br      -0.4188377455    2.2083769938    0.8560917840
H        1.3343121768    0.3780250801   -0.4438258109
H        0.5917110024   -1.2418305692   -0.4882442422
H       -1.6824347016    0.2241523966   -0.0483393963
H       -0.6188263761   -0.2309222877    1.3048938504
H       -0.2844721744    2.1737588345   -2.1818263792
13   
torsion grid (45,)
C        0.0222627551    0.1098625336   -2.0533382789
C        0.4116166991   -0.1202966012   -0.6272878773
C       -0.6020042506    0.4171884271    0.3808816951
N       -0.1585207539   -0.8241871026   -2.9730795084
N       -0.5044717312   -0.1700183829   -4.1214704105
N       -0.5439030747    1.1111228245   -3.9341190715
N       -0.2089147283    1.3087022012   -2.6356348642
Br      -0.4542990217    2.3901575838    0.6000489144
H        1.3918893932    0.3289882865   -0.4407947156
H        0.5019870008   -1.2025984979   -0.4942341948
H       -1.6329113031    0.2242852730    0.0885187529
H       -0.4163926610    0.0206201520    1.3775112091
H       -0.2026424702    2.2386375692   -2.2296865155
13   
torsion grid (60,)
C       -0.0491392423    0.1666257484   -1.9925724364
C        0.3138737154   -0.0585727098   -0.5600789531
C       -0.6815983558    0.4713599172    0.4662226013
N       -0.2454180708   -0.7871246156   -2.8901366957
N       -0.5393674704   -0.1561578030   -4.0638978615
N       -0.5313082973    1.1312276426   -3.9151029879
N       -0.2188255295    1.3542716034   -2.6161899830
Br      -0.7943934731    2.4586801640    0.4809849204
H        1.3153059253    0.3261522459   -0.3417456695
H        0.3623042042   -1.1457118631   -0.4315525827
H       -1.6972637870    0.1302460905    0.2713842303
H       -0.3827215543    0.2012451354    1.4773828347
H       -0.2006452125    2.2939359316   -2.2350395928
13   
torsion grid (75,)
C       -0.0750513411    0.1777375068   -2.0055429773
C        0.2939981633   -0.0437000732   -0.5761930818
C       -0.7092390172    0.4374419070    0.4714017381
N       -0.4551369526   -0.7658568141   -2.8533965411
N       -0.6782945225   -0.1441425645   -4.0469755998
N       -0.4502195205    1.1288835304   -3.9582743231
N       -0.0597380745    1.3487707587   -2.6807687854
Br      -1.2164843884    2.3487385025    0.2761851588
H        1.2932371665    0.3394822463   -0.3466727274
H        0.3614725281   -1.1313899888   -0.4551762123
H       -1.6528756775   -0.1001446122    0.3958597862
H       -0.3025692572    0.3420400350    1.4765154656
H        0.1038656541    2.2907018545   -2.3443632071
13   
torsion grid (90,)
C       -0.0803251265    0.1944501984   -2.0210305391
C        0.2808654243   -0.0621834500   -0.5967396941
C       -0.6755277354    0.4500200206    0.4899497221
N       -0.5218495774   -0.7177727353   -2.8734480393
N       -0.7024618129   -0.0777675125   -4.0640608692
N       -0.3866417838    1.1762340320   -3.9706040145
N        0.0173842546    1.3636938154   -2.6923120771
Br      -1.4425181847    2.2485872226    0.1481030750
H        1.3072067252    0.2434017521   -0.3701616285
H        0.2879650880   -1.1536766575   -0.4960808539
H       -1.5536114046   -0.1880357027    0.5685725225
H       -0.1769513770    0.5148483618    1.4549625435
H        0.2406154225    2.2925077511   -2.3544524522
13   
torsion grid (105,)
C       -0.1215934981    0.1937197275   -2.0042548383
C        0.2308776093   -0.0964409009   -0.5845928598
C       -0.6842716956    0.4679455759    0.5261282715
N       -0.6399666035   -0.6739077863   -2.8587928945
N       -0.7780659113   -0.0117595824   -4.0434197300
N       -0.3657455865    1.2132171584   -3.9438278064
N        0.0627742922    1.3573226858   -2.6676875882
Br      -1.7503671910    2.0623690214    0.0265395336
H        1.2719991366    0.1685461008   -0.3749068293
H        0.1928133739   -1.1868987309   -0.4981456505
H       -1.4410952007   -0.2595381645    0.8106631323
H       -0.1113364297    0.7591624314    1.4039062773
H        0.3579217120    2.2648748791   -2.3277919645
13   
torsion grid (120,)
C       -0.0745755949    0.3658096857   -2.0026303913
C        0.2392766041   -0.0254619648   -0.5966393885
C       -0.5587756743    0.6492429741    0.5510665202
N       -0.6370898956   -0.4150572453   -2.9106329779
N       -0.7099151734    0.3186146352   -4.0588156488
N       -0.2141528683    1.5034369858   -3.8871057933
N        0.2057170850    1.5463145324   -2.5998147053
Br      -1.8052523665    2.0879896652    0.0063308221
H        1.3085071676    0.1195373641   -0.4099176169
H        0.0622046224   -1.1023349532   -0.5511593431
H       -1.1952665149   -0.0729398499    1.0569023273
H        0.1024328380    1.1137307474    1.2793782323
H        0.5605156778    2.4116001142   -2.2107378862
13   
torsion grid (135,)
C        0.0560930913    0.4928465546   -2.1584968875
C       -0.4689627127    0.0262189845   -0.8383195314
C       -0.7832416666    1.1159675953    0.2165399232
N        1.3188154497    0.4291265962   -2.5484863627
N        1.3576767318    0.9358450022   -3.8147264214
N        0.1770878094    1.2986178827   -4.2074056938
N       -0.6592295959    1.0143250888   -3.1804560402
Br      -1.0019666683    2.9545081929   -0.4866291351
H        0.3375117438   -0.5964261195   -0.4426938903
H       -1.3504435355   -0.6006795772   -0.9991094871
H       -1.7035077711    0.8977678337    0.7544131453
H        0.0348992265    1.2116266739    0.9266323868
H       -1.6336175060    1.2871889938   -3.2276224887
13   
torsion grid (150,)
C        0.0606108306    0.4852155123   -2.1482020041
C       -0.5174472093    0.0338630975   -0.8433237486
C       -0.7399036353    1.1297794327    0.2147735455
N        1.3244376242    0.3411021371   -2.5141220180
N        1.4242865481    0.8618961859   -3.7710943528
N        0.2789185178    1.3079836050   -4.1824851038
N       -0.5952826893    1.0680190493   -3.1764835915
Br      -1.3024462841    2.8914188445   -0.5006814836
H        0.2531504293   -0.6358263739   -0.4490812179
H       -1.4383306043   -0.5291205146   -1.0161213967
H       -1.5040292780    0.8394923469    0.9333055337
H        0.1881830945    1.3543692155    0.7363961959
H       -1.5479151611    1.4076346536   -3.2355309786
13   
torsion grid (165,)
C        0.0334984309    0.4593909447   -2.1737970676
C       -0.5547332261    0.0102181103   -0.8723846582
C       -0.7511001943    1.1052170745    0.1793801522
N        1.2769961517    0.2286089683   -2.5660845742
N        1.3982972000    0.7789956069   -3.8083401944
N        0.2855050490    1.3270009216   -4.1848155526
N       -0.5890889135    1.1275195338   -3.1705210026
Br      -1.7080656115    2.7121244190   -0.4865975168
H        0.1999816349   -0.6756286971   -0.4725749081
H       -1.4868058880   -0.5357312345   -1.0415293113
H       -1.3350460345    0.7416211858    1.0229963665
H        0.2053749402    1.4917999291    0.5267976860
H       -1.5151747713    1.5376670200   -3.2005372358
13   
torsion grid (180,)
C        0.0209216455    0.4698528522   -2.1263454984
C       -0.5730148117    0.0478801604   -0.8184001264
C       -0.7968418173    1.1662555649    0.1946359131
N        1.1885253793    0.0586339727   -2.5975840223
N        1.3460821257    0.6566415066   -3.8137167777
N        0.3295669365    1.4089802772   -4.0971401229
N       -0.5202327664    1.2974805962   -3.0483147650
Br      -2.1226133967    2.5211226356   -0.4102127285
H        0.1676544213   -0.6344299176   -0.3869612216
H       -1.5006231918   -0.5098435519   -0.9792058040
H       -1.1985830536    0.7756169215    1.1278392045
H        0.1138509740    1.7316794037    0.3865574223
H       -1.3736687687    1.8434149124   -3.0065733354
