11
0 1 C4FH3N2S
C                    -1.084315389620     0.006731356374    -0.856028933615
C                     0.315460696642     0.085298767810    -1.317735393745
C                    -0.290225240902    -0.143346332757     1.289145748255
C                     1.028328673569    -0.653786680173     0.743341641456
N                    -1.369741411271    -0.130840356531     0.392657216304
N                     1.318948156784    -0.252901657844    -0.634067669308
F                     0.468508292325     0.480992238904    -2.596203187280
S                    -0.485061955620     0.402875040856     2.817743459365
H                    -1.887905830341     0.022710888854    -1.593015103853
H                     1.844308735032    -0.323530283973     1.388986829700
H                     1.036642671977    -1.754261056849     0.772947069061
