37
0 1 C18H16N2O
C                     5.360949279116    -2.694951491326    -1.296196822916
C                     4.636246619005    -3.303199911303    -2.054771391309
C                     2.268446566013    -1.526091443172     0.652298485687
C                     1.565042336113    -1.352661962791    -0.544980855229
C                     2.775430523685    -4.363876272284    -5.116877429875
C                     3.635052882775    -3.647347352162    -4.282728492225
C                     2.300422887442    -2.780957086428     1.259833172610
C                     0.896925891623    -2.437065608586    -1.112663788511
C                     2.025223252429    -5.431055517377    -4.618915737266
C                     3.044647238819    -5.126095289418    -2.445220938500
C                     3.769157193757    -4.026168193106    -2.935194119019
C                     1.634390856110    -3.878803240985     0.695519124329
C                     0.924136898185    -3.696904972570    -0.502460757254
C                     2.154060625591    -5.814580738433    -3.274347730416
C                     1.136136613172    -7.175584211556    -1.433163093591
C                     1.733945414554    -5.246432642507     1.348252429639
C                     0.175344075280    -4.855759078727    -1.135273281720
C                     0.708935825119    -6.242054534300     0.792820562629
N                     0.681139236347    -6.137771555225    -0.662523242460
N                     1.357697613128    -6.894266097339    -2.796827317355
O                     1.306679733499    -8.315769612484    -0.997113224300
H                     5.991386226540    -2.153427756106    -0.623908112460
H                     2.796951054862    -0.689635986106     1.102337181000
H                     1.548627343706    -0.383766832786    -1.036895147716
H                     2.670082205048    -4.076297525989    -6.159526813538
H                     4.200261536881    -2.801048251750    -4.660196147665
H                     2.857034152868    -2.918616711543     2.185074892268
H                     0.362679337904    -2.311600877583    -2.052552768227
H                     1.324170670178    -5.960921986656    -5.258606570617
H                     3.175080959706    -5.424159406971    -1.412259773544
H                     2.741360830128    -5.649450767589     1.180344426608
H                     1.612909293542    -5.155650503397     2.433874987512
H                    -0.890475909356    -4.790877338274    -0.866672946908
H                     0.227062114568    -4.801590753158    -2.220048923218
H                     0.953033810422    -7.268585582301     1.062447511813
H                    -0.293803071525    -6.014920329921     1.177702736930
H                     1.499763913839    -7.766508597347    -3.295998164015
