
  -OEChem-05262117483D

 31 32  0     0  0  0  0  0  0999 V2000
   -4.4942   -1.3162   -2.9984 C   0  0  0  0  0  0  0  0  0  0  0  0
   -3.4023   -0.6131   -2.4833 C   0  0  0  0  0  0  0  0  0  0  0  0
   -5.7815   -1.0953   -2.4990 C   0  0  0  0  0  0  0  0  0  0  0  0
   -4.8620    0.5489   -0.9487 C   0  0  0  0  0  0  0  0  0  0  0  0
   -3.5776    0.3236   -1.4564 C   0  0  0  0  0  0  0  0  0  0  0  0
   -5.9323   -0.1623   -1.4789 C   0  0  0  0  0  0  0  0  0  0  0  0
   -1.7365    0.3004    0.2741 C   0  0  0  0  0  0  0  0  0  0  0  0
    0.1900    1.9064    0.1612 C   0  0  0  0  0  0  0  0  0  0  0  0
    0.1298   -0.0048    1.7862 C   0  0  0  0  0  0  0  0  0  0  0  0
    1.2008    1.5333   -0.9300 C   0  0  0  0  0  0  0  0  0  0  0  0
    0.6354   -1.3852    1.3446 C   0  0  0  0  0  0  0  0  0  0  0  0
   -2.3910    1.0625   -0.8887 C   0  0  0  0  0  0  0  0  0  0  0  0
   -0.5349    0.7761    0.7405 N   0  0  0  0  0  0  0  0  0  0  0  0
   -2.2689   -0.6846    0.7822 O   0  0  0  0  0  0  0  0  0  0  0  0
   -7.1764    0.0671   -0.9793 F   0  0  0  0  0  0  0  0  0  0  0  0
    2.5165    0.3736   -0.3752 S   0  0  0  0  0  0  0  0  0  0  0  0
    1.4462   -1.4201   -0.3070 S   0  0  0  0  0  0  0  0  0  0  0  0
   -4.3462   -2.0412   -3.7942 H   0  0  0  0  0  0  0  0  0  0  0  0
   -2.4053   -0.8013   -2.8744 H   0  0  0  0  0  0  0  0  0  0  0  0
   -6.6479   -1.6255   -2.8820 H   0  0  0  0  0  0  0  0  0  0  0  0
   -5.0379    1.2568   -0.1437 H   0  0  0  0  0  0  0  0  0  0  0  0
    0.7130    2.4198    0.9738 H   0  0  0  0  0  0  0  0  0  0  0  0
   -0.5235    2.6257   -0.2479 H   0  0  0  0  0  0  0  0  0  0  0  0
   -0.5659   -0.1565    2.6173 H   0  0  0  0  0  0  0  0  0  0  0  0
    0.9710    0.5886    2.1465 H   0  0  0  0  0  0  0  0  0  0  0  0
    0.7067    1.0878   -1.7968 H   0  0  0  0  0  0  0  0  0  0  0  0
    1.7269    2.4367   -1.2607 H   0  0  0  0  0  0  0  0  0  0  0  0
    1.3251   -1.7691    2.1013 H   0  0  0  0  0  0  0  0  0  0  0  0
   -0.2020   -2.0787    1.2381 H   0  0  0  0  0  0  0  0  0  0  0  0
   -1.6524    1.2343   -1.6769 H   0  0  0  0  0  0  0  0  0  0  0  0
   -2.6968    2.0507   -0.5256 H   0  0  0  0  0  0  0  0  0  0  0  0
  1  2  1  0  0  0  0
  1  3  2  0  0  0  0
  1 18  1  0  0  0  0
  2  5  2  0  0  0  0
  2 19  1  0  0  0  0
  3  6  1  0  0  0  0
  3 20  1  0  0  0  0
  4  5  1  0  0  0  0
  4  6  2  0  0  0  0
  4 21  1  0  0  0  0
  5 12  1  0  0  0  0
  6 15  1  0  0  0  0
  7 12  1  0  0  0  0
  7 13  1  0  0  0  0
  7 14  2  0  0  0  0
  8 10  1  0  0  0  0
  8 13  1  0  0  0  0
  8 22  1  0  0  0  0
  8 23  1  0  0  0  0
  9 11  1  0  0  0  0
  9 13  1  0  0  0  0
  9 24  1  0  0  0  0
  9 25  1  0  0  0  0
 10 16  1  0  0  0  0
 10 26  1  0  0  0  0
 10 27  1  0  0  0  0
 11 17  1  0  0  0  0
 11 28  1  0  0  0  0
 11 29  1  0  0  0  0
 12 30  1  0  0  0  0
 12 31  1  0  0  0  0
 16 17  1  0  0  0  0
M  END
$$$$
