
  -OEChem-05262117483D

 37 39  0     0  0  0  0  0  0999 V2000
    5.3609   -2.6950   -1.2962 C   0  0  0  0  0  0  0  0  0  0  0  0
    4.6362   -3.3032   -2.0548 C   0  0  0  0  0  0  0  0  0  0  0  0
    2.2684   -1.5261    0.6523 C   0  0  0  0  0  0  0  0  0  0  0  0
    1.5650   -1.3527   -0.5450 C   0  0  0  0  0  0  0  0  0  0  0  0
    2.7754   -4.3639   -5.1169 C   0  0  0  0  0  0  0  0  0  0  0  0
    3.6351   -3.6473   -4.2827 C   0  0  0  0  0  0  0  0  0  0  0  0
    2.3004   -2.7810    1.2598 C   0  0  0  0  0  0  0  0  0  0  0  0
    0.8969   -2.4371   -1.1127 C   0  0  0  0  0  0  0  0  0  0  0  0
    2.0252   -5.4311   -4.6189 C   0  0  0  0  0  0  0  0  0  0  0  0
    3.0446   -5.1261   -2.4452 C   0  0  0  0  0  0  0  0  0  0  0  0
    3.7692   -4.0262   -2.9352 C   0  0  0  0  0  0  0  0  0  0  0  0
    1.6344   -3.8788    0.6955 C   0  0  0  0  0  0  0  0  0  0  0  0
    0.9241   -3.6969   -0.5025 C   0  0  0  0  0  0  0  0  0  0  0  0
    2.1541   -5.8146   -3.2743 C   0  0  0  0  0  0  0  0  0  0  0  0
    1.1361   -7.1756   -1.4332 C   0  0  0  0  0  0  0  0  0  0  0  0
    1.7339   -5.2464    1.3483 C   0  0  0  0  0  0  0  0  0  0  0  0
    0.1753   -4.8558   -1.1353 C   0  0  0  0  0  0  0  0  0  0  0  0
    0.7089   -6.2421    0.7928 C   0  0  0  0  0  0  0  0  0  0  0  0
    0.6811   -6.1378   -0.6625 N   0  0  0  0  0  0  0  0  0  0  0  0
    1.3577   -6.8943   -2.7968 N   0  0  0  0  0  0  0  0  0  0  0  0
    1.3067   -8.3158   -0.9971 O   0  0  0  0  0  0  0  0  0  0  0  0
    5.9914   -2.1534   -0.6239 H   0  0  0  0  0  0  0  0  0  0  0  0
    2.7970   -0.6896    1.1023 H   0  0  0  0  0  0  0  0  0  0  0  0
    1.5486   -0.3838   -1.0369 H   0  0  0  0  0  0  0  0  0  0  0  0
    2.6701   -4.0763   -6.1595 H   0  0  0  0  0  0  0  0  0  0  0  0
    4.2003   -2.8010   -4.6602 H   0  0  0  0  0  0  0  0  0  0  0  0
    2.8570   -2.9186    2.1851 H   0  0  0  0  0  0  0  0  0  0  0  0
    0.3627   -2.3116   -2.0526 H   0  0  0  0  0  0  0  0  0  0  0  0
    1.3242   -5.9609   -5.2586 H   0  0  0  0  0  0  0  0  0  0  0  0
    3.1751   -5.4242   -1.4123 H   0  0  0  0  0  0  0  0  0  0  0  0
    2.7414   -5.6495    1.1803 H   0  0  0  0  0  0  0  0  0  0  0  0
    1.6129   -5.1557    2.4339 H   0  0  0  0  0  0  0  0  0  0  0  0
   -0.8905   -4.7909   -0.8667 H   0  0  0  0  0  0  0  0  0  0  0  0
    0.2271   -4.8016   -2.2200 H   0  0  0  0  0  0  0  0  0  0  0  0
    0.9530   -7.2686    1.0624 H   0  0  0  0  0  0  0  0  0  0  0  0
   -0.2938   -6.0149    1.1777 H   0  0  0  0  0  0  0  0  0  0  0  0
    1.4998   -7.7665   -3.2960 H   0  0  0  0  0  0  0  0  0  0  0  0
  1  2  3  0  0  0  0
  1 22  1  0  0  0  0
  2 11  1  0  0  0  0
  3  4  1  0  0  0  0
  3  7  2  0  0  0  0
  3 23  1  0  0  0  0
  4  8  2  0  0  0  0
  4 24  1  0  0  0  0
  5  6  2  0  0  0  0
  5  9  1  0  0  0  0
  5 25  1  0  0  0  0
  6 11  1  0  0  0  0
  6 26  1  0  0  0  0
  7 12  1  0  0  0  0
  7 27  1  0  0  0  0
  8 13  1  0  0  0  0
  8 28  1  0  0  0  0
  9 14  2  0  0  0  0
  9 29  1  0  0  0  0
 10 11  2  0  0  0  0
 10 14  1  0  0  0  0
 10 30  1  0  0  0  0
 12 13  2  0  0  0  0
 12 16  1  0  0  0  0
 13 17  1  0  0  0  0
 14 20  1  0  0  0  0
 15 19  1  0  0  0  0
 15 20  1  0  0  0  0
 15 21  2  0  0  0  0
 16 18  1  0  0  0  0
 16 31  1  0  0  0  0
 16 32  1  0  0  0  0
 17 19  1  0  0  0  0
 17 33  1  0  0  0  0
 17 34  1  0  0  0  0
 18 19  1  0  0  0  0
 18 35  1  0  0  0  0
 18 36  1  0  0  0  0
 20 37  1  0  0  0  0
M  END
$$$$
