37
0 1 C18H16N2O
C                    -0.922718941390    -5.681081060039    11.418844317862
C                     0.072214924777    -5.369456712962    10.798184591461
C                     1.510207337219    -1.151173956212    -0.046657575832
C                     0.165006799556    -1.250362038270     0.329535265249
C                     3.637727915909    -4.627096197806     9.998596974163
C                     2.500159132242    -4.988089714702    10.719635420764
C                     2.495085169475    -1.711704424479     0.766346869258
C                    -0.173477042828    -1.905719924959     1.512944437548
C                     3.543476104707    -4.286524793659     8.649997896409
C                     1.147247461309    -4.658292739572     8.711145381457
C                     1.252061861306    -5.003298161901    10.070851084513
C                     2.161829497388    -2.372185386871     1.958401225523
C                     0.813297397594    -2.466242323274     2.336949418493
C                     2.297795549050    -4.299366839749     7.995178886750
C                     1.193796285932    -3.757804183545     5.801191348479
C                     3.242743536985    -2.974964374077     2.831466252129
C                     0.379163112764    -3.176872266898     3.604162734613
C                     2.661931203804    -4.035437536300     3.764222261719
N                     1.511912642531    -3.477078202752     4.478554736576
N                     2.294320352347    -3.966241535759     6.625533081926
O                     0.032792730738    -3.772046760624     6.206486782395
H                    -1.803273444809    -5.953184960744    11.960892266610
H                     1.786267652506    -0.643868793265    -0.967389843095
H                    -0.612451579310    -0.818058177412    -0.294877301262
H                     4.608194442933    -4.609723712154    10.487141233335
H                     2.564576995953    -5.254091254940    11.769809492691
H                     3.541120948613    -1.642249396985     0.473575513374
H                    -1.218393120031    -1.981059979839     1.808215076231
H                     4.440726069746    -4.009532623763     8.099105650186
H                     0.183180607675    -4.656507025783     8.223462326444
H                     4.027164416831    -3.419043962487     2.208275370585
H                     3.715171106236    -2.188097192654     3.433532972101
H                    -0.324374083494    -2.558844789654     4.163098246892
H                    -0.158326492908    -4.102622467646     3.345154721015
H                     2.334745675875    -4.908994681837     3.179520851755
H                     3.416747724984    -4.396241919970     4.462867939637
H                     3.190352712375    -3.667848063603     6.267594706154
