31
0 1 C12FH14NOS2
C                     4.216440791424    -0.971979957971    -1.485276094873
C                     3.191654996323    -0.115577816837    -1.888874393973
C                     4.076457565053    -2.359634430582    -1.597462287964
C                     1.855185078288    -2.018213194293    -2.546046099053
C                     1.999183648416    -0.631833742422    -2.417216679424
C                     2.891648507360    -2.849746075609    -2.131348831844
C                     0.410295862218     1.124084750368    -1.579101696166
C                    -0.718473064276     1.342604986945     0.545094755332
C                    -0.873730339945    -0.840131508271    -0.694493700605
C                     0.455961659413     1.503378273564     1.519370114706
C                    -0.329589082571    -1.796314446982     0.398670775543
C                     0.872419726748     0.311805590272    -2.793995504889
N                    -0.389705307070     0.532075127953    -0.633443922838
O                     0.792835691805     2.289908009263    -1.445484820896
F                     2.728897801924    -4.194624090345    -2.254892252690
S                     0.855944947900     0.005664503367     2.498270154812
S                     1.345549572367    -1.392384284978     1.019679944115
H                     5.131569405408    -0.560872152701    -1.068221665989
H                     3.300932312871     0.959302247865    -1.775399569706
H                     4.855472899692    -3.046314242285    -1.281618519939
H                     0.956582954349    -2.464123450096    -2.964114770146
H                    -1.571124444967     0.879054566490     1.048897834082
H                    -1.016205398301     2.337103155056     0.201340217968
H                    -0.629763886929    -1.244804820291    -1.671374686231
H                    -1.969376212703    -0.832382951587    -0.623563755682
H                     1.341265755844     1.847750842284     0.984718856839
H                     0.198994364810     2.254491078154     2.275588304606
H                    -0.993480126410    -1.821985330899     1.265307928905
H                    -0.273354833296    -2.811348024684    -0.008066041843
H                     1.229647380483     1.058402216626    -3.506137164926
H                     0.052973718599    -0.231123808956    -3.271284387044
