
  -OEChem-05262117483D

 15 14  0     0  0  0  0  0  0999 V2000
    0.2952    1.3297    0.3319 C   0  0  0  0  0  0  0  0  0  0  0  0
   -0.1953    0.1601   -0.0885 C   0  0  0  0  0  0  0  0  0  0  0  0
    0.2062   -1.1757    0.4482 C   0  0  0  0  0  0  0  0  0  0  0  0
   -0.2656   -2.2322    0.0879 O   0  0  0  0  0  0  0  0  0  0  0  0
   -2.6221    2.2072   -0.8543 O   0  0  0  0  0  0  0  0  0  0  0  0
    1.1741   -1.0759    1.3999 O   0  0  0  0  0  0  0  0  0  0  0  0
   -3.2128   -0.0930    0.2414 O   0  0  0  0  0  0  0  0  0  0  0  0
   -3.3068    0.1303   -2.2777 O   0  0  0  0  0  0  0  0  0  0  0  0
   -1.1276    0.0480   -1.1154 O   0  0  0  0  0  0  0  0  0  0  0  0
   -2.5803    0.7345   -0.9818 P   0  0  0  0  0  0  0  0  0  0  0  0
   -0.0507    2.2664   -0.0929 H   0  0  0  0  0  0  0  0  0  0  0  0
    1.0372    1.3449    1.1208 H   0  0  0  0  0  0  0  0  0  0  0  0
    1.3617   -1.9899    1.6856 H   0  0  0  0  0  0  0  0  0  0  0  0
   -3.8569    0.4402    0.7377 H   0  0  0  0  0  0  0  0  0  0  0  0
   -3.3866    0.7975   -2.9806 H   0  0  0  0  0  0  0  0  0  0  0  0
  1  2  2  0  0  0  0
  1 11  1  0  0  0  0
  1 12  1  0  0  0  0
  2  3  1  0  0  0  0
  2  9  1  0  0  0  0
  3  4  2  0  0  0  0
  3  6  1  0  0  0  0
  5 10  2  0  0  0  0
  6 13  1  0  0  0  0
  7 10  1  0  0  0  0
  7 14  1  0  0  0  0
  8 10  1  0  0  0  0
  8 15  1  0  0  0  0
  9 10  1  0  0  0  0
M  END
$$$$
