26   
torsion grid (-165,)
C        6.1135485985    0.3229477812    1.2658020264
C        5.7257922533    1.1029386685    0.2037576973
C        4.0436389588   -0.1706959510    0.8873472934
C        1.8392822222   -1.4133212707   -1.1772436853
C        2.6540700636   -2.0687882183    1.8825883922
C        2.1039740970   -0.7946611072    2.4642774605
C        2.6996034457   -0.7951447749    1.0602101197
C        0.6859985173   -1.2312159136   -2.1522416851
C        3.6110897471    1.3781724842   -1.1134409070
N        5.0638825294   -0.4634816327    1.6824507932
N        4.3925116101    0.7927336514   -0.0312615680
N        1.7463603327   -0.6880091246   -0.0140516395
O        2.7893383122   -2.1498676418   -1.4205915021
H        7.0819523562    0.2784970564    1.7471456980
H        6.2523091026    1.8246882163   -0.4046753088
H        3.6083555033   -2.4247384774    2.2513383112
H        1.9545828050   -2.8235439057    1.5402428466
H        1.0251087383   -0.6864889208    2.5491654923
H        2.6891152151   -0.2912647414    3.2264288722
H       -0.0549183586   -0.4936176095   -1.8300467695
H        0.1886674016   -2.1960528260   -2.2858336401
H        1.0881006920   -0.9344162590   -3.1243172940
H        3.4166582137    0.6435466775   -1.8982981216
H        4.1842909881    2.2028740968   -1.5404707254
H        2.6636673734    1.7746326230   -0.7435415060
H        0.9478004495   -0.0825048766    0.1178259809
26   
torsion grid (-150,)
C        6.1764286360    0.0941381583    1.0351273846
C        5.7278126840    1.0283205276    0.1320258535
C        4.0551148525   -0.2511265058    0.8278829598
C        1.9163826428   -1.5266814477   -1.1891696705
C        2.5745185735   -1.9720371260    1.9915040208
C        2.0590463682   -0.6246722745    2.4277735348
C        2.6858335801   -0.7963575741    1.0475455653
C        0.8259118553   -1.3650888861   -2.2382120006
C        3.4813961489    1.5927310151   -0.8458179306
N        5.1312682896   -0.6945200186    1.4605851863
N        4.3629628086    0.8119483244    0.0093143533
N        1.7647327010   -0.7555065388   -0.0608220418
O        2.8630984995   -2.2894321781   -1.3442335107
H        7.1857309641   -0.0592688748    1.3946427483
H        6.2316036627    1.7992250906   -0.4342114102
H        3.5059542311   -2.3277170374    2.4148205976
H        1.8510387015   -2.7301686501    1.7126583080
H        0.9830675623   -0.4729482027    2.4744941453
H        2.6401816451   -0.0655336009    3.1536816386
H        0.0820874968   -0.6014046165   -1.9919129126
H        0.3177728045   -2.3254530441   -2.3625408864
H        1.2918270708   -1.1164357849   -3.1952211677
H        3.1677274494    1.0202291213   -1.7226719736
H        4.0198514187    2.4814116170   -1.1799957991
H        2.5959023844    1.9178341304   -0.2942817325
H        0.9787590907   -0.1225830204   -0.0069131460
26   
torsion grid (-135,)
C        6.2088076291   -0.1242529738    0.8672789388
C        5.7372111114    0.9487779518    0.1462514383
C        4.0612657198   -0.3293857749    0.8390542614
C        1.9136850078   -1.7170831166   -1.1005252977
C        2.5079884281   -1.9066434903    2.1045856340
C        2.0222344643   -0.5153510403    2.4261244231
C        2.6736780162   -0.8128157918    1.0792196711
C        0.8930964294   -1.5565967427   -2.2184355454
C        3.4286302213    1.7421033047   -0.4912051534
N        5.1611994965   -0.9113225136    1.2908123266
N        4.3578379370    0.8190559951    0.1393803727
N        1.7818190559   -0.8305940013   -0.0553171367
O        2.7869445046   -2.5749624988   -1.1337851322
H        7.2361538315   -0.3763019425    1.0965610788
H        6.2335666271    1.7672899084   -0.3564588775
H        3.4195942068   -2.2597974085    2.5711077035
H        1.7683932458   -2.6635937305    1.8694411427
H        0.9501564496   -0.3335562394    2.4342915815
H        2.5988343771    0.0825258290    3.1247536860
H        0.1658381271   -0.7572978248   -2.0463156648
H        0.3587237105   -2.5023428223   -2.3408259614
H        1.4253627687   -1.3589239139   -3.1529231702
H        3.0407393890    1.3383029290   -1.4312641651
H        3.9455423774    2.6815486521   -0.6956092509
H        2.5912949115    1.9534483655    0.1793940673
H        1.0560250605   -0.1290983895   -0.1056417023
26   
torsion grid (-120,)
C        6.2534704055   -0.1785920915    0.6786375548
C        5.7786808515    1.0052723049    0.1588083956
C        4.1040692150   -0.3000189198    0.8067490423
C        1.9027536921   -1.8808349186   -1.0276376825
C        2.5005769629   -1.7884395274    2.1200543438
C        2.0209511039   -0.3766672304    2.3482697033
C        2.7075046098   -0.7594466898    1.0402774453
C        0.9705813711   -1.7353699696   -2.2226685934
C        3.4559149994    1.9380006308   -0.1892609609
N        5.2068576810   -0.9818410712    1.0732720354
N        4.4002604465    0.9267802642    0.2526893882
N        1.8535901701   -0.8431503464   -0.1210517077
O        2.6355638430   -2.8511910139   -0.8894920043
H        7.2828000702   -0.4956608453    0.7864259358
H        6.2736831265    1.8730725374   -0.2548876047
H        3.3949154717   -2.1266492242    2.6293367051
H        1.7613843688   -2.5524267520    1.9102404771
H        0.9512618972   -0.1869789124    2.3111704381
H        2.5801500256    0.2561443763    3.0306789521
H        0.3020113253   -0.8710308671   -2.1636638432
H        0.3717519159   -2.6450402406   -2.3111224869
H        1.5768003797   -1.6522048782   -3.1293682672
H        3.0733551643    1.7160906101   -1.1914640436
H        3.9500005886    2.9114198391   -0.2084368095
H        2.6177551273    1.9945236227    0.5101259886
H        1.2403906948   -0.0643769993   -0.3199952366
26   
torsion grid (-105,)
C        6.0837730498   -0.2365919755    0.5332142203
C        5.6540064465    1.0366832927    0.2288597091
C        3.9440045373   -0.2599546310    0.8015675638
C        1.6975445773   -1.9439684188   -0.9718471574
C        2.2606084481   -1.6557769350    2.1277679981
C        1.8088735037   -0.2247410706    2.2758527422
C        2.5319743655   -0.6825709458    1.0121926254
C        0.9090471745   -1.7921716274   -2.2656823296
C        3.3766541939    2.1216262306    0.1374111496
N        5.0156287255   -1.0331131715    0.8797222557
N        4.2831505863    1.0197002684    0.4100790226
N        1.7252809962   -0.8139990447   -0.1786411542
O        2.2547444491   -2.9905248046   -0.6701994912
H        7.0961542081   -0.6197586604    0.5238074453
H        6.1780122428    1.9307946758   -0.0800244370
H        3.1271090206   -1.9930839971    2.6840234057
H        1.5125763333   -2.4130423207    1.9281102535
H        0.7468279786   -0.0128113419    2.1875600407
H        2.3566596295    0.4239140465    2.9532056989
H        0.2654170846   -0.9073590652   -2.2905744365
H        0.2989795344   -2.6860106228   -2.4108565044
H        1.6157828165   -1.7342615533   -3.0995163016
H        3.0565147003    2.1240968913   -0.9110888687
H        3.8742520579    3.0698153740    0.3532178054
H        2.4975668878    2.0416349305    0.7797773780
H        1.2806277431    0.0205823184   -0.5384558144
26   
torsion grid (-90,)
C        6.0365748765   -0.2635536074    0.2358722264
C        5.6533271819    1.0579315132    0.1633416219
C        3.9287571320   -0.2377189370    0.6977020857
C        1.6235103942   -2.0764814159   -0.9107132463
C        2.2453440195   -1.5622567280    2.1113659621
C        1.7904927580   -0.1278241529    2.1780600390
C        2.5186430971   -0.6511367320    0.9424936950
C        0.9272565608   -1.9936201299   -2.2626211368
C        3.4551977754    2.2531707050    0.4153296970
N        4.9599829925   -1.0567006572    0.5590734028
N        4.3028845758    1.0721889766    0.4581209555
N        1.7223521776   -0.8694219764   -0.2436504183
O        2.0429931859   -3.1355453793   -0.4647440253
H        7.0223583945   -0.6828482977    0.0794186887
H        6.1988437190    1.9658893681   -0.0550034910
H        3.1104607950   -1.8636036563    2.6904614545
H        1.5044090797   -2.3353827906    1.9537947677
H        0.7292111187    0.0775855616    2.0714412197
H        2.3328878422    0.5547085611    2.8260413492
H        0.3786716739   -1.0601996484   -2.4221195720
H        0.2396964449   -2.8367368375   -2.3550192764
H        1.6831940832   -2.0937546304   -3.0479463281
H        3.3476251210    2.6177557498   -0.6119487983
H        3.8832617473    3.0510929031    1.0291962954
H        2.4694432096    2.0076675738    0.8088792844
H        1.4200864048   -0.0451454811   -0.7477388107
26   
torsion grid (-75,)
C        5.9509134956   -0.2686022183   -0.0587563807
C        5.6469644811    1.0667320569    0.0931023464
C        3.8818382298   -0.2020471836    0.5543084365
C        1.5657982340   -2.1841852205   -0.8913496646
C        2.1751506537   -1.4157192873    2.0608241176
C        1.7227970222    0.0183902447    2.0067704220
C        2.4700397232   -0.5964191165    0.8268199670
C        0.9783267607   -2.2055858313   -2.2960123266
C        3.5733658671    2.3312661230    0.7375990821
N        4.8496062039   -1.0426405334    0.2184375605
N        4.3175049025    1.1083505645    0.4715134753
N        1.6964288116   -0.9160408848   -0.3515434924
O        1.8759191980   -3.2123826899   -0.3055073610
H        6.8951084112   -0.7097615321   -0.3519964848
H        6.2333572943    1.9675862468   -0.0249344250
H        3.0296107076   -1.6686125703    2.6782914981
H        1.4389368665   -2.2011546008    1.9526855978
H        0.6650451801    0.2160133363    1.8608241156
H        2.2467811524    0.7457964637    2.6187340409
H        0.4265802043   -1.2965711447   -2.5550549451
H        0.3180121740   -3.0696184592   -2.3883094530
H        1.7975700884   -2.3309372224   -3.0117337658
H        3.9537405438    3.1295380785    0.0965436645
H        3.6728548170    2.6411918206    1.7833657929
H        2.5160438814    2.1833446643    0.5173840055
H        1.5102956150   -0.1447907532   -0.9808657731
26   
torsion grid (-60,)
C        4.3045633578    1.9544918497   -1.0303357345
C        5.1288194901    1.5712360124    0.0039264401
C        3.4993861620    0.0891056222   -0.2937999161
C        0.1968059760   -0.3796541568   -0.5821373797
C        2.6317125450   -2.2515228864   -0.9981363288
C        3.0433366021   -2.4016425193    0.4397434246
C        2.5587731726   -1.0504254169   -0.0780911259
C       -0.9505047990    0.4191173617    0.0197418323
C        5.1374008313   -0.3285949400    1.6391711249
N        3.2955037402    1.0380157095   -1.1974271812
N        4.6030626074    0.3849103600    0.4863767940
N        1.2282913065   -0.6389187939    0.3075115054
O        0.1802688208   -0.7613134140   -1.7440661784
H        4.3825814963    2.8338754831   -1.6570278264
H        6.0169163920    2.0139390477    0.4332709450
H        3.4075692993   -2.2227423689   -1.7553028285
H        1.6881189203   -2.6673850295   -1.3246768204
H        2.3694486538   -2.9228318037    1.1127045172
H        4.0971045469   -2.5327190466    0.6566375103
H       -1.0293344063    0.3150750192    1.1064813540
H       -1.8850146450    0.1020450119   -0.4455018439
H       -0.7950337590    1.4773560385   -0.2164172230
H        5.8118298082   -1.1364376126    1.3370471151
H        4.3269957349   -0.7481826642    2.2359150233
H        5.6945685551    0.3758707752    2.2596049793
H        1.1706238176   -0.1486426776    1.1921501145
26   
torsion grid (-45,)
C        4.1441439707    2.0696422012   -0.8323428547
C        5.1551470844    1.5660244226   -0.0480467359
C        3.4577723535    0.1351269473   -0.1487288982
C        0.2584486329   -0.4066938711   -0.7211998489
C        2.7384887904   -2.2712241257   -0.8671013392
C        2.9957382673   -2.3822272254    0.6105447034
C        2.5564728740   -1.0487263364    0.0107245142
C       -0.9099241559    0.4507654526   -0.2609339839
C        5.4753029212   -0.5031569951    1.3195435225
N        3.0997188608    1.1797146053   -0.8852426939
N        4.7115385440    0.3303445464    0.3991984091
N        1.1896418580   -0.6643074360    0.2768473267
O        0.3424248789   -0.8384757543   -1.8626067053
H        4.1110897923    3.0163266848   -1.3563873569
H        6.1212973571    1.9565254860    0.2396114852
H        3.5948019929   -2.2510749261   -1.5332976715
H        1.8408616143   -2.7037040806   -1.2880123511
H        2.2475094306   -2.8811732186    1.2180369941
H        4.0145042897   -2.5208118125    0.9459109660
H       -1.1757528785    0.2790897296    0.7871507918
H       -1.7734900986    0.2487955451   -0.8954994140
H       -0.6313836360    1.5040331526   -0.3773833214
H        5.8917343703   -1.3816584280    0.8175401597
H        4.8541003940   -0.8254986280    2.1569093900
H        6.3018228577    0.0895679044    1.7143847781
H        1.0737721913   -0.1088581377    1.1166133247
26   
torsion grid (-30,)
C        3.9684544326    2.1924060156   -0.5071644560
C        5.0996921820    1.5928229337   -0.0097830653
C        3.3771946763    0.1904490854    0.0690053963
C        0.3210146607   -0.4138825594   -0.8054866868
C        2.8307564297   -2.2863571242   -0.6144344322
C        2.9185445940   -2.3104288594    0.8892971662
C        2.5132892133   -1.0284553184    0.1635739324
C       -0.8948922809    0.4402909725   -0.4912049864
C        5.6511852252   -0.6547069424    0.9376886530
N        2.9122399709    1.3138120151   -0.4652132989
N        4.7229071552    0.3082623780    0.3576618517
N        1.1192277268   -0.6847093271    0.3006484734
O        0.5549394313   -0.8404569386   -1.9282380116
H        3.8567427654    3.1968540045   -0.8946785978
H        6.1130359741    1.9435570725    0.1274277636
H        3.7544219717   -2.2729101834   -1.1849163507
H        2.0000132184   -2.7737804319   -1.1077857621
H        2.1126002306   -2.7975146316    1.4282148531
H        3.8867310628   -2.3889819881    1.3641213169
H       -1.3111767112    0.2301746584    0.4993331256
H       -1.6577023633    0.2754293194   -1.2527926685
H       -0.5899828884    1.4922178285   -0.5203620968
H        5.6811146620   -1.5787166341    0.3554586593
H        5.3893050877   -0.8850363385    1.9736489499
H        6.6500944259   -0.2166719584    0.9260058140
H        0.9270638071   -0.0997131548    1.1061358508
26   
torsion grid (-15,)
C        3.8692821348    2.2840866919   -0.2308005879
C        5.0439351432    1.6309208611    0.0475761404
C        3.3276506891    0.2231278263    0.1560957860
C        0.3646317478   -0.3827252657   -0.8721510928
C        2.8174524197   -2.2963204406   -0.4369305758
C        2.8563878704   -2.2251307150    1.0681029701
C        2.4657263086   -0.9962596136    0.2500466203
C       -0.8833161986    0.4545383436   -0.6577197272
C        5.6751527073   -0.7044718849    0.6769408267
N        2.8137726806    1.4027447894   -0.1699795830
N        4.6995531168    0.3071824776    0.2889918844
N        1.0657512813   -0.6614948865    0.2965640651
O        0.7060872463   -0.7917023522   -1.9740338029
H        3.7236575057    3.3275689049   -0.4784191211
H        6.0715733169    1.9631405535    0.0972299016
H        3.7501538908   -2.3225262000   -0.9906067439
H        1.9983625883   -2.8164980000   -0.9166722622
H        2.0441851417   -2.6938212405    1.6140612028
H        3.8106886531   -2.2396269367    1.5794871226
H       -1.3831573185    0.2262150358    0.2890278528
H       -1.5730191175    0.2930806296   -1.4867849788
H       -0.5876939461    1.5093681756   -0.6448375685
H        5.5021591169   -1.6436595994    0.1508580692
H        5.6560500949   -0.8852229641    1.7561292594
H        6.6694397259   -0.3468329082    0.4044437451
H        0.8220635186   -0.0607243567    1.0765642916
26   
torsion grid (0,)
C        4.0761574434    2.2315443365    0.0216024023
C        5.2824609574    1.5794235933    0.0649211480
C        3.6103105160    0.1319577232    0.2737836268
C        0.7375783999   -0.5878762126   -0.8439847322
C        3.1853828942   -2.4551944720   -0.1317391406
C        3.1694794559   -2.2323335757    1.3590264417
C        2.7785330638   -1.1039560916    0.4057436400
C       -0.5599688432    0.1917648355   -0.7358054349
C        6.0042990661   -0.8089303625    0.1538359522
N        3.0454846852    1.3260892006    0.1460057120
N        4.9862321561    0.2322044744    0.2334222201
N        1.3691332696   -0.8117039638    0.3742120239
O        1.1785627512   -0.9980021272   -1.9103564593
H        3.8893682998    3.2918372580   -0.0889101936
H        6.3042248290    1.9262210367   -0.0036218043
H        4.1342680496   -2.5308316922   -0.6486480896
H        2.3887123152   -3.0393473453   -0.5753328135
H        2.3563886078   -2.6700363656    1.9288249969
H        4.1058503617   -2.1469836799    1.8999550620
H       -1.1103796144   -0.0390454041    0.1816011381
H       -1.1836464913   -0.0221738493   -1.6044060571
H       -0.3175021541    1.2601812352   -0.7305444186
H        6.0970449182   -1.1929489449   -0.8670238955
H        5.7808915517   -1.6347995758    0.8274844372
H        6.9629441328   -0.3816724373    0.4541093487
H        1.0745221448   -0.1807277410    1.1120373685
26   
torsion grid (15,)
C        4.1159276835    2.2573665619    0.2948754452
C        5.3058599305    1.5945732152    0.1252800352
C        3.6354402810    0.1467643974    0.3321100494
C        0.8373561645   -0.5976358943   -0.8866926693
C        3.2133523152   -2.4674378834    0.0237381880
C        3.1751242492   -2.1581845029    1.4986221821
C        2.8030418224   -1.0866366146    0.4773038825
C       -0.4850965084    0.1470042717   -0.8652067531
C        5.9839508216   -0.8077294176   -0.0815585436
N        3.0862114080    1.3518758871    0.4249521723
N        4.9984718943    0.2400436345    0.1552768316
N        1.3952845974   -0.8024723492    0.3685913686
O        1.3592879912   -0.9947001405   -1.9217453386
H        3.9414063177    3.3248874118    0.3304373527
H        6.3205358730    1.9386164047   -0.0188167414
H        4.1666210139   -2.5955572436   -0.4709754253
H        2.4136286378   -3.0664988996   -0.3940657705
H        2.3621774476   -2.5669128435    2.0901729443
H        4.1111323333   -2.0300266393    2.0339920547
H       -1.0896856360   -0.1035700293    0.0118547833
H       -1.0414629578   -0.0800341569   -1.7751960819
H       -0.2760239599    1.2223301510   -0.8404874109
H        5.8836601579   -1.2241606315   -1.0879529154
H        5.8939234439   -1.6095368435    0.6532187489
H        6.9797954001   -0.3727808007    0.0164277545
H        1.0577038081   -0.1627728675    1.0804814199
26   
torsion grid (30,)
C        4.1162693422    2.2112533349    0.5707952428
C        5.2441458347    1.5549586434    0.1412783495
C        3.5790046685    0.1194532716    0.4372853646
C        0.8806294327   -0.6111180916   -0.9624036868
C        3.1346901025   -2.5151673886    0.2252685556
C        2.9952952041   -2.1078341883    1.6692779369
C        2.7238793209   -1.1007774976    0.5548618379
C       -0.4548675524    0.1030428132   -1.0664766408
C        5.7825699930   -0.8175606437   -0.4716452871
N        3.0884888377    1.3135102294    0.7501856944
N        4.8968477861    0.2134154236    0.0550515650
N        1.3289545673   -0.8052556211    0.3346019411
O        1.5065456614   -0.9930991280   -1.9457458842
H        3.9861019670    3.2696131069    0.7562889764
H        6.2353569508    1.8984535310   -0.1194213296
H        4.1201608983   -2.7117483637   -0.1718407651
H        2.3510664139   -3.1218458254   -0.2124762964
H        2.1375651956   -2.4632375165    2.2316254641
H        3.9000846185   -1.9565785644    2.2506101854
H       -1.1141468350   -0.1174054115   -0.2216540012
H       -0.9422055893   -0.1803383826   -2.0001686822
H       -0.2714198744    1.1831959996   -1.0849393993
H        5.3548064495   -1.2716351661   -1.3682262964
H        5.9812614439   -1.5919739184    0.2743009121
H        6.7321061351   -0.3514088638   -0.7378797914
H        0.9362343026   -0.1680608094    1.0201772347
26   
torsion grid (45,)
C        4.2711414497    2.1407711144    0.8893612360
C        5.2518155649    1.5348518302    0.1370892922
C        3.6836607182    0.0721952178    0.6910873364
C        1.1747142211   -0.5650724217   -0.9969892569
C        3.2680720651   -2.5485461152    0.4996124201
C        2.9039215398   -2.0970686326    1.8892021208
C        2.8018323747   -1.1299169267    0.7142371342
C       -0.1667203501    0.0899995875   -1.2681989916
C        5.4782357104   -0.7355409723   -0.9253337117
N        3.2912303693    1.2299032967    1.2103817813
N        4.8629795639    0.2128023764   -0.0020152980
N        1.4393124916   -0.8351344807    0.3314128281
O        1.9703803325   -0.8401471187   -1.8928690424
H        4.2159803158    3.1727925529    1.2113936690
H        6.1626416888    1.9068174485   -0.3107739008
H        4.3125686562   -2.7320094446    0.2828811245
H        2.5758215349   -3.1891669156   -0.0347565568
H        1.9710621265   -2.4456703173    2.3212953800
H        3.7072458088   -1.9205131934    2.5969343875
H       -0.9194879235   -0.1647771446   -0.5166015169
H       -0.5171716274   -0.2074471660   -2.2575688146
H       -0.0317300365    1.1773213187   -1.2659936633
H        4.7028306258   -1.2115312068   -1.5277545050
H        6.0610375118   -1.4945940743   -0.3943822079
H        6.1490409151   -0.1865002322   -1.5878882434
H        0.9207485847   -0.2893810649    1.0115604721
26   
torsion grid (60,)
C        4.5365198517    2.0095164813    1.1391719174
C        5.3396740898    1.4365048467    0.1764565948
C        3.7763114067    0.0130335072    0.8315160041
C        1.2556589653   -0.6571911742   -0.9514220907
C        3.2939771873   -2.5727744969    0.6940719571
C        2.8681111062   -2.0777927349    2.0517059659
C        2.8378666971   -1.1425980727    0.8533180484
C       -0.0860342633   -0.0368710092   -1.2970884243
C        5.2892178219   -0.7573591054   -1.0673628555
N        3.5595591508    1.1235953374    1.5280663285
N        4.8383113259    0.1650380759   -0.0288837544
N        1.5046048315   -0.8235634417    0.3913160816
O        2.0581787989   -0.9992998616   -1.8197226577
H        4.6089385376    3.0013261117    1.5670479598
H        6.1970301498    1.8033160650   -0.3704741016
H        4.3491050580   -2.7561595812    0.5278204119
H        2.6267254558   -3.2280746668    0.1457892540
H        1.9086380959   -2.4065630007    2.4389943587
H        3.6314489947   -1.8896964404    2.7990188854
H       -0.7814684113   -0.0101183791   -0.4537210244
H       -0.5336315756   -0.5982764209   -2.1199227499
H        0.0834233971    0.9866755976   -1.6462555035
H        4.4221605934   -1.2334458163   -1.5265695788
H        5.9676455017   -1.5136884667   -0.6594613668
H        5.8217836478   -0.1867352901   -1.8302779944
H        0.9463586519   -0.2760350768    1.0366909279
26   
torsion grid (75,)
C        4.6365813952    2.0277051148    1.2972724424
C        5.3032039732    1.5201315055    0.2021431279
C        3.7074100538    0.1320788279    0.8519113893
C        1.1779925168   -0.7027239135   -1.0216098466
C        3.2102403017   -2.4357727235    0.7844717364
C        2.7237310807   -1.8896803172    2.1026451862
C        2.7428016750   -1.0012695189    0.8736748770
C       -0.1729225348   -0.1385747475   -1.4269215991
C        5.0729593069   -0.5782855289   -1.1802069136
N        3.6438734653    1.1608082686    1.6903525666
N        4.6973541366    0.3127350417   -0.0855929914
N        1.4376095536   -0.6999035639    0.3254910891
O        1.9701926221   -1.1431130364   -1.8554370437
H        4.8169802786    2.9599482521    1.8172579205
H        6.1313920864    1.8929520780   -0.3844684965
H        4.2740759134   -2.6094726185    0.6639644503
H        2.5711930036   -3.1174819608    0.2350063707
H        1.7493251572   -2.2110845525    2.4575625660
H        3.4495467568   -1.6647185295    2.8762954457
H       -0.8449445770    0.0375306078   -0.5825158413
H       -0.6460773022   -0.8298010756   -2.1278990254
H       -0.0117091295    0.8073849488   -1.9530565955
H        4.1882811018   -1.1029279305   -1.5403568424
H        5.8343840694   -1.2953102578   -0.8546478074
H        5.4809627744    0.0212586752   -1.9966461188
H        0.8365705574   -0.1390040302    0.9178805383
26   
torsion grid (90,)
C        4.8026197666    1.9295118173    1.5124337404
C        5.3325903448    1.5452843709    0.2992827889
C        3.7022497397    0.1758595821    0.9030173917
C        1.1609815827   -0.8247610424   -1.0817476885
C        3.1661422771   -2.3728957871    0.8391130189
C        2.6145427725   -1.7996980574    2.1197407859
C        2.7069702424   -0.9315318387    0.8812312087
C       -0.1930198901   -0.3099090956   -1.5421271309
C        4.9011046732   -0.3692705035   -1.2815334261
N        3.7921617407    1.0710480463    1.8803569282
N        4.6225071839    0.4263294450   -0.0888759637
N        1.4449455238   -0.6229197920    0.2426070435
O        1.9250151472   -1.3994635964   -1.8591125988
H        5.0913627655    2.7676570382    2.1338282768
H        6.1304174791    1.9493158302   -0.3086498582
H        4.2352752633   -2.5465885415    0.7727251057
H        2.5544661982   -3.0607988475    0.2672089249
H        1.6188874677   -2.1087982962    2.4227635272
H        3.2960248706   -1.5624760659    2.9288308058
H       -0.7916250775    0.1372594468   -0.7437708796
H       -0.7496976487   -1.1401162527   -1.9843948681
H       -0.0337269081    0.4339336184   -2.3277288193
H        4.0288704942   -0.9704169147   -1.5358967675
H        5.7667372488   -1.0191802382   -1.1129485958
H        5.1187529362    0.3002243663   -2.1173790506
H        0.8205306516   -0.0285673260    0.7741033829
26   
torsion grid (105,)
C        5.0828253359    1.6872661772    1.7129764109
C        5.4553736429    1.4399257178    0.4095651646
C        3.7973715729    0.1012847137    1.0115022878
C        1.2326625367   -1.0095846444   -1.0591168334
C        3.1330357119   -2.4124776087    1.0055078953
C        2.5253516340   -1.7568315641    2.2184346221
C        2.7425857177   -0.9486579159    0.9543536680
C       -0.0841484648   -0.4731256625   -1.5984170676
C        4.6977228195   -0.1879304363   -1.3570567847
N        4.0533867838    0.8497567677    2.0783970648
N        4.6334846156    0.4223578721   -0.0333808245
N        1.5524808421   -0.5988383030    0.2080508722
O        1.9344942566   -1.7690916400   -1.7287016574
H        5.4966669911    2.4127689301    2.4016914892
H        6.2126018320    1.8756442427   -0.2278758283
H        4.1967236830   -2.6281526695    1.0171318868
H        2.5325300099   -3.0992680322    0.4213882553
H        1.4961628602   -2.0038773606    2.4600174068
H        3.1594493811   -1.5103840837    3.0621654389
H       -0.5982033192    0.2107661397   -0.9172716236
H       -0.7417809776   -1.3192631590   -1.8155861778
H        0.1100393445    0.0413782174   -2.5431569495
H        3.9986780835   -1.0209802592   -1.4171265439
H        5.7126295193   -0.5483736383   -1.5493756605
H        4.4279730310    0.5434072808   -2.1252904869
H        0.9444370938    0.0794209249    0.6501852920
26   
torsion grid (120,)
C        5.3120229903    1.5675567685    1.8205725591
C        5.5466754368    1.4621754112    0.4671725976
C        3.8760811300    0.1395040974    1.0723119128
C        1.3598534031   -1.0736698132   -1.0765866070
C        3.1316109597   -2.3446718639    1.1521620645
C        2.4601915018   -1.6088212204    2.2812885080
C        2.7876085245   -0.8741073176    0.9950235438
C        0.0724700996   -0.5577804485   -1.7014966433
C        4.5113904623    0.1031942549   -1.3902784094
N        4.2734496100    0.7415053091    2.1873741189
N        4.6327432821    0.5396070904   -0.0046619160
N        1.6692135905   -0.5298155318    0.1436407100
O        2.0490540885   -1.9222902735   -1.6428154522
H        5.8295430431    2.1844407557    2.5440437220
H        6.2612047290    1.9398963142   -0.1889916783
H        4.1865098539   -2.5800409748    1.2500949125
H        2.5561303922   -3.0478544661    0.5626437684
H        1.4090248446   -1.8144585804    2.4588728693
H        3.0414223108   -1.3308198044    3.1526666616
H       -0.3979077290    0.2569646463   -1.1437120945
H       -0.6349720240   -1.3885278344   -1.7771782625
H        0.2891209104   -0.2192217345   -2.7176842816
H        4.0772825414   -0.8955122080   -1.4329213959
H        5.5030346514    0.0846743880   -1.8480883935
H        3.8695578594    0.7842848057   -1.9592036829
H        1.0471933350    0.1810746628    0.5082664639
26   
torsion grid (135,)
C        5.5064298562    1.3811718158    1.7987502762
C        5.5957559889    1.4230802283    0.4256460023
C        3.9021857531    0.1403785925    1.0550391559
C        1.4183049786   -1.1457358336   -1.1050146529
C        3.0681585971   -2.3001458235    1.2633503475
C        2.3745826230   -1.4761743745    2.3139560058
C        2.7743574701   -0.8319856405    0.9983222323
C        0.1421075556   -0.6800669321   -1.7895726525
C        4.3183161627    0.3256160758   -1.4516227629
N        4.4540902782    0.5800449458    2.1802140774
N        4.5751176640    0.6175180123   -0.0461818209
N        1.7013713435   -0.5174735864    0.0814199930
O        2.1267575548   -2.0213893406   -1.6001763169
H        6.1340616380    1.8789104423    2.5267641950
H        6.2694777232    1.9357919972   -0.2468581173
H        4.1117916832   -2.5520979972    1.4199012836
H        2.4980442517   -3.0242236603    0.6940438436
H        1.3108172656   -1.6390216567    2.4587555735
H        2.9322458153   -1.1601081360    3.1876946769
H       -0.3421148450    0.1692164342   -1.2990984897
H       -0.5613018263   -1.5171482229   -1.8209823723
H        0.3775195807   -0.4122814243   -2.8225442942
H        4.0323223547   -0.7192235898   -1.5760237414
H        5.2299923208    0.5162565552   -2.0209075356
H        3.5168011932    0.9594595586   -1.8447121536
H        1.0545861589    0.1963484802    0.3934413380
26   
torsion grid (150,)
C        5.6941565993    1.1076165580    1.7737982368
C        5.6481203564    1.3316523745    0.4176509320
C        3.9308394345    0.0836991553    1.0555739373
C        1.4908462804   -1.2197474865   -1.1144991084
C        2.9736814588   -2.2871505609    1.3954015799
C        2.2839571084   -1.3696979289    2.3662347124
C        2.7503621723   -0.8276895486    1.0246570885
C        0.2239634465   -0.8203407328   -1.8554141610
C        4.1472369472    0.5616532219   -1.4482101469
N        4.6274736461    0.3289145142    2.1596548203
N        4.5233297509    0.6658658309   -0.0418781678
N        1.7152764011   -0.5434748249    0.0588334381
O        2.2493862352   -2.0799617772   -1.5572769004
H        6.4258189583    1.4628415840    2.4880251726
H        6.2859406007    1.8912802404   -0.2521800373
H        4.0009859467   -2.5660130261    1.6029823915
H        2.3912594770   -3.0228366127    0.8535184342
H        1.2101452743   -1.4778501370    2.4885152082
H        2.8340964908   -1.0231731856    3.2332933739
H       -0.3112496442    0.0190368652   -1.4022235493
H       -0.4441339331   -1.6855573225   -1.8935626124
H        0.4865993892   -0.5651385208   -2.8850995442
H        3.9643145607   -0.4791053234   -1.7184175997
H        4.9704950219    0.9456471371   -2.0527624596
H        3.2509522539    1.1512356825   -1.6613695736
H        1.0273809617    0.1458399398    0.3356148038
26   
torsion grid (165,)
C        5.8559736453    0.8838094329    1.6550333149
C        5.6804037961    1.2842217502    0.3524116803
C        3.9640383866    0.0498685769    1.0201694558
C        1.5969947765   -1.2778204056   -1.1216383478
C        2.8605903118   -2.2029586164    1.5755633793
C        2.2004438970   -1.1586588391    2.4303954224
C        2.7231412603   -0.7800627567    1.0514682261
C        0.3596528237   -0.9649312535   -1.9484844586
C        3.9597037168    0.8510314760   -1.4201437048
N        4.7883953162    0.1162531879    2.0593541651
N        4.4683993292    0.7444871831   -0.0555312304
N        1.7192630666   -0.5583358400    0.0416264489
O        2.4269846890   -2.1053364130   -1.4889976550
H        6.6806913041    1.1053022985    2.3201491142
H        6.2792508295    1.8900064172   -0.3129404409
H        3.8673593723   -2.5075997607    1.8375748797
H        2.2486296792   -2.9570146021    1.0939883476
H        1.1202752131   -1.1982977272    2.5414075548
H        2.7569920997   -0.7586302662    3.2702293778
H       -0.2650982336   -0.1697472218   -1.5315573307
H       -0.2391135627   -1.8757755029   -2.0368474018
H        0.6739323027   -0.6824085230   -2.9566345368
H        3.8450682558   -0.1385786697   -1.8651833218
H        4.6815382784    1.4207615921   -2.0073202841
H        3.0017871600    1.3757250657   -1.4441703182
H        0.9883740963    0.1054976398    0.2635640082
26   
torsion grid (180,)
C        6.0118275952    0.6119946681    1.4885910750
C        5.7270243281    1.2043892651    0.2826793558
C        4.0201852114   -0.0403238000    0.9557997331
C        1.7423173339   -1.3318732417   -1.1602400687
C        2.7515157578   -2.1240888547    1.7313841324
C        2.1433302913   -0.9535110668    2.4512159931
C        2.7176453210   -0.7644714476    1.0517487691
C        0.5514287861   -1.0911329249   -2.0748100146
C        3.8043383147    1.1353927827   -1.3213257045
N        4.9482765773   -0.1591120201    1.8972505494
N        4.4460804963    0.7873070467   -0.0575006392
N        1.7473048197   -0.5987845666    0.0014340519
O        2.6398308158   -2.1156766878   -1.4540235789
H        6.9138607709    0.6951820829    2.0810088718
H        6.2929271181    1.8640900573   -0.3597189470
H        3.7300213033   -2.4607552387    2.0526315631
H        2.0956916585   -2.8808517292    1.3154352416
H        1.0612217495   -0.9129285501    2.5473450105
H        2.7123971859   -0.5030306696    3.2568993304
H       -0.1434512977   -0.3299825948   -1.7081891743
H        0.0110934090   -2.0338801687   -2.1977619380
H        0.9189413157   -0.7950851130   -3.0608768491
H        3.6860529364    0.2513701830   -1.9509697417
H        4.4436184555    1.8521103493   -1.8393101426
H        2.8308784058    1.6001405374   -1.1544903689
H        0.9772723370    0.0343438878    0.1720042096
