
  -OEChem-05262117483D

 28 29  0     1  0  0  0  0  0999 V2000
    4.1439    0.8619    3.9447 C   0  0  0  0  0  0  0  0  0  0  0  0
    4.2211   -0.1908    3.0313 C   0  0  0  0  0  0  0  0  0  0  0  0
    2.8943    1.2459    4.4478 C   0  0  0  0  0  0  0  0  0  0  0  0
    3.0591   -0.8581    2.6223 C   0  0  0  0  0  0  0  0  0  0  0  0
    1.7392    0.5803    4.0371 C   0  0  0  0  0  0  0  0  0  0  0  0
    1.8056   -0.4822    3.1197 C   0  0  0  0  0  0  0  0  0  0  0  0
   -1.7948   -0.4584    2.1898 C   0  0  0  0  0  0  0  0  0  0  0  0
   -3.9549   -0.4233    1.7566 C   0  0  0  0  0  0  0  0  0  0  0  0
   -3.6641   -1.5653    2.7634 C   0  0  0  0  0  0  0  0  0  0  0  0
    0.6756   -2.2952    1.6739 C   0  0  0  0  0  0  0  0  0  0  0  0
    0.5133   -1.1897    2.7239 C   0  0  2  0  0  0  0  0  0  0  0  0
   -2.6296    0.0898    1.3841 N   0  0  0  0  0  0  0  0  0  0  0  0
   -0.4605   -0.1664    2.3009 N   0  0  0  0  0  0  0  0  0  0  0  0
   -2.2581   -1.3901    3.0888 O   0  0  0  0  0  0  0  0  0  0  0  0
    5.0454    1.3799    4.2618 H   0  0  0  0  0  0  0  0  0  0  0  0
    5.1852   -0.4964    2.6324 H   0  0  0  0  0  0  0  0  0  0  0  0
    2.8223    2.0649    5.1592 H   0  0  0  0  0  0  0  0  0  0  0  0
    3.1455   -1.6732    1.9111 H   0  0  0  0  0  0  0  0  0  0  0  0
    0.7686    0.8863    4.4183 H   0  0  0  0  0  0  0  0  0  0  0  0
   -4.4926   -0.7828    0.8732 H   0  0  0  0  0  0  0  0  0  0  0  0
   -4.5577    0.3754    2.2074 H   0  0  0  0  0  0  0  0  0  0  0  0
   -4.2324   -1.5034    3.6936 H   0  0  0  0  0  0  0  0  0  0  0  0
   -3.7852   -2.5624    2.3281 H   0  0  0  0  0  0  0  0  0  0  0  0
    1.0877   -1.9019    0.7384 H   0  0  0  0  0  0  0  0  0  0  0  0
    1.3312   -3.0943    2.0344 H   0  0  0  0  0  0  0  0  0  0  0  0
   -0.3008   -2.7365    1.4567 H   0  0  0  0  0  0  0  0  0  0  0  0
    0.0940   -1.6432    3.6266 H   0  0  0  0  0  0  0  0  0  0  0  0
   -0.1471    0.4421    1.5519 H   0  0  0  0  0  0  0  0  0  0  0  0
  1  2  1  0  0  0  0
  1  3  2  0  0  0  0
  1 15  1  0  0  0  0
  2  4  2  0  0  0  0
  2 16  1  0  0  0  0
  3  5  1  0  0  0  0
  3 17  1  0  0  0  0
  4  6  1  0  0  0  0
  4 18  1  0  0  0  0
  5  6  2  0  0  0  0
  5 19  1  0  0  0  0
  6 11  1  0  0  0  0
  7 12  2  0  0  0  0
  7 13  1  0  0  0  0
  7 14  1  0  0  0  0
  8  9  1  0  0  0  0
  8 12  1  0  0  0  0
  8 20  1  0  0  0  0
  8 21  1  0  0  0  0
  9 14  1  0  0  0  0
  9 22  1  0  0  0  0
  9 23  1  0  0  0  0
 10 11  1  0  0  0  0
 10 24  1  0  0  0  0
 10 25  1  0  0  0  0
 10 26  1  0  0  0  0
 11 13  1  0  0  0  0
 11 27  1  0  0  0  0
 13 28  1  0  0  0  0
M  END
$$$$
