36
1 1 C10F3H19NO2S
C                    -0.727766892500     0.022325298588     0.441506935190
C                    -0.883732672953    -0.694436464798     1.789527706921
C                     0.790851060303     0.105428372565     0.223013982991
C                     0.195067737612    -1.775371978406     1.755489859249
C                     0.594282263906    -2.397503605927     3.086619188580
C                     2.202760476199    -4.933007415422     6.953733989795
C                     2.817222209229    -4.292646791891     8.204712085591
C                     1.679261527504    -3.471671710318     2.969615630752
C                     2.277833153710    -3.961304518763     5.771841074250
C                     2.750456529113    -5.210046735008     9.411539365627
N                     1.371993150262    -1.032996995545     1.083837272718
O                     2.443252880828    -5.844437070120     3.877182947992
O                     0.125532545063    -4.956577624565     4.529933721441
F                     3.301319379542    -4.619872918297    10.496192714272
F                     1.470909309319    -5.528846195884     9.726045156701
F                     3.414525418828    -6.370707393953     9.195421757632
S                     1.563545288492    -4.748336152587     4.295255249241
H                    -1.195136469552    -0.559577594739    -0.357138714922
H                    -1.176748349955     1.016789234225     0.435969794195
H                    -0.710846747528    -0.010109142136     2.628162336908
H                    -1.871888117726    -1.139264225115     1.920214464475
H                     1.105788077885    -0.047721190275    -0.808577660760
H                     1.222921220629     1.035726877897     0.591632028016
H                    -0.085788288481    -2.555914825398     1.042061563034
H                    -0.310717813597    -2.864085116402     3.491416433903
H                     0.885339598930    -1.611166003890     3.794181830588
H                     2.739520076617    -5.851736593482     6.704396816724
H                     1.159136242279    -5.196553668654     7.142803112133
H                     3.871847005463    -4.047869126087     8.047731681921
H                     2.294738333551    -3.370793737879     8.477424455419
H                     1.550775162877    -4.088158694492     2.073113795287
H                     2.704586453638    -3.089315171840     2.979276168199
H                     1.699857406174    -3.050897880032     5.960154859621
H                     3.311154127418    -3.704963547722     5.519470853203
H                     1.950139075898    -1.673049320432     0.531184877257
H                     1.984768871781    -0.645478571507     1.807817658854
