
  -OEChem-05262117483D

 36 36  0     1  0  0  0  0  0999 V2000
   -1.0127   -0.3603    2.1763 C   0  0  0  0  0  0  0  0  0  0  0  0
   -0.4444   -0.6105    0.7574 C   0  0  0  0  0  0  0  0  0  0  0  0
    0.1407   -0.6876    3.1524 C   0  0  0  0  0  0  0  0  0  0  0  0
    0.7090   -1.6041    0.9653 C   0  0  2  0  0  0  0  0  0  0  0  0
    0.2014   -3.0512    1.0791 C   0  0  0  0  0  0  0  0  0  0  0  0
    1.6307   -7.0403    3.2266 C   0  0  0  0  0  0  0  0  0  0  0  0
    2.3870   -8.3310    3.5710 C   0  0  0  0  0  0  0  0  0  0  0  0
    1.2240   -4.1770    1.3007 C   0  0  0  0  0  0  0  0  0  0  0  0
    2.5722   -5.8388    3.2973 C   0  0  0  0  0  0  0  0  0  0  0  0
    1.4936   -9.5521    3.4508 C   0  0  0  0  0  0  0  0  0  0  0  0
    1.3093   -1.0649    2.2570 N   0  3  0  0  0  0  0  0  0  0  0  0
    0.4768   -4.2204    3.8620 O   0  0  0  0  0  0  0  0  0  0  0  0
    2.7094   -3.1724    3.2574 O   0  0  0  0  0  0  0  0  0  0  0  0
    2.1670  -10.6791    3.7542 F   0  0  0  0  0  0  0  0  0  0  0  0
    0.4245   -9.4716    4.2792 F   0  0  0  0  0  0  0  0  0  0  0  0
    1.0118   -9.6878    2.1873 F   0  0  0  0  0  0  0  0  0  0  0  0
    1.7094   -4.2658    3.0590 S   0  0  0  0  0  0  0  0  0  0  0  0
   -1.3522    0.6702    2.2891 H   0  0  0  0  0  0  0  0  0  0  0  0
   -1.8672   -1.0076    2.3808 H   0  0  0  0  0  0  0  0  0  0  0  0
   -1.1939   -0.9997    0.0665 H   0  0  0  0  0  0  0  0  0  0  0  0
   -0.0562    0.3174    0.3256 H   0  0  0  0  0  0  0  0  0  0  0  0
    0.4490    0.1458    3.7833 H   0  0  0  0  0  0  0  0  0  0  0  0
   -0.0641   -1.5509    3.7859 H   0  0  0  0  0  0  0  0  0  0  0  0
    1.4826   -1.5348    0.1964 H   0  0  0  0  0  0  0  0  0  0  0  0
   -0.2816   -3.2567    0.1190 H   0  0  0  0  0  0  0  0  0  0  0  0
   -0.5856   -3.1323    1.8342 H   0  0  0  0  0  0  0  0  0  0  0  0
    1.2059   -7.1340    2.2227 H   0  0  0  0  0  0  0  0  0  0  0  0
    0.8026   -6.8967    3.9246 H   0  0  0  0  0  0  0  0  0  0  0  0
    3.2381   -8.4880    2.9021 H   0  0  0  0  0  0  0  0  0  0  0  0
    2.7657   -8.3041    4.5966 H   0  0  0  0  0  0  0  0  0  0  0  0
    0.7619   -5.1356    1.0528 H   0  0  0  0  0  0  0  0  0  0  0  0
    2.1414   -4.0563    0.7187 H   0  0  0  0  0  0  0  0  0  0  0  0
    3.0255   -5.7187    4.2871 H   0  0  0  0  0  0  0  0  0  0  0  0
    3.3740   -5.8624    2.5529 H   0  0  0  0  0  0  0  0  0  0  0  0
    1.8532   -0.2273    2.0305 H   0  0  0  0  0  0  0  0  0  0  0  0
    1.9633   -1.7443    2.7212 H   0  0  0  0  0  0  0  0  0  0  0  0
  1  2  1  0  0  0  0
  1  3  1  0  0  0  0
  1 18  1  0  0  0  0
  1 19  1  0  0  0  0
  2  4  1  0  0  0  0
  2 20  1  0  0  0  0
  2 21  1  0  0  0  0
  3 11  1  0  0  0  0
  3 22  1  0  0  0  0
  3 23  1  0  0  0  0
  4  5  1  0  0  0  0
  4 11  1  0  0  0  0
  4 24  1  0  0  0  0
  5  8  1  0  0  0  0
  5 25  1  0  0  0  0
  5 26  1  0  0  0  0
  6  7  1  0  0  0  0
  6  9  1  0  0  0  0
  6 27  1  0  0  0  0
  6 28  1  0  0  0  0
  7 10  1  0  0  0  0
  7 29  1  0  0  0  0
  7 30  1  0  0  0  0
  8 17  1  0  0  0  0
  8 31  1  0  0  0  0
  8 32  1  0  0  0  0
  9 17  1  0  0  0  0
  9 33  1  0  0  0  0
  9 34  1  0  0  0  0
 10 14  1  0  0  0  0
 10 15  1  0  0  0  0
 10 16  1  0  0  0  0
 11 35  1  0  0  0  0
 11 36  1  0  0  0  0
 12 17  2  0  0  0  0
 13 17  2  0  0  0  0
M  CHG  1  11   1
M  END
$$$$
