
  -OEChem-05262117483D

 28 29  0     1  0  0  0  0  0999 V2000
    4.3357    0.8740    4.2926 C   0  0  0  0  0  0  0  0  0  0  0  0
    4.2227    0.1787    3.0826 C   0  0  0  0  0  0  0  0  0  0  0  0
    3.2104    1.0249    5.1074 C   0  0  0  0  0  0  0  0  0  0  0  0
    2.9975   -0.3635    2.6871 C   0  0  0  0  0  0  0  0  0  0  0  0
    1.9834    0.4839    4.7079 C   0  0  0  0  0  0  0  0  0  0  0  0
    1.8597   -0.2125    3.4978 C   0  0  0  0  0  0  0  0  0  0  0  0
    0.2532    0.1083    0.7467 C   0  0  0  0  0  0  0  0  0  0  0  0
    1.0546   -0.2061   -1.2856 C   0  0  0  0  0  0  0  0  0  0  0  0
    0.2485    1.1178   -1.2667 C   0  0  0  0  0  0  0  0  0  0  0  0
    0.5300   -2.2583    2.7225 C   0  0  0  0  0  0  0  0  0  0  0  0
    0.5011   -0.7709    3.0901 C   0  0  2  0  0  0  0  0  0  0  0  0
    1.0555   -0.6648    0.1094 N   0  0  0  0  0  0  0  0  0  0  0  0
   -0.1638    0.0410    2.0477 N   0  0  0  0  0  0  0  0  0  0  0  0
   -0.3389    1.1465    0.0602 O   0  0  0  0  0  0  0  0  0  0  0  0
    5.2923    1.2908    4.5977 H   0  0  0  0  0  0  0  0  0  0  0  0
    5.0949    0.0566    2.4448 H   0  0  0  0  0  0  0  0  0  0  0  0
    3.2865    1.5585    6.0516 H   0  0  0  0  0  0  0  0  0  0  0  0
    2.9124   -0.8882    1.7415 H   0  0  0  0  0  0  0  0  0  0  0  0
    1.1119    0.6017    5.3501 H   0  0  0  0  0  0  0  0  0  0  0  0
    0.5880   -0.9615   -1.9305 H   0  0  0  0  0  0  0  0  0  0  0  0
    2.0790   -0.0563   -1.6424 H   0  0  0  0  0  0  0  0  0  0  0  0
    0.8794    2.0056   -1.3745 H   0  0  0  0  0  0  0  0  0  0  0  0
   -0.5640    1.1585   -1.9953 H   0  0  0  0  0  0  0  0  0  0  0  0
    1.1546   -2.4450    1.8494 H   0  0  0  0  0  0  0  0  0  0  0  0
    0.9210   -2.8291    3.5701 H   0  0  0  0  0  0  0  0  0  0  0  0
   -0.4835   -2.6057    2.4993 H   0  0  0  0  0  0  0  0  0  0  0  0
   -0.1596   -0.6672    3.9570 H   0  0  0  0  0  0  0  0  0  0  0  0
   -0.5231    0.9296    2.3764 H   0  0  0  0  0  0  0  0  0  0  0  0
  1  2  1  0  0  0  0
  1  3  2  0  0  0  0
  1 15  1  0  0  0  0
  2  4  2  0  0  0  0
  2 16  1  0  0  0  0
  3  5  1  0  0  0  0
  3 17  1  0  0  0  0
  4  6  1  0  0  0  0
  4 18  1  0  0  0  0
  5  6  2  0  0  0  0
  5 19  1  0  0  0  0
  6 11  1  0  0  0  0
  7 12  2  0  0  0  0
  7 13  1  0  0  0  0
  7 14  1  0  0  0  0
  8  9  1  0  0  0  0
  8 12  1  0  0  0  0
  8 20  1  0  0  0  0
  8 21  1  0  0  0  0
  9 14  1  0  0  0  0
  9 22  1  0  0  0  0
  9 23  1  0  0  0  0
 10 11  1  0  0  0  0
 10 24  1  0  0  0  0
 10 25  1  0  0  0  0
 10 26  1  0  0  0  0
 11 13  1  0  0  0  0
 11 27  1  0  0  0  0
 13 28  1  0  0  0  0
M  END
$$$$
