
  -OEChem-05262117483D

 39 40  0     1  0  0  0  0  0999 V2000
    2.3953   -3.2957   -2.1616 C   0  0  0  0  0  0  0  0  0  0  0  0
    2.3792   -2.0798   -1.5275 C   0  0  0  0  0  0  0  0  0  0  0  0
    3.8099   -3.8028   -0.5091 C   0  0  0  0  0  0  0  0  0  0  0  0
    0.4405    1.1017   -0.9206 C   0  0  0  0  0  0  0  0  0  0  0  0
   -0.1003   -1.0849   -0.1570 C   0  0  0  0  0  0  0  0  0  0  0  0
   -0.5079    1.2713    0.2728 C   0  0  1  0  0  0  0  0  0  0  0  0
   -1.2135   -0.1120    0.2793 C   0  0  2  0  0  0  0  0  0  0  0  0
    4.7399   -4.6139    0.3438 C   0  0  0  0  0  0  0  0  0  0  0  0
    0.2508    1.6013    1.5645 C   0  0  0  0  0  0  0  0  0  0  0  0
   -1.8949   -0.5083    1.5864 C   0  0  0  0  0  0  0  0  0  0  0  0
    2.5812   -3.6628   -4.6552 C   0  0  0  0  0  0  0  0  0  0  0  0
    1.6622   -3.6698   -3.4212 C   0  0  0  0  0  0  0  0  0  0  0  0
    1.6525   -0.8130   -1.8730 C   0  0  0  0  0  0  0  0  0  0  0  0
    3.2130   -4.2549   -1.5761 N   0  0  0  0  0  0  0  0  0  0  0  0
    0.9787   -0.2472   -0.7150 N   0  0  1  0  0  0  0  0  0  0  0  0
   -2.1816   -0.1457   -0.7979 O   0  0  0  0  0  0  0  0  0  0  0  0
    3.4150   -2.1366   -0.1188 S   0  0  0  0  0  0  0  0  0  0  0  0
   -0.1202    1.1904   -1.8662 H   0  0  0  0  0  0  0  0  0  0  0  0
    1.2528    1.8373   -0.9298 H   0  0  0  0  0  0  0  0  0  0  0  0
    0.2769   -1.6770    0.6836 H   0  0  0  0  0  0  0  0  0  0  0  0
   -0.5168   -1.7803   -0.8976 H   0  0  0  0  0  0  0  0  0  0  0  0
   -1.2467    2.0588    0.0791 H   0  0  0  0  0  0  0  0  0  0  0  0
    5.7310   -4.1523    0.4057 H   0  0  0  0  0  0  0  0  0  0  0  0
    4.3574   -4.7170    1.3650 H   0  0  0  0  0  0  0  0  0  0  0  0
    4.8408   -5.6082   -0.0957 H   0  0  0  0  0  0  0  0  0  0  0  0
    0.9940    0.8319    1.7938 H   0  0  0  0  0  0  0  0  0  0  0  0
   -0.4256    1.6959    2.4195 H   0  0  0  0  0  0  0  0  0  0  0  0
    0.7813    2.5533    1.4561 H   0  0  0  0  0  0  0  0  0  0  0  0
   -2.6664    0.2209    1.8640 H   0  0  0  0  0  0  0  0  0  0  0  0
   -1.1824   -0.5751    2.4125 H   0  0  0  0  0  0  0  0  0  0  0  0
   -2.3772   -1.4834    1.4672 H   0  0  0  0  0  0  0  0  0  0  0  0
    2.9824   -2.6598   -4.8369 H   0  0  0  0  0  0  0  0  0  0  0  0
    2.0359   -3.9806   -5.5506 H   0  0  0  0  0  0  0  0  0  0  0  0
    3.4258   -4.3423   -4.5071 H   0  0  0  0  0  0  0  0  0  0  0  0
    1.2458   -4.6738   -3.2848 H   0  0  0  0  0  0  0  0  0  0  0  0
    0.8192   -2.9913   -3.5820 H   0  0  0  0  0  0  0  0  0  0  0  0
    2.3658   -0.0647   -2.2415 H   0  0  0  0  0  0  0  0  0  0  0  0
    0.9522   -1.0188   -2.7025 H   0  0  0  0  0  0  0  0  0  0  0  0
   -2.8671    0.5125   -0.5978 H   0  0  0  0  0  0  0  0  0  0  0  0
  1  2  2  0  0  0  0
  1 12  1  0  0  0  0
  1 14  1  0  0  0  0
  2 13  1  0  0  0  0
  2 17  1  0  0  0  0
  3  8  1  0  0  0  0
  3 14  2  0  0  0  0
  3 17  1  0  0  0  0
  4  6  1  0  0  0  0
  4 15  1  0  0  0  0
  4 18  1  0  0  0  0
  4 19  1  0  0  0  0
  5  7  1  0  0  0  0
  5 15  1  0  0  0  0
  5 20  1  0  0  0  0
  5 21  1  0  0  0  0
  6  7  1  0  0  0  0
  6  9  1  0  0  0  0
  6 22  1  0  0  0  0
  7 10  1  0  0  0  0
  7 16  1  0  0  0  0
  8 23  1  0  0  0  0
  8 24  1  0  0  0  0
  8 25  1  0  0  0  0
  9 26  1  0  0  0  0
  9 27  1  0  0  0  0
  9 28  1  0  0  0  0
 10 29  1  0  0  0  0
 10 30  1  0  0  0  0
 10 31  1  0  0  0  0
 11 12  1  0  0  0  0
 11 32  1  0  0  0  0
 11 33  1  0  0  0  0
 11 34  1  0  0  0  0
 12 35  1  0  0  0  0
 12 36  1  0  0  0  0
 13 15  1  0  0  0  0
 13 37  1  0  0  0  0
 13 38  1  0  0  0  0
 16 39  1  0  0  0  0
M  END
$$$$
