39
0 1 C13H22N2OS
C                     1.388677477994     1.169030739555     4.324994468720
C                     1.953984447934     1.747000666142     3.216294233392
C                     1.118820744190     3.300469277520     4.936813003916
C                     0.396814887564     1.146965113516     0.741078308192
C                     2.013083122867    -0.459069162623     0.146030811705
C                    -0.108263000254     0.400643611686    -0.517931967397
C                     0.716663648640    -0.910828271257    -0.550579640078
C                     0.718976983858     4.484224505256     5.766544380795
C                    -1.626005641032     0.246515780104    -0.591877444531
C                     0.069178172561    -2.079230321827     0.195312672576
C                     2.226203285929    -0.796352751717     5.673317839855
C                     1.261401791449    -0.307645410712     4.579083319761
C                     2.524807566411     1.074619540177     1.994454645689
N                     0.928112008599     2.057807661974     5.284137513620
N                     1.509467775024     0.331810303913     1.262704281776
O                     0.923941044408    -1.251426007262    -1.929853639038
S                     1.895289281209     3.484537908055     3.372512113868
H                     0.728382415556     2.164986452208     0.476556664941
H                    -0.378692822393     1.250797582865     1.507717330896
H                     2.626198068145    -1.293744361717     0.507807405037
H                     2.615591732269     0.128428954191    -0.572080422362
H                     0.220611502579     0.952588502508    -1.404734243888
H                     1.570972089557     5.143119475922     5.963243831044
H                    -0.053621495007     5.078864619959     5.267127879490
H                     0.323044610421     4.125129813777     6.718531330525
H                    -2.024862544075    -0.259541900486     0.293459598473
H                    -1.918330392517    -0.324577922556    -1.478961174505
H                    -2.107109366991     1.228855360952    -0.653957784333
H                    -0.879806384429    -2.361393950099    -0.267920659602
H                    -0.107959019697    -1.821828779113     1.242854913397
H                     0.731587329706    -2.954398277500     0.175856398196
H                     3.268187673758    -0.631449422181     5.377782723694
H                     2.090955317159    -1.866957032806     5.862087384391
H                     2.052653539444    -0.257229734749     6.609240583460
H                     0.229889857661    -0.514937708111     4.887251060130
H                     1.429975562911    -0.846822350838     3.643528751200
H                     3.019315361700     1.829483205754     1.353621255239
H                     3.305259257336     0.367220535638     2.300143132618
H                     1.315436753777    -2.138698515914    -1.964786293623
