32
0 1 C11H14N4O3
C                    -0.330101945248    -5.244969097095     0.090391500492
C                     0.212349130699    -1.545061154982    -2.257991654196
C                    -0.763830541661    -6.333577098163    -0.737565762162
C                    -0.324917675492    -1.177512566516    -0.990121729701
C                     0.789136663726    -2.815709826053    -2.111154011290
C                    -1.280451737108    -5.175246088970     1.074758719075
C                    -0.126100331043    -6.874197649595    -1.980686550065
C                    -1.041118172361     0.067051245306    -0.576064925671
C                     1.499536690436    -3.674685509424    -3.105474598113
C                    -1.466243183429    -4.288418845898     2.257161078813
C                     0.873552869784    -4.368723244486    -0.082920380837
N                    -0.094245810332    -2.155984015415    -0.122190658683
N                    -1.872621070496    -6.873580258543    -0.280819449364
N                     0.581368445512    -3.129339426668    -0.812933418925
N                     0.185849481186    -0.779973309435    -3.458440644893
O                     0.705588324169    -1.270024977518    -4.477745233029
O                    -0.356539728653     0.336051505795    -3.423249815331
O                    -2.205822808842    -6.136632617698     0.872186946985
H                     0.923078951230    -7.135075733122    -1.805135603538
H                    -0.655425002234    -7.770016227321    -2.311040690588
H                    -0.157757918454    -6.136787719538    -2.788539994770
H                    -1.945073791637     0.212051076927    -1.173690764032
H                    -1.308461399083    -0.005116836704     0.480349950065
H                    -0.415099849355     0.948981747059    -0.736244004492
H                     2.331897374246    -3.123826532572    -3.549609935342
H                     1.878980087202    -4.591710403484    -2.653928081131
H                     0.828811576927    -3.936071534280    -3.928201610803
H                    -2.499253995790    -3.931208496258     2.300489055760
H                    -1.259354108481    -4.830313343839     3.186484220586
H                    -0.807284833209    -3.422830945110     2.182630770901
H                     1.273587245039    -4.062157228281     0.885409598491
H                     1.666858470953    -4.898789202990    -0.610357487501
