65
-1 1 C29F3H27NO4S
C                     5.350390764985    -3.733768668881     2.736919863849
C                     6.943803942395    -1.923221238802     2.507686551061
C                     3.727689205913    -2.277798730733     0.645447752226
C                    -0.650996021819     0.703821110415     4.084950134311
C                     6.279927191632    -4.447884969555     3.494667746312
C                     7.879205351195    -2.641379193925     3.247201082386
C                     2.731082610582    -1.544786030459    -0.003743944641
C                    -0.746356443402     0.900181791998     2.708946344677
C                     4.543881324559    -0.273050736320     1.732731529658
C                     0.521741059044    -1.151019648137     2.385907920338
C                     5.665424944795    -2.454833580118     2.245528276735
C                     4.647170260120    -1.660492924201     1.516052538727
C                     0.081595093555    -0.366765877162     4.630951925840
C                     3.526915652069     0.455878181708     1.127698035864
C                     0.689097717631    -1.297491947097     3.769308707776
C                     7.543147415897    -3.905917175279     3.751616366251
C                     2.618401139372    -0.181551286918     0.278781270419
C                    -0.144614971619    -0.044037116743     1.867070975243
C                     2.184560293889    -4.745882982290     3.507318288461
C                     0.234884671393    -0.494706183825     6.133915186885
C                     0.720878994923    -1.885254446137     6.561765868054
C                     1.941016716965    -2.298522437450     5.732739492806
C                     1.983195061714     2.085744625584     0.317061124323
C                     1.578258007772    -2.430720144109     4.245605615500
C                     3.157138407321     1.914453322766     1.330394630275
C                     2.703568724152     2.156702468731     2.783204650211
C                     4.314648689119     2.862925932555     0.978001915252
C                     0.996116751862    -3.833372874731     3.907621289943
C                     8.570942250204    -4.676152184677     4.523176826975
N                     1.597271620124     0.724682376748    -0.158019162659
O                     2.460126278285    -4.744085610727     2.265851639725
O                     2.819517674133    -5.302074927695     4.443262241488
O                    -0.216127508901    -0.999897860618    -0.614444571813
O                    -0.841410439629     1.444644392234    -0.214204822882
F                     8.040845059661    -5.672602508685     5.269906641941
F                     9.502580526397    -5.262110242346     3.706800205402
F                     9.285277979500    -3.881263925598     5.374801868466
S                    -0.039344960626     0.258506046680     0.109414145899
H                     4.366657087942    -4.173668609301     2.563616179475
H                     7.214688015543    -0.947692417369     2.111692480853
H                     3.761199395112    -3.352754854074     0.507013808558
H                    -1.130032575214     1.413904228769     4.757238432009
H                     5.987065965582    -5.410586323731     3.901312254025
H                     8.863238055696    -2.221803733058     3.437574753551
H                     2.011280374863    -2.037324588010    -0.647609007207
H                    -1.267759479919     1.752750319413     2.285982461587
H                     5.217995823395     0.214026029778     2.433445724251
H                     0.950060882269    -1.900258387511     1.731191232384
H                     0.960536839464     0.258029168053     6.475161418978
H                    -0.716179022858    -0.242974901926     6.619935545935
H                     0.959458064094    -1.879484467168     7.631904933582
H                    -0.085023802040    -2.615916541241     6.418782915996
H                     2.726428338261    -1.539615111843     5.858118814608
H                     2.356647193477    -3.253698600643     6.065392453218
H                     1.122689050767     2.598484909452     0.748505357969
H                     2.304130657529     2.657627453176    -0.558870026599
H                     2.501537697085    -2.334752655722     3.662857679085
H                     2.366465589778     3.192094382745     2.917139698571
H                     3.531518647118     1.975923912834     3.477187287342
H                     1.885347052149     1.490194680627     3.060380370515
H                     3.995404708802     3.910224804777     1.047955411804
H                     4.676557873093     2.679263577823    -0.038821112230
H                     5.155526776474     2.723445466868     1.665770948284
H                     0.297034899628    -3.763257280616     3.070602417900
H                     0.459959667325    -4.229673978849     4.777668403040
