66
0 1 C29F3H28NO4S
C                     6.788440127477    -3.220217653775     1.231528510215
C                     7.069123932847    -2.027546403885     3.309555345479
C                     3.973744210252    -2.093437952043     1.256917686643
C                     0.088479731400    -1.950694828388     4.655795086639
C                     7.955166273821    -3.942680412589     1.484267477818
C                     8.235557454776    -2.741712844100     3.567020288915
C                     2.788356645450    -1.396190847158     1.005101164879
C                     0.157106877023    -1.550700575349     3.325595484625
C                     4.993735575156    -0.121947163081     2.217162213908
C                    -0.546197359551     0.673489307712     4.008754426340
C                     6.321946645631    -2.252085105173     2.137004524410
C                     5.083591378974    -1.485105048923     1.869574179245
C                    -0.278568848104    -1.060114432992     5.678873883061
C                     3.820880043266     0.580053768233     1.982244765279
C                    -0.594545915868     0.271948068599     5.350926752706
C                     8.681992342158    -3.704086939214     2.652727595003
C                     2.717004978039    -0.059604462511     1.400817798060
C                    -0.164701120341    -0.225128855588     3.014691675821
C                    -0.146469864745     3.543386499130     7.364650174706
C                    -0.379484212204    -1.572716437563     7.102029473582
C                    -0.394735909056    -0.456714879671     8.149763080758
C                    -1.370524371288     0.648551979829     7.736052866633
C                     1.986997025344     2.085372370584     2.037916361593
C                    -0.954588152060     1.305877209801     6.409444425216
C                     3.532557760656     2.062471692323     2.157058350989
C                     3.994019576869     2.626536212382     3.506679328146
C                     4.171001720205     2.850267283411     0.993913930012
C                     0.224918994490     2.283167032447     6.591655871288
C                     9.944071332266    -4.462429765031     2.956572306818
N                     1.647456849995     0.868357778354     1.249562583799
O                    -1.272916687553     3.885562463831     7.634627756710
O                    -0.112750454751    -0.771890265129     0.425575695423
O                    -0.760325038980     1.587941146378     1.184516512655
O                     0.910844088364     4.328819620895     7.732170182311
F                    10.256427923017    -5.361512784052     1.994034722406
F                    11.014320540738    -3.632275707855     3.088504858653
F                     9.851127869384    -5.148948093017     4.128092015508
S                     0.021295969536     0.362501544944     1.336026425199
H                     6.249233368216    -3.392290466666     0.304670752150
H                     6.716070889333    -1.305299057239     4.039980194564
H                     4.023424917279    -3.145218013303     0.989536375038
H                     0.322311546522    -2.981651464778     4.912281671372
H                     8.303593805795    -4.680544371400     0.769095823157
H                     8.793411577550    -2.560815233915     4.481541095246
H                     1.950625135749    -1.878298374660     0.515608524893
H                     0.432917621754    -2.247838643269     2.542999625851
H                     5.856342620716     0.385752125760     2.641304362975
H                    -0.832158728619     1.684160893542     3.729069236577
H                    -1.308847836033    -2.152729818991     7.185517783277
H                     0.435553130642    -2.278594846095     7.296088705267
H                    -0.677797212382    -0.867518005871     9.124258942984
H                     0.616271852472    -0.047619672919     8.270177079874
H                    -2.369573659207     0.213390530282     7.612085590718
H                    -1.459681153179     1.412515043339     8.512505030909
H                     1.539311983262     2.020404067322     3.037886724781
H                     1.600929356505     2.971312776151     1.534109430433
H                    -1.796757008467     1.900163373743     6.041609149704
H                     3.669987262477     3.667169150409     3.622833731180
H                     5.085947826261     2.612469888357     3.584443485618
H                     3.586979884907     2.039290814729     4.336744425341
H                     3.930740137384     3.916551351168     1.072946530550
H                     3.804473168438     2.484776416404     0.030027996775
H                     5.260096066879     2.741674796259     1.005845801883
H                     1.068518142813     1.781654264416     7.081658659271
H                     0.597190071512     2.607712775737     5.611705996514
H                     1.744837368537     3.917801950379     7.447357884514
