
  -OEChem-05262117483D

 67 71  0     1  0  0  0  0  0999 V2000
   -1.1265   -2.9793   -4.6441 C   0  0  0  0  0  0  0  0  0  0  0  0
   -1.0502    2.9709   -8.8687 C   0  0  0  0  0  0  0  0  0  0  0  0
   -0.5584   -2.0116   -5.4739 C   0  0  0  0  0  0  0  0  0  0  0  0
   -2.5080   -3.1831   -4.6217 C   0  0  0  0  0  0  0  0  0  0  0  0
   -0.5114    1.7383   -8.4862 C   0  0  0  0  0  0  0  0  0  0  0  0
   -2.7405   -1.4578   -6.3593 C   0  0  0  0  0  0  0  0  0  0  0  0
   -2.3014    3.3696   -8.3966 C   0  0  0  0  0  0  0  0  0  0  0  0
   -1.3507   -1.2242   -6.3333 C   0  0  0  0  0  0  0  0  0  0  0  0
   -3.2796   -2.4104   -5.4951 C   0  0  0  0  0  0  0  0  0  0  0  0
   -2.9787    2.4697   -7.5412 C   0  0  0  0  0  0  0  0  0  0  0  0
   -1.2536    0.9355   -7.6127 C   0  0  0  0  0  0  0  0  0  0  0  0
   -4.2289    4.8461   -8.4568 C   0  0  0  0  0  0  0  0  0  0  0  0
   -4.1853    1.9678   -4.7527 C   0  0  0  0  0  0  0  0  0  0  0  0
   -6.3570    2.0134   -5.9194 C   0  0  0  0  0  0  0  0  0  0  0  0
   -6.6280   -4.8015   -5.3886 C   0  0  0  0  0  0  0  0  0  0  0  0
   -5.0434   -4.9139   -6.8823 C   0  0  0  0  0  0  0  0  0  0  0  0
   -4.5931    0.7822   -3.8985 C   0  0  0  0  0  0  0  0  0  0  0  0
   -6.8283    0.7952   -5.1265 C   0  0  0  0  0  0  0  0  0  0  0  0
   -5.0344    3.6309   -7.9897 C   0  0  1  0  0  0  0  0  0  0  0  0
   -4.8488    1.8754   -6.1352 C   0  0  0  0  0  0  0  0  0  0  0  0
   -6.3279   -5.7105   -6.5939 C   0  0  0  0  0  0  0  0  0  0  0  0
   -5.5280    2.8456   -9.2203 C   0  0  0  0  0  0  0  0  0  0  0  0
   -2.0722    5.6895   -9.2635 C   0  0  0  0  0  0  0  0  0  0  0  0
   -6.6955    1.4387   -2.7052 C   0  0  0  0  0  0  0  0  0  0  0  0
   -2.4598    1.2994   -7.1635 N   0  0  0  0  0  0  0  0  0  0  0  0
   -2.8857    4.6194   -8.6841 N   0  0  0  0  0  0  0  0  0  0  0  0
   -4.2303    2.8344   -7.0530 N   0  0  1  0  0  0  0  0  0  0  0  0
   -5.2432   -4.2324   -5.5554 N   0  0  0  0  0  0  0  0  0  0  0  0
   -0.7319   -0.2873   -7.1613 N   0  0  0  0  0  0  0  0  0  0  0  0
   -6.1031    0.6065   -3.7993 N   0  3  0  0  0  0  0  0  0  0  0  0
   -4.7782    5.9207   -8.6649 O   0  0  0  0  0  0  0  0  0  0  0  0
   -5.6123   -2.1910   -4.1508 O   0  0  0  0  0  0  0  0  0  0  0  0
   -5.6078   -1.8623   -6.6363 O   0  0  0  0  0  0  0  0  0  0  0  0
   -7.2593   -5.6859   -7.5823 F   0  0  0  0  0  0  0  0  0  0  0  0
   -6.1072   -7.0100   -6.2612 F   0  0  0  0  0  0  0  0  0  0  0  0
   -5.0551   -2.5797   -5.4715 S   0  0  0  0  0  0  0  0  0  0  0  0
   -0.4854   -3.5672   -3.9941 H   0  0  0  0  0  0  0  0  0  0  0  0
   -0.4819    3.6141   -9.5314 H   0  0  0  0  0  0  0  0  0  0  0  0
    0.5178   -1.8559   -5.4499 H   0  0  0  0  0  0  0  0  0  0  0  0
   -2.9663   -3.9133   -3.9640 H   0  0  0  0  0  0  0  0  0  0  0  0
    0.4587    1.4221   -8.8572 H   0  0  0  0  0  0  0  0  0  0  0  0
   -3.3770   -0.9158   -7.0420 H   0  0  0  0  0  0  0  0  0  0  0  0
   -4.4384    2.9253   -4.2844 H   0  0  0  0  0  0  0  0  0  0  0  0
   -3.0997    1.9261   -4.8516 H   0  0  0  0  0  0  0  0  0  0  0  0
   -6.9150    1.9915   -6.8583 H   0  0  0  0  0  0  0  0  0  0  0  0
   -6.6099    2.9524   -5.4150 H   0  0  0  0  0  0  0  0  0  0  0  0
   -7.4341   -4.0939   -5.5965 H   0  0  0  0  0  0  0  0  0  0  0  0
   -6.7664   -5.2967   -4.4282 H   0  0  0  0  0  0  0  0  0  0  0  0
   -4.1191   -5.4896   -6.9287 H   0  0  0  0  0  0  0  0  0  0  0  0
   -5.1545   -4.2475   -7.7414 H   0  0  0  0  0  0  0  0  0  0  0  0
   -4.2093   -0.1384   -4.3309 H   0  0  0  0  0  0  0  0  0  0  0  0
   -4.2195    0.8513   -2.8753 H   0  0  0  0  0  0  0  0  0  0  0  0
   -7.8929    0.8492   -4.8914 H   0  0  0  0  0  0  0  0  0  0  0  0
   -6.6446   -0.1124   -5.7021 H   0  0  0  0  0  0  0  0  0  0  0  0
   -5.8820    4.0515   -7.4505 H   0  0  0  0  0  0  0  0  0  0  0  0
   -4.6738    0.8672   -6.5273 H   0  0  0  0  0  0  0  0  0  0  0  0
   -4.6850    2.4662   -9.8053 H   0  0  0  0  0  0  0  0  0  0  0  0
   -6.1291    3.4971   -9.8601 H   0  0  0  0  0  0  0  0  0  0  0  0
   -6.1420    1.9899   -8.9243 H   0  0  0  0  0  0  0  0  0  0  0  0
   -1.7902    5.4509  -10.2944 H   0  0  0  0  0  0  0  0  0  0  0  0
   -1.1693    5.8385   -8.6646 H   0  0  0  0  0  0  0  0  0  0  0  0
   -2.6680    6.6003   -9.2630 H   0  0  0  0  0  0  0  0  0  0  0  0
   -6.5460    2.4932   -2.9344 H   0  0  0  0  0  0  0  0  0  0  0  0
   -7.7616    1.2229   -2.6312 H   0  0  0  0  0  0  0  0  0  0  0  0
   -6.2024    1.1909   -1.7650 H   0  0  0  0  0  0  0  0  0  0  0  0
    0.2713   -0.3818   -7.2529 H   0  0  0  0  0  0  0  0  0  0  0  0
   -6.2243   -0.3943   -3.5737 H   0  0  0  0  0  0  0  0  0  0  0  0
  1  3  1  0  0  0  0
  1  4  2  0  0  0  0
  1 37  1  0  0  0  0
  2  5  2  0  0  0  0
  2  7  1  0  0  0  0
  2 38  1  0  0  0  0
  3  8  2  0  0  0  0
  3 39  1  0  0  0  0
  4  9  1  0  0  0  0
  4 40  1  0  0  0  0
  5 11  1  0  0  0  0
  5 41  1  0  0  0  0
  6  8  1  0  0  0  0
  6  9  2  0  0  0  0
  6 42  1  0  0  0  0
  7 10  2  0  0  0  0
  7 26  1  0  0  0  0
  8 29  1  0  0  0  0
  9 36  1  0  0  0  0
 10 25  1  0  0  0  0
 10 27  1  0  0  0  0
 11 25  2  0  0  0  0
 11 29  1  0  0  0  0
 12 19  1  0  0  0  0
 12 26  1  0  0  0  0
 12 31  2  0  0  0  0
 13 17  1  0  0  0  0
 13 20  1  0  0  0  0
 13 43  1  0  0  0  0
 13 44  1  0  0  0  0
 14 18  1  0  0  0  0
 14 20  1  0  0  0  0
 14 45  1  0  0  0  0
 14 46  1  0  0  0  0
 15 21  1  0  0  0  0
 15 28  1  0  0  0  0
 15 47  1  0  0  0  0
 15 48  1  0  0  0  0
 16 21  1  0  0  0  0
 16 28  1  0  0  0  0
 16 49  1  0  0  0  0
 16 50  1  0  0  0  0
 17 30  1  0  0  0  0
 17 51  1  0  0  0  0
 17 52  1  0  0  0  0
 18 30  1  0  0  0  0
 18 53  1  0  0  0  0
 18 54  1  0  0  0  0
 19 22  1  0  0  0  0
 19 27  1  0  0  0  0
 19 55  1  0  0  0  0
 20 27  1  0  0  0  0
 20 56  1  0  0  0  0
 21 34  1  0  0  0  0
 21 35  1  0  0  0  0
 22 57  1  0  0  0  0
 22 58  1  0  0  0  0
 22 59  1  0  0  0  0
 23 26  1  0  0  0  0
 23 60  1  0  0  0  0
 23 61  1  0  0  0  0
 23 62  1  0  0  0  0
 24 30  1  0  0  0  0
 24 63  1  0  0  0  0
 24 64  1  0  0  0  0
 24 65  1  0  0  0  0
 28 36  1  0  0  0  0
 29 66  1  0  0  0  0
 30 67  1  0  0  0  0
 32 36  2  0  0  0  0
 33 36  2  0  0  0  0
M  CHG  1  30   1
M  END
$$$$
