
  -OEChem-05262117483D

 66 70  0     1  0  0  0  0  0999 V2000
    6.7884   -3.2202    1.2315 C   0  0  0  0  0  0  0  0  0  0  0  0
    7.0691   -2.0275    3.3096 C   0  0  0  0  0  0  0  0  0  0  0  0
    3.9737   -2.0934    1.2569 C   0  0  0  0  0  0  0  0  0  0  0  0
    0.0885   -1.9507    4.6558 C   0  0  0  0  0  0  0  0  0  0  0  0
    7.9552   -3.9427    1.4843 C   0  0  0  0  0  0  0  0  0  0  0  0
    8.2356   -2.7417    3.5670 C   0  0  0  0  0  0  0  0  0  0  0  0
    2.7884   -1.3962    1.0051 C   0  0  0  0  0  0  0  0  0  0  0  0
    0.1571   -1.5507    3.3256 C   0  0  0  0  0  0  0  0  0  0  0  0
    4.9937   -0.1219    2.2172 C   0  0  0  0  0  0  0  0  0  0  0  0
   -0.5462    0.6735    4.0088 C   0  0  0  0  0  0  0  0  0  0  0  0
    6.3219   -2.2521    2.1370 C   0  0  0  0  0  0  0  0  0  0  0  0
    5.0836   -1.4851    1.8696 C   0  0  0  0  0  0  0  0  0  0  0  0
   -0.2786   -1.0601    5.6789 C   0  0  0  0  0  0  0  0  0  0  0  0
    3.8209    0.5801    1.9822 C   0  0  0  0  0  0  0  0  0  0  0  0
   -0.5945    0.2719    5.3509 C   0  0  0  0  0  0  0  0  0  0  0  0
    8.6820   -3.7041    2.6527 C   0  0  0  0  0  0  0  0  0  0  0  0
    2.7170   -0.0596    1.4008 C   0  0  0  0  0  0  0  0  0  0  0  0
   -0.1647   -0.2251    3.0147 C   0  0  0  0  0  0  0  0  0  0  0  0
   -0.1465    3.5434    7.3647 C   0  0  0  0  0  0  0  0  0  0  0  0
   -0.3795   -1.5727    7.1020 C   0  0  0  0  0  0  0  0  0  0  0  0
   -0.3947   -0.4567    8.1498 C   0  0  0  0  0  0  0  0  0  0  0  0
   -1.3705    0.6486    7.7361 C   0  0  0  0  0  0  0  0  0  0  0  0
    1.9870    2.0854    2.0379 C   0  0  0  0  0  0  0  0  0  0  0  0
   -0.9546    1.3059    6.4094 C   0  0  1  0  0  0  0  0  0  0  0  0
    3.5326    2.0625    2.1571 C   0  0  0  0  0  0  0  0  0  0  0  0
    3.9940    2.6265    3.5067 C   0  0  0  0  0  0  0  0  0  0  0  0
    4.1710    2.8503    0.9939 C   0  0  0  0  0  0  0  0  0  0  0  0
    0.2249    2.2832    6.5917 C   0  0  0  0  0  0  0  0  0  0  0  0
    9.9441   -4.4624    2.9566 C   0  0  0  0  0  0  0  0  0  0  0  0
    1.6475    0.8684    1.2496 N   0  0  2  0  0  0  0  0  0  0  0  0
   -1.2729    3.8856    7.6346 O   0  0  0  0  0  0  0  0  0  0  0  0
   -0.1128   -0.7719    0.4256 O   0  0  0  0  0  0  0  0  0  0  0  0
   -0.7603    1.5879    1.1845 O   0  0  0  0  0  0  0  0  0  0  0  0
    0.9108    4.3288    7.7322 O   0  0  0  0  0  0  0  0  0  0  0  0
   10.2564   -5.3615    1.9940 F   0  0  0  0  0  0  0  0  0  0  0  0
   11.0143   -3.6323    3.0885 F   0  0  0  0  0  0  0  0  0  0  0  0
    9.8511   -5.1489    4.1281 F   0  0  0  0  0  0  0  0  0  0  0  0
    0.0213    0.3625    1.3360 S   0  0  0  0  0  0  0  0  0  0  0  0
    6.2492   -3.3923    0.3047 H   0  0  0  0  0  0  0  0  0  0  0  0
    6.7161   -1.3053    4.0400 H   0  0  0  0  0  0  0  0  0  0  0  0
    4.0234   -3.1452    0.9895 H   0  0  0  0  0  0  0  0  0  0  0  0
    0.3223   -2.9817    4.9123 H   0  0  0  0  0  0  0  0  0  0  0  0
    8.3036   -4.6805    0.7691 H   0  0  0  0  0  0  0  0  0  0  0  0
    8.7934   -2.5608    4.4815 H   0  0  0  0  0  0  0  0  0  0  0  0
    1.9506   -1.8783    0.5156 H   0  0  0  0  0  0  0  0  0  0  0  0
    0.4329   -2.2478    2.5430 H   0  0  0  0  0  0  0  0  0  0  0  0
    5.8563    0.3858    2.6413 H   0  0  0  0  0  0  0  0  0  0  0  0
   -0.8322    1.6842    3.7291 H   0  0  0  0  0  0  0  0  0  0  0  0
   -1.3088   -2.1527    7.1855 H   0  0  0  0  0  0  0  0  0  0  0  0
    0.4356   -2.2786    7.2961 H   0  0  0  0  0  0  0  0  0  0  0  0
   -0.6778   -0.8675    9.1243 H   0  0  0  0  0  0  0  0  0  0  0  0
    0.6163   -0.0476    8.2702 H   0  0  0  0  0  0  0  0  0  0  0  0
   -2.3696    0.2134    7.6121 H   0  0  0  0  0  0  0  0  0  0  0  0
   -1.4597    1.4125    8.5125 H   0  0  0  0  0  0  0  0  0  0  0  0
    1.5393    2.0204    3.0379 H   0  0  0  0  0  0  0  0  0  0  0  0
    1.6009    2.9713    1.5341 H   0  0  0  0  0  0  0  0  0  0  0  0
   -1.7968    1.9002    6.0416 H   0  0  0  0  0  0  0  0  0  0  0  0
    3.6700    3.6672    3.6228 H   0  0  0  0  0  0  0  0  0  0  0  0
    5.0859    2.6125    3.5844 H   0  0  0  0  0  0  0  0  0  0  0  0
    3.5870    2.0393    4.3367 H   0  0  0  0  0  0  0  0  0  0  0  0
    3.9307    3.9166    1.0729 H   0  0  0  0  0  0  0  0  0  0  0  0
    3.8045    2.4848    0.0300 H   0  0  0  0  0  0  0  0  0  0  0  0
    5.2601    2.7417    1.0058 H   0  0  0  0  0  0  0  0  0  0  0  0
    1.0685    1.7817    7.0817 H   0  0  0  0  0  0  0  0  0  0  0  0
    0.5972    2.6077    5.6117 H   0  0  0  0  0  0  0  0  0  0  0  0
    1.7448    3.9178    7.4474 H   0  0  0  0  0  0  0  0  0  0  0  0
  1  5  1  0  0  0  0
  1 11  2  0  0  0  0
  1 39  1  0  0  0  0
  2  6  2  0  0  0  0
  2 11  1  0  0  0  0
  2 40  1  0  0  0  0
  3  7  2  0  0  0  0
  3 12  1  0  0  0  0
  3 41  1  0  0  0  0
  4  8  2  0  0  0  0
  4 13  1  0  0  0  0
  4 42  1  0  0  0  0
  5 16  2  0  0  0  0
  5 43  1  0  0  0  0
  6 16  1  0  0  0  0
  6 44  1  0  0  0  0
  7 17  1  0  0  0  0
  7 45  1  0  0  0  0
  8 18  1  0  0  0  0
  8 46  1  0  0  0  0
  9 12  2  0  0  0  0
  9 14  1  0  0  0  0
  9 47  1  0  0  0  0
 10 15  1  0  0  0  0
 10 18  2  0  0  0  0
 10 48  1  0  0  0  0
 11 12  1  0  0  0  0
 13 15  2  0  0  0  0
 13 20  1  0  0  0  0
 14 17  2  0  0  0  0
 14 25  1  0  0  0  0
 15 24  1  0  0  0  0
 16 29  1  0  0  0  0
 17 30  1  0  0  0  0
 18 38  1  0  0  0  0
 19 28  1  0  0  0  0
 19 31  2  0  0  0  0
 19 34  1  0  0  0  0
 20 21  1  0  0  0  0
 20 49  1  0  0  0  0
 20 50  1  0  0  0  0
 21 22  1  0  0  0  0
 21 51  1  0  0  0  0
 21 52  1  0  0  0  0
 22 24  1  0  0  0  0
 22 53  1  0  0  0  0
 22 54  1  0  0  0  0
 23 25  1  0  0  0  0
 23 30  1  0  0  0  0
 23 55  1  0  0  0  0
 23 56  1  0  0  0  0
 24 28  1  0  0  0  0
 24 57  1  0  0  0  0
 25 26  1  0  0  0  0
 25 27  1  0  0  0  0
 26 58  1  0  0  0  0
 26 59  1  0  0  0  0
 26 60  1  0  0  0  0
 27 61  1  0  0  0  0
 27 62  1  0  0  0  0
 27 63  1  0  0  0  0
 28 64  1  0  0  0  0
 28 65  1  0  0  0  0
 29 35  1  0  0  0  0
 29 36  1  0  0  0  0
 29 37  1  0  0  0  0
 30 38  1  0  0  0  0
 32 38  2  0  0  0  0
 33 38  2  0  0  0  0
 34 66  1  0  0  0  0
M  END
$$$$
