
  -OEChem-05262117483D

 52 56  0     1  0  0  0  0  0999 V2000
   -2.8228   -1.8823   -1.4427 C   0  0  0  0  0  0  0  0  0  0  0  0
   -1.8674   -0.8392   -1.1445 C   0  0  0  0  0  0  0  0  0  0  0  0
   -0.8684   -1.2863   -0.3224 C   0  0  0  0  0  0  0  0  0  0  0  0
   -4.0087   -1.7877   -2.2823 C   0  0  0  0  0  0  0  0  0  0  0  0
   -2.5161   -3.0860   -0.8423 C   0  0  0  0  0  0  0  0  0  0  0  0
   -4.4457   -4.1987   -1.7502 C   0  0  0  0  0  0  0  0  0  0  0  0
    1.8506    1.0289   -0.9974 C   0  0  0  0  0  0  0  0  0  0  0  0
   -7.0473   -1.8045   -2.8132 C   0  0  0  0  0  0  0  0  0  0  0  0
    2.8810   -0.3860   -2.5527 C   0  0  0  0  0  0  0  0  0  0  0  0
    2.0630   -1.2385   -1.5627 C   0  0  0  0  0  0  0  0  0  0  0  0
   -1.3704   -7.6198   -0.8228 C   0  0  0  0  0  0  0  0  0  0  0  0
   -2.3361   -6.9789   -2.5540 C   0  0  0  0  0  0  0  0  0  0  0  0
   -7.3865   -3.1659   -2.2547 C   0  0  1  0  0  0  0  0  0  0  0  0
   -1.8156   -6.2225   -1.3083 C   0  0  0  0  0  0  0  0  0  0  0  0
   -6.0811   -2.9455   -2.9945 C   0  0  2  0  0  0  0  0  0  0  0  0
   -1.9584    0.5651   -1.6748 C   0  0  0  0  0  0  0  0  0  0  0  0
   -7.4239   -3.3798   -0.7561 C   0  0  0  0  0  0  0  0  0  0  0  0
    0.3369   -0.5359    0.1783 C   0  0  0  0  0  0  0  0  0  0  0  0
   -2.8350   -5.5118   -0.4260 C   0  0  0  0  0  0  0  0  0  0  0  0
   -4.8284   -2.9525   -2.2600 N   0  0  0  0  0  0  0  0  0  0  0  0
   -3.2782   -4.2241   -0.9807 N   0  0  0  0  0  0  0  0  0  0  0  0
    2.9515    0.8944   -1.8440 N   0  0  0  0  0  0  0  0  0  0  0  0
    1.2680   -0.2230   -0.8893 N   0  0  0  0  0  0  0  0  0  0  0  0
   -4.3157   -0.8085   -2.9519 O   0  0  0  0  0  0  0  0  0  0  0  0
   -5.0951   -5.2186   -1.9515 O   0  0  0  0  0  0  0  0  0  0  0  0
    1.4702    2.0569   -0.4485 O   0  0  0  0  0  0  0  0  0  0  0  0
   -1.8023   -8.2400   -2.0582 O   0  0  0  0  0  0  0  0  0  0  0  0
   -1.0582   -2.9904    0.0974 S   0  0  0  0  0  0  0  0  0  0  0  0
   -7.5457   -1.4373   -3.7049 H   0  0  0  0  0  0  0  0  0  0  0  0
   -6.7725   -1.0302   -2.1055 H   0  0  0  0  0  0  0  0  0  0  0  0
    3.8744   -0.8025   -2.7357 H   0  0  0  0  0  0  0  0  0  0  0  0
    2.3507   -0.2940   -3.5103 H   0  0  0  0  0  0  0  0  0  0  0  0
    1.4308   -1.9747   -2.0669 H   0  0  0  0  0  0  0  0  0  0  0  0
    2.7167   -1.7655   -0.8505 H   0  0  0  0  0  0  0  0  0  0  0  0
   -0.2965   -7.7540   -0.6501 H   0  0  0  0  0  0  0  0  0  0  0  0
   -1.9280   -8.0076    0.0410 H   0  0  0  0  0  0  0  0  0  0  0  0
   -3.4249   -7.0077   -2.6546 H   0  0  0  0  0  0  0  0  0  0  0  0
   -1.8787   -6.6998   -3.5095 H   0  0  0  0  0  0  0  0  0  0  0  0
   -8.1066   -3.7594   -2.8130 H   0  0  0  0  0  0  0  0  0  0  0  0
   -0.9745   -5.5598   -1.5267 H   0  0  0  0  0  0  0  0  0  0  0  0
   -5.9972   -3.3835   -3.9847 H   0  0  0  0  0  0  0  0  0  0  0  0
   -2.9331    1.0014   -1.4406 H   0  0  0  0  0  0  0  0  0  0  0  0
   -1.1721    1.2000   -1.2629 H   0  0  0  0  0  0  0  0  0  0  0  0
   -1.8765    0.5675   -2.7658 H   0  0  0  0  0  0  0  0  0  0  0  0
   -6.6551   -2.7881   -0.2483 H   0  0  0  0  0  0  0  0  0  0  0  0
   -7.2635   -4.4325   -0.5071 H   0  0  0  0  0  0  0  0  0  0  0  0
   -8.3941   -3.0706   -0.3522 H   0  0  0  0  0  0  0  0  0  0  0  0
    0.0409    0.4205    0.6173 H   0  0  0  0  0  0  0  0  0  0  0  0
    0.8409   -1.1110    0.9693 H   0  0  0  0  0  0  0  0  0  0  0  0
   -2.4121   -5.3168    0.5659 H   0  0  0  0  0  0  0  0  0  0  0  0
   -3.7249   -6.1283   -0.2968 H   0  0  0  0  0  0  0  0  0  0  0  0
    3.2120    1.7345   -2.3461 H   0  0  0  0  0  0  0  0  0  0  0  0
  1  2  1  0  0  0  0
  1  4  1  0  0  0  0
  1  5  2  0  0  0  0
  2  3  2  0  0  0  0
  2 16  1  0  0  0  0
  3 18  1  0  0  0  0
  3 28  1  0  0  0  0
  4 20  1  0  0  0  0
  4 24  2  0  0  0  0
  5 21  1  0  0  0  0
  5 28  1  0  0  0  0
  6 20  1  0  0  0  0
  6 21  1  0  0  0  0
  6 25  2  0  0  0  0
  7 22  1  0  0  0  0
  7 23  1  0  0  0  0
  7 26  2  0  0  0  0
  8 13  1  0  0  0  0
  8 15  1  0  0  0  0
  8 29  1  0  0  0  0
  8 30  1  0  0  0  0
  9 10  1  0  0  0  0
  9 22  1  0  0  0  0
  9 31  1  0  0  0  0
  9 32  1  0  0  0  0
 10 23  1  0  0  0  0
 10 33  1  0  0  0  0
 10 34  1  0  0  0  0
 11 14  1  0  0  0  0
 11 27  1  0  0  0  0
 11 35  1  0  0  0  0
 11 36  1  0  0  0  0
 12 14  1  0  0  0  0
 12 27  1  0  0  0  0
 12 37  1  0  0  0  0
 12 38  1  0  0  0  0
 13 15  1  0  0  0  0
 13 17  1  0  0  0  0
 13 39  1  0  0  0  0
 14 19  1  0  0  0  0
 14 40  1  0  0  0  0
 15 20  1  0  0  0  0
 15 41  1  0  0  0  0
 16 42  1  0  0  0  0
 16 43  1  0  0  0  0
 16 44  1  0  0  0  0
 17 45  1  0  0  0  0
 17 46  1  0  0  0  0
 17 47  1  0  0  0  0
 18 23  1  0  0  0  0
 18 48  1  0  0  0  0
 18 49  1  0  0  0  0
 19 21  1  0  0  0  0
 19 50  1  0  0  0  0
 19 51  1  0  0  0  0
 22 52  1  0  0  0  0
M  END
$$$$
