
  -OEChem-05262117483D

 35 36  0     0  0  0  0  0  0999 V2000
   -1.3730   -3.9857    4.3305 C   0  0  0  0  0  0  0  0  0  0  0  0
   -3.5427   -3.7687    2.7662 C   0  0  0  0  0  0  0  0  0  0  0  0
   -1.3114   -3.3737    3.0747 C   0  0  0  0  0  0  0  0  0  0  0  0
   -3.5811   -4.3806    4.0312 C   0  0  0  0  0  0  0  0  0  0  0  0
   -0.0003   -2.8238    2.5718 C   0  0  0  0  0  0  0  0  0  0  0  0
    2.0409   -2.7476    0.1402 C   0  0  0  0  0  0  0  0  0  0  0  0
    0.6498   -0.7431   -0.4501 C   0  0  0  0  0  0  0  0  0  0  0  0
    1.4162   -3.4685   -1.0526 C   0  0  0  0  0  0  0  0  0  0  0  0
    0.0849   -1.5308   -1.6364 C   0  0  0  0  0  0  0  0  0  0  0  0
    1.1025   -1.6608    0.6905 C   0  0  0  0  0  0  0  0  0  0  0  0
    0.6179   -3.1931   -3.3281 C   0  0  0  0  0  0  0  0  0  0  0  0
    1.8021   -3.5504   -4.2119 C   0  0  0  0  0  0  0  0  0  0  0  0
   -2.4026   -3.2688    2.2965 N   0  0  0  0  0  0  0  0  0  0  0  0
   -2.5183   -4.4921    4.8091 N   0  0  0  0  0  0  0  0  0  0  0  0
    1.0552   -2.5182   -2.1128 N   0  0  0  0  0  0  0  0  0  0  0  0
   -0.0683   -2.2461    1.3493 N   0  0  0  0  0  0  0  0  0  0  0  0
    1.0271   -2.9128    3.2496 O   0  0  0  0  0  0  0  0  0  0  0  0
    2.3286   -2.4178   -4.7838 F   0  0  0  0  0  0  0  0  0  0  0  0
    1.3747   -4.3654   -5.2400 F   0  0  0  0  0  0  0  0  0  0  0  0
   -5.0966   -5.0293    4.6130 Cl  0  0  0  0  0  0  0  0  0  0  0  0
   -0.4834   -4.0633    4.9478 H   0  0  0  0  0  0  0  0  0  0  0  0
   -4.4337   -3.6911    2.1488 H   0  0  0  0  0  0  0  0  0  0  0  0
    2.2813   -3.4593    0.9340 H   0  0  0  0  0  0  0  0  0  0  0  0
    2.9746   -2.2702   -0.1771 H   0  0  0  0  0  0  0  0  0  0  0  0
    1.5189   -0.1750   -0.7958 H   0  0  0  0  0  0  0  0  0  0  0  0
   -0.0948   -0.0246   -0.0894 H   0  0  0  0  0  0  0  0  0  0  0  0
    2.1316   -4.1934   -1.4531 H   0  0  0  0  0  0  0  0  0  0  0  0
    0.5304   -4.0455   -0.7227 H   0  0  0  0  0  0  0  0  0  0  0  0
   -0.8764   -2.0101   -1.3591 H   0  0  0  0  0  0  0  0  0  0  0  0
   -0.1356   -0.8387   -2.4546 H   0  0  0  0  0  0  0  0  0  0  0  0
    1.6376   -1.0822    1.4489 H   0  0  0  0  0  0  0  0  0  0  0  0
   -0.0231   -2.5297   -3.9159 H   0  0  0  0  0  0  0  0  0  0  0  0
    0.0439   -4.1134   -3.1269 H   0  0  0  0  0  0  0  0  0  0  0  0
    2.6163   -4.0654   -3.6954 H   0  0  0  0  0  0  0  0  0  0  0  0
   -0.9753   -2.2441    0.8968 H   0  0  0  0  0  0  0  0  0  0  0  0
  1  3  1  0  0  0  0
  1 14  2  0  0  0  0
  1 21  1  0  0  0  0
  2  4  2  0  0  0  0
  2 13  1  0  0  0  0
  2 22  1  0  0  0  0
  3  5  1  0  0  0  0
  3 13  2  0  0  0  0
  4 14  1  0  0  0  0
  4 20  1  0  0  0  0
  5 16  1  0  0  0  0
  5 17  2  0  0  0  0
  6  8  1  0  0  0  0
  6 10  1  0  0  0  0
  6 23  1  0  0  0  0
  6 24  1  0  0  0  0
  7  9  1  0  0  0  0
  7 10  1  0  0  0  0
  7 25  1  0  0  0  0
  7 26  1  0  0  0  0
  8 15  1  0  0  0  0
  8 27  1  0  0  0  0
  8 28  1  0  0  0  0
  9 15  1  0  0  0  0
  9 29  1  0  0  0  0
  9 30  1  0  0  0  0
 10 16  1  0  0  0  0
 10 31  1  0  0  0  0
 11 12  1  0  0  0  0
 11 15  1  0  0  0  0
 11 32  1  0  0  0  0
 11 33  1  0  0  0  0
 12 18  1  0  0  0  0
 12 19  1  0  0  0  0
 12 34  1  0  0  0  0
 16 35  1  0  0  0  0
M  END
$$$$
