29   
torsion grid (-165,)
C       -1.1106404614    0.8650947834    7.7645265670
C        0.2213085039    1.0905108703    7.3908173363
C       -1.9483027202    0.1650825641    6.8946488963
C        0.7026261390    0.6247726927    6.1691997327
C       -1.4781763072   -0.3092181171    5.6633674750
C       -0.1432121277   -0.0805725934    5.2964728244
C        0.6770017078    0.2478907417    0.6626474788
C        1.5108406897   -0.8081492832    1.4020604083
C       -0.2857236830    0.9644711481    1.6202010759
C        0.6137438498   -1.8031028077    2.1523116926
C       -1.1863384069   -0.0330872206    2.3627969027
C       -0.3669495946   -1.1039236723    3.0964742068
O        0.4409942442   -0.5140163754    4.1379553061
H       -1.4860435211    1.2306117859    8.7161554946
H        0.8891011067    1.6335929438    8.0550110073
H       -2.9845457512   -0.0181982348    7.1681753283
H        1.7330402228    0.7908794925    5.8677816262
H       -2.1555705451   -0.8481061084    5.0113165206
H        0.0984362257   -0.2390139669   -0.1355217207
H        1.3352546008    0.9753326391    0.1734573121
H        2.1522113724   -1.3501609735    0.6974689172
H        2.1739739723   -0.3126171757    2.1202911638
H        0.2907871331    1.5395357292    2.3544491193
H       -0.9064215948    1.6824827047    1.0721243678
H        0.0256003405   -2.3874235266    1.4327657284
H        1.2169146264   -2.5120193265    2.7291964643
H       -1.8365381988    0.4941625929    3.0674914412
H       -1.8434684241   -0.5468855641    1.6481642644
H       -1.0283977050   -1.8561498015    3.5433942170
29   
torsion grid (-150,)
C       -1.0804221141    0.7037333729    7.8933164850
C        0.2552191673    0.9337776759    7.5351978718
C       -1.9482420614    0.1513915375    6.9500991946
C        0.7119460362    0.6119568875    6.2591590752
C       -1.5045962620   -0.1732990035    5.6615075364
C       -0.1638303046    0.0519119996    5.3131639863
C        0.6747581929    0.1417773561    0.5551149519
C        1.5316552397   -0.7925095994    1.4219204270
C       -0.3258723236    0.9316345533    1.4115600476
C        0.6543261848   -1.7285898032    2.2654129894
C       -1.2074974567   -0.0038299760    2.2519753118
C       -0.3665951250   -0.9597623688    3.1072278469
O        0.3889711442   -0.2211206823    4.0926665518
H       -1.4354979505    0.9539184061    8.8890270125
H        0.9462726085    1.3635837322    8.2561505192
H       -2.9890724803   -0.0276178821    7.2086601375
H        1.7455756449    0.7798654226    5.9701516087
H       -2.2093246473   -0.5857341386    4.9489748071
H        0.1256095069   -0.4537424271   -0.1883258685
H        1.3163920972    0.8303746922   -0.0068985446
H        2.2067520773   -1.3848482683    0.7934962272
H        2.1614491539   -0.1940390417    2.0902834496
H        0.2210993649    1.6037896084    2.0831163620
H       -0.9584832691    1.5624288934    0.7766436610
H        0.0991210666   -2.4086466577    1.6059220196
H        1.2672125238   -2.3476987840    2.9287246141
H       -1.8777221826    0.5778063296    2.8933900957
H       -1.8426636978   -0.6103506320    1.5921052941
H       -1.0101582897   -1.6801048841    3.6245573203
29   
torsion grid (-135,)
C       -1.0145370162    0.5388010854    7.9812666990
C        0.3101547926    0.7849263841    7.5962829423
C       -1.9325976248    0.1129716062    7.0189426139
C        0.7113771610    0.5982525968    6.2743243210
C       -1.5457327892   -0.0706273537    5.6858336531
C       -0.2135944079    0.1639201734    5.3108518876
C        0.7013926807    0.0532213895    0.4943492024
C        1.5459546558   -0.7680373128    1.4801573232
C       -0.3514286419    0.8957314952    1.2301459632
C        0.6590439823   -1.6440697687    2.3765163134
C       -1.2441781263    0.0208601276    2.1225383568
C       -0.4166527793   -0.8254085460    3.0950092371
O        0.2652565909    0.0386827206    4.0355964470
H       -1.3242008717    0.6809064941    9.0128304697
H        1.0376925715    1.1182355744    8.3322474937
H       -2.9670717850   -0.0711610089    7.2985670763
H        1.7366360252    0.7780492215    5.9635979091
H       -2.2858855649   -0.3748583502    4.9537826201
H        0.1966653104   -0.6272748521   -0.2064623177
H        1.3481593993    0.7009174031   -0.1088877664
H        2.2617867192   -1.3968312030    0.9381909310
H        2.1316078130   -0.0894776158    2.1112567044
H        0.1519369902    1.6431653902    1.8545131235
H       -0.9710898681    1.4452426471    0.5122808321
H        0.1517398455   -2.4033389839    1.7662242856
H        1.2586213425   -2.1749269103    3.1233490275
H       -1.9500117311    0.6406860945    2.6863301515
H       -1.8397677201   -0.6602017990    1.4994667658
H       -1.0652864574   -1.5090340999    3.6519750661
29   
torsion grid (-120,)
C        7.3978483146    3.7700678518   -1.5435042370
C        6.7998614248    4.2795803970   -0.3841566398
C        6.6803088466    2.8762626064   -2.3433237325
C        5.5094481098    3.8917390030   -0.0211950507
C        5.3816438815    2.4881194352   -1.9962524171
C        4.7953658024    2.9892982060   -0.8235965688
C        0.7502212282   -0.5448653786   -0.3741147010
C        1.0848489506    0.0973018987   -1.7282240327
C        1.9935096714   -0.6308458008    0.5229187913
C        1.7501467692    1.4705262347   -1.5491849700
C        2.6552466092    0.7447785743    0.6964499004
C        2.9881028860    1.3703259000   -0.6593571136
O        3.5169509788    2.6946363963   -0.4272608030
H        8.4046739404    4.0695450412   -1.8209332975
H        7.3445260779    4.9775941845    0.2468491178
H        7.1253627338    2.4838552911   -3.2544579926
H        5.0358506117    4.2724264340    0.8791746656
H        4.8283563610    1.8191535942   -2.6479095772
H        0.3213593118   -1.5425318749   -0.5240257943
H       -0.0180825573    0.0567622598    0.1304149257
H        1.7614789999   -0.5659454794   -2.2850624532
H        0.1797179789    0.1997346900   -2.3373911183
H        1.7300156695   -1.0427497504    1.5036718220
H        2.7148622232   -1.3288647367    0.0757510626
H        2.0277724589    1.9008871794   -2.5182570271
H        1.0479178307    2.1704241826   -1.0794409945
H        1.9781954822    1.4228176746    1.2308020190
H        3.5706929152    0.6672498770    1.2934566676
H        3.7487103306    0.7547904675   -1.1519738513
29   
torsion grid (-105,)
C        7.3168764765    3.8575712482   -1.6967112696
C        6.7900589396    4.3686295113   -0.5032436883
C        6.5918055801    2.8932527902   -2.4004527995
C        5.5646629088    3.9146612738   -0.0169660000
C        5.3561407772    2.4353609797   -1.9277395584
C        4.8415333889    2.9402017438   -0.7233525419
C        0.7145591679   -0.5097935426   -0.4686962706
C        1.1938376267    0.1440416109   -1.7724865507
C        1.8711645343   -0.6737658367    0.5277312313
C        1.9051360646    1.4784553164   -1.5007237166
C        2.5800795650    0.6633306809    0.7911869765
C        3.0603498192    1.2975359490   -0.5147518628
O        3.6353018144    2.5793674428   -0.1856858524
H        8.2737433219    4.2092523390   -2.0721349595
H        7.3402706059    5.1209222757    0.0565805331
H        6.9804860128    2.4954075384   -3.3347454060
H        5.1482080283    4.2966086066    0.9106862469
H        4.8003451720    1.7071683466   -2.5086401500
H        0.2543138525   -1.4822091026   -0.6789893787
H       -0.0654497660    0.1177774190   -0.0164294333
H        1.8837664491   -0.5389435613   -2.2876012918
H        0.3501430328    0.3047095428   -2.4530862490
H        1.5058369479   -1.0920710579    1.4724238178
H        2.5947117007   -1.3968329496    0.1262988377
H        2.2759314789    1.9192788478   -2.4330053769
H        1.2006150249    2.1991523239   -1.0673854608
H        1.8923192743    1.3633742293    1.2817867900
H        3.4351615216    0.5287134693    1.4623436854
H        3.8329801200    0.6547903067   -0.9521714370
29   
torsion grid (-90,)
C        7.2087046520    3.9494498831   -1.8305155399
C        6.7174369684    4.4735268037   -0.6267919190
C        6.5342199427    2.8837457936   -2.4283548060
C        5.5775319408    3.9373534737   -0.0318386289
C        5.3839977703    2.3369030025   -1.8448291792
C        4.9041854600    2.8613009482   -0.6347579764
C        0.6820766087   -0.4362202504   -0.5489989101
C        1.2862844847    0.2228245995   -1.7969813124
C        1.7585466818   -0.7078674683    0.5116540174
C        2.0647665899    1.4967104543   -1.4344804816
C        2.5388822002    0.5678374645    0.8625165764
C        3.1441171227    1.2020476176   -0.3892794902
O        3.7944632744    2.4160245190    0.0304390469
H        8.0984452758    4.3678373172   -2.2925445985
H        7.2284953975    5.3040241242   -0.1460232398
H        6.8963604389    2.4690559152   -3.3659684363
H        5.1897806869    4.3307649785    0.9035041594
H        4.8751467113    1.5209266493   -2.3449346087
H        0.1736491876   -1.3686535228   -0.8204696839
H       -0.0826465632    0.2289699606   -0.1253609606
H        1.9610747546   -0.4891204140   -2.2926055609
H        0.5003482938    0.4618231895   -2.5222229553
H        1.3055361763   -1.1257030060    1.4177283389
H        2.4555639186   -1.4683166271    0.1330936260
H        2.5137292751    1.9448451769   -2.3271873340
H        1.3834262824    2.2456697025   -1.0119691394
H        1.8706816469    1.3001861671    1.3325862944
H        3.3378097408    0.3538491026    1.5803461251
H        3.8929775774    0.5135854465   -0.8008270463
29   
torsion grid (-75,)
C        7.0715946361    4.0402222528   -1.9446323136
C        6.5833193978    4.5700012840   -0.7423193703
C        6.5013884532    2.8702366734   -2.4488715832
C        5.5444052670    3.9394070253   -0.0612224490
C        5.4562306957    2.2256337441   -1.7748621896
C        4.9734171265    2.7610844533   -0.5709811052
C        0.6513520836   -0.3295598690   -0.6028496056
C        1.3579771699    0.3131011273   -1.8048332250
C        1.6573399911   -0.7212789580    0.4890810527
C        2.2228513021    1.5072116535   -1.3728009023
C        2.5267460602    0.4729213587    0.9096486656
C        3.2303587093    1.0874892692   -0.2981949799
O        3.9793456087    2.2128045516    0.1943415758
H        7.8803209800    4.5331293511   -2.4767485709
H        7.0142576920    5.4804237887   -0.3330540926
H        6.8670299538    2.4456375873   -3.3806756272
H        5.1578332556    4.3379568747    0.8724388829
H        5.0364983768    1.3193120517   -2.1955213536
H        0.0790483055   -1.2078132119   -0.9235360407
H       -0.0724638519    0.3847515432   -0.1873955151
H        1.9918034611   -0.4375445071   -2.2974620514
H        0.6245084240    0.6378484420   -2.5513275651
H        1.1343275420   -1.1238420999    1.3637684138
H        2.3029071270   -1.5274810110    0.1140671613
H        2.7374961377    1.9431290774   -2.2343012422
H        1.5879344893    2.2956001808   -0.9490878749
H        1.9042430715    1.2456507429    1.3777611721
H        3.2762159793    0.1714752986    1.6490362586
H        3.9265733487    0.3429360159   -0.7085288838
29   
torsion grid (-60,)
C        2.9143314657   -3.7376898503    6.1056250374
C        1.5843503563   -3.9768961582    5.7505868367
C        3.4988917530   -2.5098231726    5.7699606726
C        0.8372028903   -3.0109325615    5.0672041874
C        2.7664911803   -1.5408992549    5.0844332990
C        1.4311923590   -1.7856955390    4.7289393446
C        0.5030337373    0.0613343964    0.6394992331
C        1.0057252022   -1.3005049997    1.1403193478
C        0.1570350720    0.9915504832    1.8111748605
C       -0.0056248171   -1.9555221096    2.0918507873
C       -0.8467867329    0.3348517467    2.7698544167
C       -0.3652433464   -1.0309854733    3.2626625581
O        0.7791581909   -0.7564987633    4.1034972892
H        3.4869510902   -4.4941172070    6.6349430156
H        1.1152587805   -4.9234825572    6.0077075063
H        4.5324808523   -2.3067970478    6.0392051985
H       -0.1967474350   -3.2159550360    4.8116205980
H        3.2068239457   -0.5847586248    4.8159037819
H       -0.3916061563   -0.0898820247    0.0185466745
H        1.2563222075    0.5293487874   -0.0050169261
H        1.2030496335   -1.9698554052    0.2951777978
H        1.9584877905   -1.1676396689    1.6668280492
H        1.0707694164    1.2356210534    2.3647525799
H       -0.2531337109    1.9377771166    1.4397212868
H       -0.9358624169   -2.1776685603    1.5519159264
H        0.3794873686   -2.9102331441    2.4604757972
H       -1.0359551654    0.9787422279    3.6352195292
H       -1.8071175945    0.1866805920    2.2593386837
H       -1.1523652120   -1.4883204433    3.8767792780
29   
torsion grid (-45,)
C        2.9714018032   -3.7163705983    5.8963924588
C        1.6100850049   -3.9710759045    5.7006177951
C        3.4945660903   -2.4710133033    5.5293990024
C        0.7749582268   -2.9979095100    5.1437252676
C        2.6710923332   -1.4956469262    4.9630334494
C        1.3086658995   -1.7569080756    4.7661156178
C        0.6658669057    0.0078393253    0.7494528539
C        1.0804584107   -1.3573126530    1.3179265954
C        0.2263648053    0.9676716527    1.8644841219
C       -0.0348122711   -1.9667210907    2.1798283768
C       -0.8880308172    0.3549094785    2.7248798287
C       -0.4914305296   -1.0100262439    3.2881442999
O        0.5469914852   -0.7329158678    4.2644046135
H        3.6147237297   -4.4764271747    6.3310142997
H        1.1897301250   -4.9314157562    5.9890489815
H        4.5503403569   -2.2586576049    5.6785030149
H       -0.2836253326   -3.1999112515    5.0108744805
H        3.0622086708   -0.5255716478    4.6693687736
H       -0.1650663332   -0.1329247569    0.0433832143
H        1.4919450107    0.4460362645    0.1771685248
H        1.3360801401   -2.0467511382    0.5050466608
H        1.9845418559   -1.2425869051    1.9277505292
H        1.0839427932    1.1986357797    2.5064858899
H       -0.1166578180    1.9169928141    1.4370241310
H       -0.9134502958   -2.1771744602    1.5555804440
H        0.2853060475   -2.9229029709    2.6008710517
H       -1.1475245050    1.0195965217    3.5555309515
H       -1.7950491079    0.2198170644    2.1215008652
H       -1.3495922709   -1.4476933155    3.8175713915
29   
torsion grid (-30,)
C        3.0383592766   -3.6594552375    5.7231802937
C        1.6833470065   -3.9874870556    5.6044975411
C        3.4652825055   -2.3708752686    5.3826751675
C        0.7609669208   -3.0419136617    5.1476440530
C        2.5518761209   -1.4235187464    4.9135889394
C        1.1975587070   -1.7582792287    4.7889750031
C        0.7937305471   -0.0729034098    0.8422533315
C        1.0793506597   -1.4598505519    1.4367529119
C        0.3443845549    0.9171807305    1.9263062923
C       -0.1225877651   -1.9885322283    2.2341047207
C       -0.8704881133    0.3857733958    2.6990167041
C       -0.6068069188   -0.9967343467    3.2978586513
O        0.3325539649   -0.7712723519    4.3887712317
H        3.7512761487   -4.3968167938    6.0818264407
H        1.3384041654   -4.9816253654    5.8780769234
H        4.5146217219   -2.1024459484    5.4767218182
H       -0.2941602050   -3.2911763194    5.0781070917
H        2.8673947427   -0.4201065572    4.6416677103
H        0.0041439217   -0.1604420214    0.0822408755
H        1.6835016517    0.3072109601    0.3267198871
H        1.3309903679   -2.1706205209    0.6410695001
H        1.9550339254   -1.4046570093    2.0935308311
H        1.1666603984    1.0863604372    2.6312806763
H        0.1034035901    1.8888670918    1.4799000072
H       -0.9701712724   -2.1514170516    1.5549738143
H        0.1086615501   -2.9590513914    2.6788241021
H       -1.1499293346    1.0721184580    3.5051715458
H       -1.7352633479    0.3048569981    2.0273151342
H       -1.5344944239   -1.3815971824    3.7442003638
29   
torsion grid (-15,)
C        3.1066588305   -3.5554542754    5.5756157047
C        1.7795972769   -3.9859264515    5.4704302906
C        3.4192575872   -2.2187541372    5.3028782305
C        0.7723970793   -3.0940540513    5.0905456084
C        2.4201241968   -1.3247359698    4.9102944665
C        1.0943054473   -1.7621942070    4.7928425292
C        0.8861095196   -0.1651710839    0.9141228334
C        1.0202444901   -1.5761026711    1.5054347031
C        0.4762673001    0.8523793805    1.9882889126
C       -0.2539054582   -1.9984726224    2.2535513593
C       -0.8215530215    0.4292811384    2.6884380643
C       -0.7164565670   -0.9723276732    3.2939640108
O        0.1353044592   -0.8340567320    4.4728457708
H        3.8860367941   -4.2508572482    5.8750483544
H        1.5229397273   -5.0179536558    5.6966697955
H        4.4455125724   -1.8707986796    5.3910494676
H       -0.2628004731   -3.4194975897    5.0386976227
H        2.6472140696   -0.2850671806    4.6918640142
H        0.1274220047   -0.1747134260    0.1185335479
H        1.8291732289    0.1369930692    0.4438024874
H        1.2322030067   -2.3022551725    0.7119631868
H        1.8743958334   -1.6060462550    2.1902436263
H        1.2733256469    0.9380033896    2.7364628289
H        0.3512896392    1.8468120022    1.5444680076
H       -1.0805139837   -2.0906154558    1.5362343066
H       -0.1259870158   -2.9856776243    2.7032457090
H       -1.0854258033    1.1355080644    3.4824126860
H       -1.6500783278    0.4275644732    1.9673571334
H       -1.7023275061   -1.2781112065    3.6684008199
29   
torsion grid (0,)
C        3.1518762684   -3.4339546233    5.4672496563
C        1.8602816874   -3.9596807757    5.3545409225
C        3.3565576819   -2.0642890388    5.2651080546
C        0.7823378739   -3.1295576542    5.0330829144
C        2.2856685165   -1.2314729987    4.9314640099
C        0.9961996629   -1.7638040119    4.7993020611
C        0.9584964909   -0.2573134136    0.9654241235
C        0.9569591528   -1.6776924313    1.5483647815
C        0.6058250022    0.7835275441    2.0372140219
C       -0.3683671811   -1.9965451965    2.2583488317
C       -0.7455104305    0.4709408003    2.6920716149
C       -0.7988026317   -0.9409623468    3.2834823125
O       -0.0442009009   -0.9061525109    4.5367058681
H        3.9866730949   -4.0815107989    5.7213048126
H        1.6868819365   -5.0185701079    5.5301081453
H        4.3536839146   -1.6423943847    5.3641683211
H       -0.2264249592   -3.5285253789    4.9783867779
H        2.4303319658   -0.1669628906    4.7717157704
H        0.2240426278   -0.1963976552    0.1496361469
H        1.9366360093   -0.0332978513    0.5240519795
H        1.1260647735   -2.4142715367    0.7541557843
H        1.7884911905   -1.7835608587    2.2523655804
H        1.3862375788    0.7961096963    2.8072199296
H        0.5810271564    1.7883256615    1.5997696306
H       -1.1744510419   -2.0299572988    1.5130175925
H       -0.3312088953   -2.9899146639    2.7118338795
H       -0.9701362139    1.1888948504    3.4875110201
H       -1.5459732894    0.5566802546    1.9442423521
H       -1.8300154978   -1.1591550930    3.5863014262
29   
torsion grid (15,)
C        3.1908726222   -3.3079962402    5.3755064069
C        1.9463048683   -3.9261268885    5.2138277832
C        3.2837174577   -1.9148060151    5.2807812127
C        0.8060611536   -3.1637448434    4.9438270370
C        2.1497991261   -1.1486644862    5.0001012474
C        0.9095249133   -1.7722301346    4.8077466653
C        1.0046668823   -0.3643239843    1.0140533388
C        0.8658565042   -1.7825872188    1.5853839028
C        0.7303534218    0.6956575223    2.0899075282
C       -0.4995932851   -1.9851160179    2.2618897449
C       -0.6539882315    0.5012921451    2.7224513445
C       -0.8668256414   -0.9075593599    3.2896183103
O       -0.2020186836   -0.9925728689    4.5906101378
H        4.0747952242   -3.9032277885    5.5880346659
H        1.8583551044   -5.0054961817    5.3105928874
H        4.2420327967   -1.4219662655    5.4251400129
H       -0.1668873279   -3.6369174539    4.8525985757
H        2.2081611888   -0.0666052320    4.9309307788
H        0.2918146343   -0.2317471645    0.1876164147
H        2.0059809377   -0.2259493033    0.5900120551
H        0.9836900140   -2.5255706835    0.7877834352
H        1.6712757277   -1.9666768597    2.3028224179
H        1.5012797038    0.6337338363    2.8657615729
H        0.8000623724    1.7018026665    1.6602076852
H       -1.2827861654   -1.9360975423    1.4932274942
H       -0.5697629926   -2.9826375956    2.7031126508
H       -0.8260728402    1.2272315673    3.5237237874
H       -1.4268639758    0.6748886444    1.9604506603
H       -1.9261906167   -1.0242082718    3.5425643435
29   
torsion grid (30,)
C        3.2401866233   -3.1723019440    5.3302273863
C        2.0508835819   -3.8761693017    5.1118006098
C        3.2234669139   -1.7730106148    5.3231326076
C        0.8572096957   -3.1906893938    4.8687641415
C        2.0347985944   -1.0827352751    5.0728669555
C        0.8522533523   -1.7899514749    4.8183406714
C        1.0224590669   -0.4505947725    1.0254424507
C        0.7804446337   -1.8598915798    1.5827856716
C        0.8559957498    0.6088467541    2.1231002871
C       -0.5984737110   -1.9644831310    2.2543371435
C       -0.5288953819    0.5196490701    2.7805628463
C       -0.8930028190   -0.8796247387    3.2994217859
O       -0.3227698791   -1.0986623157    4.6274120221
H        4.1662514039   -3.7080156118    5.5205445251
H        2.0485384835   -4.9630260123    5.1407188557
H        4.1372908097   -1.2163326055    5.5158813675
H       -0.0736744069   -3.7310101727    4.7271938097
H        2.0059763653    0.0026728740    5.0798419776
H        0.3072720789   -0.2494889174    0.2149178832
H        2.0238885865   -0.3861124455    0.5844430001
H        0.8423087926   -2.6020309007    0.7780217597
H        1.5709498850   -2.1089740720    2.2970259392
H        1.6385401651    0.4704792214    2.8759417931
H        0.9967207854    1.6136024723    1.7073517251
H       -1.3690060352   -1.8476203336    1.4800497020
H       -0.7508811899   -2.9579194455    2.6856800986
H       -0.6188374961    1.2291939792    3.6097432467
H       -1.2899522412    0.8003118033    2.0386806158
H       -1.9665265351   -0.8940713388    3.5112808053
29   
torsion grid (45,)
C        3.2856858388   -3.0279387694    5.3227801536
C        2.1674884876   -3.8116828073    5.0174755843
C        3.1514009056   -1.6370629604    5.3982668896
C        0.9289435740   -3.2125472860    4.7711984333
C        1.9164753781   -1.0325217631    5.1487600979
C        0.8068356525   -1.8171919890    4.8091162518
C        1.0223751983   -0.5434122504    1.0029328021
C        0.6685319156   -1.9403244790    1.5290970343
C        0.9869125955    0.4875821431    2.1382070898
C       -0.7072149521   -1.9435722802    2.2150424936
C       -0.3837136886    0.5080064957    2.8331083170
C       -0.9044494748   -0.8651524694    3.2916502315
O       -0.4216134362   -1.2219250342    4.6209343547
H        4.2469741275   -3.4966859190    5.5152983250
H        2.2564193911   -4.8945449335    4.9782958240
H        4.0085563648   -1.0204325676    5.6573956954
H        0.0527108471   -3.8156065527    4.5541995357
H        1.7959048733    0.0442116569    5.2222043471
H        0.3052994725   -0.2527003381    0.2216959800
H        2.0125245491   -0.5559135940    0.5330012326
H        0.6584934687   -2.6653411489    0.7064796038
H        1.4436829223   -2.2712344970    2.2269506454
H        1.7749902587    0.2488793737    2.8588407554
H        1.2089329313    1.4892795963    1.7511452527
H       -1.4717795886   -1.7518042710    1.4497513616
H       -0.9375115217   -2.9278415515    2.6345618971
H       -0.3802391029    1.1817234699    3.6966890823
H       -1.1234781351    0.9092669834    2.1260791869
H       -1.9772921199   -0.7686526719    3.4808028652
29   
torsion grid (60,)
C        3.3305461831   -2.8752151699    5.3589826221
C        2.3052521356   -3.7218417228    4.9229947567
C        3.0683347707   -1.5126823531    5.5404652892
C        1.0324208332   -3.2103750970    4.6550715722
C        1.7976355691   -0.9956566033    5.2732282266
C        0.7821974459   -1.8406914659    4.8080121300
C        0.9996313954   -0.6362968628    0.9857297421
C        0.5064113049   -2.0097603968    1.4582204365
C        1.1088688654    0.3338228074    2.1688317957
C       -0.8467659310   -1.8969177429    2.1794100100
C       -0.2355853701    0.4741949583    2.9012491166
C       -0.9100960865   -0.8489573610    3.3035554667
O       -0.4882311758   -1.3445317529    4.6059085001
H        4.3191173406   -3.2750922390    5.5680330741
H        2.4939138003   -4.7850164063    4.7962413044
H        3.8531547185   -0.8499851996    5.8967017350
H        0.2265123137   -3.8613597557    4.3297001925
H        1.5793343366    0.0573864514    5.4245344766
H        0.3000811955   -0.2306349008    0.2406019778
H        1.9703321498   -0.7344351358    0.4863145079
H        0.4012826143   -2.6906919650    0.6049832226
H        1.2564450285   -2.4520036565    2.1208277071
H        1.8814677638   -0.0266873206    2.8545878699
H        1.4329157342    1.3226407716    1.8225678438
H       -1.6037143070   -1.6020284567    1.4395772419
H       -1.1678104384   -2.8656882278    2.5766766674
H       -0.1399777310    1.1042720076    3.7920825549
H       -0.9369984827    0.9904864463    2.2310845547
H       -1.9637081083   -0.6371221044    3.5055295095
29   
torsion grid (75,)
C        3.3791504427   -2.7113109713    5.4138312592
C        2.4657564131   -3.5963179489    4.8301758158
C        2.9769384003   -1.4050190706    5.7134312407
C        1.1670661861   -3.1755701709    4.5308674899
C        1.6786608300   -0.9798172728    5.4179646604
C        0.7771458231   -1.8580217430    4.8027979609
C        0.9638022578   -0.7388994247    0.9485506752
C        0.3186183791   -2.0649663995    1.3706756051
C        1.2160918793    0.1524030904    2.1713874530
C       -0.9936575628   -1.8285235414    2.1358371066
C       -0.0859594715    0.4179219552    2.9445016963
C       -0.9029252172   -0.8334738974    3.3061568446
O       -0.5216563425   -1.4615602376    4.5640465038
H        4.3885617792   -3.0402027829    5.6457770848
H        2.7622295746   -4.6193196306    4.6119513869
H        3.6731020466   -0.7156008569    6.1846857848
H        0.4452460330   -3.8584646321    4.0926347259
H        1.3532191324    0.0269690513    5.6615028703
H        0.3014941520   -0.2163255725    0.2432782958
H        1.9039372324   -0.9273498872    0.4175261693
H        0.1138579362   -2.6868843227    0.4909404481
H        1.0267217950   -2.6227273699    1.9909196411
H        1.9541014824   -0.3280252007    2.8210227504
H        1.6489531585    1.1109844615    1.8610013905
H       -1.7315028389   -1.4191430000    1.4317432501
H       -1.4115761697   -2.7694301514    2.5097736456
H        0.1035699439    0.9982621227    3.8533973861
H       -0.7371370030    1.0393549882    2.3144887252
H       -1.9199182583   -0.5110456562    3.5460082148
29   
torsion grid (90,)
C       -0.4488449781    1.4513172660    6.8756773032
C        0.7679663690    0.8833857079    6.4817690680
C       -1.6484529975    0.9033335058    6.4083392952
C        0.7881569605   -0.2072756943    5.6085270184
C       -1.6341046711   -0.1912625857    5.5392792305
C       -0.4130462290   -0.7314850070    5.1136354298
C        0.4616575084    0.7862393847    1.4929238261
C        1.4715856224   -0.1694204320    2.1415130240
C       -0.8754738322    0.7576473878    2.2449151069
C        0.9229608884   -1.6030465653    2.2066111573
C       -1.4434096834   -0.6692104708    2.3146447327
C       -0.4698955900   -1.7321726901    2.8448398854
O       -0.3878191616   -1.8413739935    4.2980597673
H       -0.4625879668    2.3012785487    7.5525793112
H        1.7046287169    1.2869257540    6.8584987346
H       -2.5994942052    1.3225371928    6.7275083826
H        1.7250843319   -0.6677588356    5.3095904080
H       -2.5611616607   -0.6365278431    5.1918529747
H        0.3002441940    0.4913456760    0.4460296220
H        0.8627651979    1.8061449220    1.4744357193
H        2.4131411931   -0.1681462679    1.5795098054
H        1.7075708158    0.1916870844    3.1473260749
H       -0.7336430074    1.1609600343    3.2521359991
H       -1.6049817061    1.4082516327    1.7480330879
H        0.8437903050   -1.9919774307    1.1815564863
H        1.6104733152   -2.2665639986    2.7418431609
H       -2.3737145272   -0.6960938287    2.8899208870
H       -1.7062493958   -0.9839627680    1.2954462411
H       -0.8681675603   -2.7163797172    2.5814397184
29   
torsion grid (105,)
C       -0.6113218080    1.4520204454    6.9217586094
C        0.6535324751    1.0317883850    6.4952269622
C       -1.7490954864    0.7748055523    6.4698276930
C        0.7793012728   -0.0365903495    5.6038307460
C       -1.6286992372   -0.3011078566    5.5855750260
C       -0.3634007735   -0.6916276116    5.1253530124
C        0.5439520715    0.7501624151    1.4739096085
C        1.5072818956   -0.3064768742    2.0311554148
C       -0.7499113348    0.8041965884    2.2977584102
C        0.8448747934   -1.6897517448    2.0884461384
C       -1.4132666197   -0.5793965628    2.3909917942
C       -0.4842767981   -1.7087900890    2.8560963418
O       -0.2169340350   -1.7767751909    4.2925660426
H       -0.7081456403    2.2866216864    7.6108662461
H        1.5458576468    1.5360520133    6.8579712865
H       -2.7348339765    1.0764545639    6.8154442543
H        1.7558634607   -0.3786148722    5.2747681543
H       -2.5064768251   -0.8497632403    5.2583416179
H        0.3029948318    0.5049823498    0.4295864221
H        1.0247832296    1.7351393328    1.4625719056
H        2.4123342242   -0.3603295268    1.4147269789
H        1.8304525937   -0.0071763839    3.0337305632
H       -0.5280440051    1.1849822568    3.2992433529
H       -1.4577380488    1.5094056848    1.8463065761
H        0.6387896903   -2.0295004907    1.0635111411
H        1.5151108026   -2.4288436859    2.5394919771
H       -2.3111552240   -0.5393006505    3.0135491143
H       -1.7519483110   -0.8713837095    1.3875863565
H       -0.9819625445   -2.6640468614    2.6605113972
29   
torsion grid (120,)
C       -0.7426334124    1.4356243125    7.0166938023
C        0.5509073628    1.1657117042    6.5555787551
C       -1.8112092421    0.6559925703    6.5611492853
C        0.7718839383    0.1439634349    5.6289640673
C       -1.5949471467   -0.3761916614    5.6435044243
C       -0.3035165131   -0.6192150334    5.1544588650
C        0.6245795363    0.6931738454    1.4179957485
C        1.5295882693   -0.4363018837    1.9283197179
C       -0.6215518337    0.8444865616    2.3015858715
C        0.7641712619   -1.7619074588    2.0215508340
C       -1.3702815876   -0.4887602741    2.4572915260
C       -0.4892236068   -1.6646005985    2.8994653903
O       -0.0431708898   -1.6570035509    4.2929175112
H       -0.9138026928    2.2347977161    7.7327635885
H        1.3912281049    1.7539749564    6.9159861531
H       -2.8166350906    0.8416489531    6.9310398531
H        1.7708112571   -0.0766597292    5.2645243159
H       -2.4168216462   -1.0060384926    5.3163917739
H        0.3170462872    0.4700359172    0.3864016644
H        1.1778166521    1.6388872954    1.3830618661
H        2.3975400350   -0.5577004580    1.2698599380
H        1.9215280801   -0.1727452075    2.9172644669
H       -0.3269391150    1.2236445003    3.2849059657
H       -1.3028470478    1.5887689953    1.8727877648
H        0.4483405104   -2.0731666539    1.0159524486
H        1.4054241877   -2.5568129449    2.4162656896
H       -2.2300686156   -0.3708565617    3.1214594902
H       -1.7783366357   -0.7817714862    1.4804033911
H       -1.0685227803   -2.5898231444    2.8035180659
29   
torsion grid (135,)
C       -0.8826525829    1.3743690860    7.1295893703
C        0.4236372866    1.2613488487    6.6398214268
C       -1.8732726608    0.5120917298    6.6475824342
C        0.7340961401    0.3115149421    5.6637582966
C       -1.5674856609   -0.4498119541    5.6802988269
C       -0.2640099338   -0.5399107664    5.1714284829
C        0.6841944278    0.6292228091    1.2979702900
C        1.5344959541   -0.5500038776    1.7881269308
C       -0.4910669806    0.8934709317    2.2488419200
C        0.6824240108   -1.8116234120    1.9716718579
C       -1.3214241023   -0.3765920301    2.4900161683
C       -0.4918774780   -1.5899062157    2.9316917599
O        0.1007627560   -1.5029578872    4.2645054475
H       -1.1232680363    2.1181052503    7.8843321033
H        1.2041968657    1.9184846751    7.0152357049
H       -2.8871961459    0.5780541621    7.0345639789
H        1.7425360536    0.2144980735    5.2717211225
H       -2.3282186795   -1.1417426398    5.3303345412
H        0.2974991024    0.4023385383    0.2942085195
H        1.3007281193    1.5304353410    1.2003895499
H        2.3484007532   -0.7541526574    1.0828801840
H        2.0033408808   -0.2932054800    2.7453748425
H       -0.1114324381    1.2719083396    3.2035102840
H       -1.1420468203    1.6757238485    1.8412217765
H        0.2749152568   -2.1292143469    1.0021613113
H        1.2920633566   -2.6389053137    2.3501830796
H       -2.1297423840   -0.1735528958    3.1965365432
H       -1.8048783152   -0.6747730203    1.5498424485
H       -1.1360876249   -2.4778114466    2.9406275220
29   
torsion grid (150,)
C       -0.9886817308    1.2883996043    7.2694709104
C        0.3228566893    1.3212661396    6.7817680698
C       -1.8992242870    0.3727677270    6.7311245931
C        0.7172990492    0.4602911630    5.7549805426
C       -1.5091747797   -0.5007593118    5.7119531510
C       -0.2001503832   -0.4482438115    5.2114631528
C        0.7318412852    0.5518873817    1.1742909629
C        1.5390823404   -0.6614992789    1.6548828795
C       -0.3550653492    0.9278488177    2.1905937481
C        0.6259391595   -1.8528837743    1.9717814068
C       -1.2499448268   -0.2738635065    2.5269533315
C       -0.4569295042   -1.5015174554    2.9978310612
O        0.2592789125   -1.3149771280    4.2526107526
H       -1.2954814463    1.9634194076    8.0636691381
H        1.0411175940    2.0236105056    7.1975121198
H       -2.9165636940    0.3288162473    7.1122638803
H        1.7300844370    0.4756106198    5.3621003487
H       -2.2099858331   -1.2290085974    5.3137780146
H        0.2610616209    0.3154924342    0.2094073673
H        1.3968441601    1.4055424512    0.9981731674
H        2.2754369997   -0.9550479139    0.8978186165
H        2.1006190162   -0.3945901582    2.5575718732
H        0.1135661146    1.3019622374    3.1075070006
H       -0.9753755308    1.7442503466    1.8029197343
H        0.1260793132   -2.1951473070    1.0559186463
H        1.2123952894   -2.6965323131    2.3514860050
H       -2.0112572099    0.0103496068    3.2571805281
H       -1.7909839875   -0.5889492916    1.6244660768
H       -1.1400239579   -2.3511475293    3.1289630987
29   
torsion grid (165,)
C       -1.0775092596    1.1665756323    7.4210633099
C        0.2273483757    1.3325259488    6.9423660054
C       -1.9188148925    0.2336682665    6.8059886811
C        0.6827195680    0.5843167045    5.8547017788
C       -1.4690235410   -0.5276176105    5.7231035953
C       -0.1649183119   -0.3464270645    5.2395133258
C        0.7462408556    0.4605748346    1.0070590181
C        1.5225201102   -0.7556064900    1.5294551285
C       -0.2569481953    0.9666329262    2.0526682212
C        0.5745029056   -1.8699423149    1.9933747537
C       -1.1960059992   -0.1549043666    2.5184143082
C       -0.4314311281   -1.3805818701    3.0392945026
O        0.3664085078   -1.0905777875    4.2174678518
H       -1.4326618984    1.7539136606    8.2632864605
H        0.8928009521    2.0520046171    7.4130344620
H       -2.9316702232    0.0894011303    7.1740318592
H        1.6911839740    0.7036304951    5.4686290966
H       -2.1241059213   -1.2610865182    5.2625855272
H        0.2039084712    0.1798734350    0.0928143910
H        1.4396146402    1.2621059874    0.7264747089
H        2.1922359064   -1.1438433518    0.7533275051
H        2.1534735102   -0.4526167825    2.3725536896
H        0.2833656288    1.3676822318    2.9182871684
H       -0.8504213340    1.7925802247    1.6439418277
H        0.0080985990   -2.2605207316    1.1379086378
H        1.1423599946   -2.7077430737    2.4123856887
H       -1.8887576368    0.2206983432    3.2759449242
H       -1.8119920575   -0.4972715733    1.6761084482
H       -1.1367682428   -2.1859922782    3.2844878881
29   
torsion grid (180,)
C       -1.0996510015    1.0180788111    7.6008739831
C        0.2174772512    1.2334779309    7.1755431957
C       -1.9268025172    0.1763593060    6.8528914779
C        0.6968624825    0.6225546024    6.0170055303
C       -1.4559540084   -0.4467008430    5.6917279558
C       -0.1376227327   -0.2212035348    5.2680933815
C        0.7090120926    0.3564174492    0.8231329747
C        1.5048152133   -0.8041565643    1.4365280311
C       -0.2512174609    0.9736432191    1.8496618670
C        0.5744624345   -1.8577673075    2.0542331129
C       -1.1807358459   -0.0867966119    2.4563066389
C       -0.3940891363   -1.2522298883    3.0733573260
O        0.4351563225   -0.8160976994    4.1755507391
H       -1.4734139000    1.4987251192    8.5006147699
H        0.8744100906    1.8848095935    7.7466954956
H       -2.9502451691   -0.0043824957    7.1724237814
H        1.7152968958    0.7814570259    5.6737800449
H       -2.1126977677   -1.1049389617    5.1331905537
H        0.1308091951   -0.0126982792   -0.0360662779
H        1.3925849527    1.1209925197    0.4357915700
H        2.1400039131   -1.2753144856    0.6775009615
H        2.1718638546   -0.4178373359    2.2153414923
H        0.3257306863    1.4464389695    2.6534699592
H       -0.8511653441    1.7645094466    1.3850776565
H       -0.0234071627   -2.3348729103    1.2669801555
H        1.1555573226   -2.6478960455    2.5417251048
H       -1.8417027667    0.3677024396    3.1995610672
H       -1.8279362428   -0.5065638394    1.6745285674
H       -1.0806849357   -2.0308598216    3.4304812077
