32
0 1 C14H11N3O4
C                    -0.359032333236    -0.455833455650     1.044017793595
C                    -1.258121316084    -1.456711468882     1.386002852326
C                     0.269378288812    -0.170031395381     3.350221603390
C                    -2.448920162375    -3.183638363756     4.312214648578
C                    -0.633927289178    -1.181331754864     3.729158688692
C                    -1.775177611617    -2.646028290892     5.365531355790
C                     0.421466618506     0.205983351109     2.020268470954
C                    -0.791229390258    -1.576146871165     5.142285974189
C                    -1.388529043786    -1.812755247362     2.732796980699
C                    -2.914734164807    -4.692145909689    10.609855295906
C                    -3.912848057921    -5.410817124372     8.616652482409
C                    -1.992918491873    -3.097706842880     6.740621986646
C                    -2.312680272090    -3.876181792335     9.464882174747
C                     1.390292886681     1.289633437972     1.609086766085
N                    -2.843226278992    -4.029129278273     7.001335903527
N                    -3.823580524532    -5.546155206729    10.019538950605
N                    -3.003079273524    -4.407284509538     8.294052068631
O                    -0.151604375968    -1.053753124950     6.062524529698
O                    -2.645214257589    -4.602811662930    11.790975850853
O                    -4.636531057048    -6.047960429838     7.884200852857
O                    -2.291635608811    -2.810153597635     3.028165284329
H                    -0.253716140948    -0.174912155548    -0.001526046532
H                    -1.858491112911    -1.966179596051     0.638386649657
H                     0.843796499672     0.305691048146     4.140085991617
H                    -3.184259157417    -3.973947668306     4.418979352353
H                    -1.387732150533    -2.587325705102     7.492345218316
H                    -2.508569790160    -2.808831496000     9.615711549523
H                    -1.229346458571    -4.032374335807     9.416409013073
H                     0.872777122452     2.107137561553     1.095024401750
H                     1.907330211211     1.710371040786     2.474895307312
H                     2.148233431983     0.900031637964     0.920382639880
H                    -4.387996545262    -6.218497596922    10.525574157039
