37
0 1 C12H20N4O
C                     3.206760820186     1.266247123202     3.156395770607
C                     3.447879839425     0.160707314096     3.955451183800
C                     1.285986502098     0.298988187965     2.349908058198
C                     1.444190776237    -0.762906000281     3.313907986790
C                     0.098018896762     1.487985767948     0.560942279265
C                    -0.188754219564    -0.915996771533     0.737646662774
C                    -0.893713881206     1.015869233186    -0.501738520321
C                    -0.488779007475    -0.464346424690    -0.703308057234
C                    -0.938486437854     1.892373964578    -1.750926113274
C                     0.736203787024    -0.645758225788    -1.605099130047
C                    -0.865504830550    -1.230035383798     3.882843006270
C                     0.845309163312    -2.919693518373     4.245897689569
N                     2.136422413603     1.327757047012     2.342250197196
N                     2.545484843120    -0.836770582095     4.052444376375
N                     0.251767578164     0.311774691614     1.431328504994
N                     0.448917654559    -1.742613908776     3.475956145978
O                    -1.576706195602    -1.269698364052    -1.179480444268
H                     3.887927499663     2.114523721808     3.137103361242
H                     4.347935671371     0.074876432142     4.559864936996
H                     1.057085798354     1.780846411903     0.115180214248
H                    -0.260185591645     2.346095770320     1.137666676159
H                    -1.102234176656    -1.327598944737     1.177428824222
H                     0.578244246761    -1.691426639522     0.773481056492
H                    -1.895490368549     0.984832391810    -0.055715052346
H                     0.050202020664     2.006815727904    -2.206189787946
H                    -1.306824558718     2.894249699106    -1.506384047747
H                    -1.615716277014     1.475861873542    -2.506174554184
H                     0.537478006107    -0.302977649664    -2.626862984602
H                     1.005454163121    -1.705157682158    -1.647031290974
H                     1.598999034460    -0.088179624420    -1.228084609053
H                    -1.621573506721    -2.003886059988     3.719037550109
H                    -1.132059154594    -0.351723538689     3.293444931599
H                    -0.876117897560    -0.950454981705     4.948846483103
H                     0.056193417961    -3.671662764528     4.148053220199
H                     0.999543793439    -2.698733923025     5.312296567614
H                     1.777356244777    -3.326007348540     3.849781691639
H                    -1.691705849294    -1.088240180572    -2.125587155666
