
  -OEChem-05262117483D

 21 22  0     0  0  0  0  0  0999 V2000
    1.9818   -4.9643   -2.8230 C   0  0  0  0  0  0  0  0  0  0  0  0
    2.0724   -3.5467   -2.9386 C   0  0  0  0  0  0  0  0  0  0  0  0
    1.1971   -5.2000   -1.7227 C   0  0  0  0  0  0  0  0  0  0  0  0
    1.3340   -3.0109   -1.8973 C   0  0  0  0  0  0  0  0  0  0  0  0
   -0.8630   -0.8853    1.2153 C   0  0  0  0  0  0  0  0  0  0  0  0
    0.3716   -1.1309   -0.5263 C   0  0  0  0  0  0  0  0  0  0  0  0
    0.2332    0.3422   -0.3191 C   0  0  0  0  0  0  0  0  0  0  0  0
    1.0976   -1.6473   -1.5533 C   0  0  0  0  0  0  0  0  0  0  0  0
   -1.0145    1.6508    1.4488 C   0  0  0  0  0  0  0  0  0  0  0  0
   -0.3414   -1.8160    0.4725 N   0  0  0  0  0  0  0  0  0  0  0  0
   -0.5782    0.4154    0.8250 N   0  0  0  0  0  0  0  0  0  0  0  0
    0.6823    1.2968   -0.9440 O   0  0  0  0  0  0  0  0  0  0  0  0
    0.7975   -4.0347   -1.1521 O   0  0  0  0  0  0  0  0  0  0  0  0
    2.4325   -5.7118   -3.4621 H   0  0  0  0  0  0  0  0  0  0  0  0
    2.6089   -2.9786   -3.6875 H   0  0  0  0  0  0  0  0  0  0  0  0
    0.8487   -6.1030   -1.2409 H   0  0  0  0  0  0  0  0  0  0  0  0
   -1.4827   -1.0772    2.0869 H   0  0  0  0  0  0  0  0  0  0  0  0
    1.5676   -0.9176   -2.2092 H   0  0  0  0  0  0  0  0  0  0  0  0
   -0.6556    1.7184    2.4808 H   0  0  0  0  0  0  0  0  0  0  0  0
   -2.1061    1.7329    1.4386 H   0  0  0  0  0  0  0  0  0  0  0  0
   -0.5907    2.4739    0.8702 H   0  0  0  0  0  0  0  0  0  0  0  0
  1  2  1  0  0  0  0
  1  3  2  0  0  0  0
  1 14  1  0  0  0  0
  2  4  2  0  0  0  0
  2 15  1  0  0  0  0
  3 13  1  0  0  0  0
  3 16  1  0  0  0  0
  4  8  1  0  0  0  0
  4 13  1  0  0  0  0
  5 10  2  0  0  0  0
  5 11  1  0  0  0  0
  5 17  1  0  0  0  0
  6  7  1  0  0  0  0
  6  8  2  0  0  0  0
  6 10  1  0  0  0  0
  7 11  1  0  0  0  0
  7 12  2  0  0  0  0
  8 18  1  0  0  0  0
  9 11  1  0  0  0  0
  9 19  1  0  0  0  0
  9 20  1  0  0  0  0
  9 21  1  0  0  0  0
M  END
$$$$
