24
0 1 C6H14N2OS
C                     0.598194042391    -2.704474183401     1.687148289400
C                     0.824785898339    -0.633032699228     0.373930169288
C                    -1.118926632550     0.294926774040     5.293779974374
C                    -0.873198823771    -2.703814548133     3.796470474398
C                     0.222294397236    -2.081874562139     4.663120375639
C                    -0.299111581507    -3.535868160991     2.626516257110
N                     0.473715840587    -4.667101841471     3.144324418207
N                     0.064382377087    -1.536072265126     1.230029023088
O                     1.715034716586    -3.091466859297     1.339710250017
S                    -0.400766243212    -1.167542534485     6.118877023621
H                     1.583146097044    -0.079780830655     0.940189113155
H                     0.137978449092     0.075439217397    -0.094550335942
H                     1.332258863379    -1.209792381659    -0.401356847314
H                    -1.421786445033     0.990251632123     6.080497673818
H                    -2.000810699002     0.041903087931     4.698390200775
H                    -0.374218570868     0.787675605448     4.660724705738
H                    -1.482251905324    -3.369317418130     4.416296561481
H                    -1.556390468639    -1.930983146627     3.421229273863
H                     0.860533173613    -1.409943628395     4.078640590383
H                     0.859932620980    -2.876702611434     5.057245174977
H                    -1.148846174455    -3.866184333050     2.007746201361
H                     1.305247250790    -4.782947469602     2.564847241462
H                    -0.070243617957    -5.523234747824     3.095579296488
H                    -0.811039419603    -1.216124674915     1.618427183071
