
  -OEChem-05262117483D

 24 23  0     1  0  0  0  0  0999 V2000
    0.6005   -3.1172    2.2365 C   0  0  0  0  0  0  0  0  0  0  0  0
    1.7856   -3.3214    0.0771 C   0  0  0  0  0  0  0  0  0  0  0  0
   -4.1908   -2.6977    3.6103 C   0  0  0  0  0  0  0  0  0  0  0  0
   -0.9569   -2.7121    4.1710 C   0  0  0  0  0  0  0  0  0  0  0  0
   -1.9416   -3.2778    5.1971 C   0  0  0  0  0  0  0  0  0  0  0  0
   -0.5250   -3.7134    3.0986 C   0  0  2  0  0  0  0  0  0  0  0  0
   -0.0333   -4.9596    3.7229 N   0  0  0  0  0  0  0  0  0  0  0  0
    0.7882   -3.7674    1.0423 N   0  0  0  0  0  0  0  0  0  0  0  0
    1.3042   -2.1746    2.5878 O   0  0  0  0  0  0  0  0  0  0  0  0
   -3.4375   -4.0948    4.5121 S   0  0  0  0  0  0  0  0  0  0  0  0
    1.4280   -2.4746   -0.5216 H   0  0  0  0  0  0  0  0  0  0  0  0
    2.0415   -4.1498   -0.5883 H   0  0  0  0  0  0  0  0  0  0  0  0
    2.6785   -3.0038    0.6171 H   0  0  0  0  0  0  0  0  0  0  0  0
   -5.1620   -3.0395    3.2444 H   0  0  0  0  0  0  0  0  0  0  0  0
   -3.5828   -2.3863    2.7570 H   0  0  0  0  0  0  0  0  0  0  0  0
   -4.3469   -1.8455    4.2782 H   0  0  0  0  0  0  0  0  0  0  0  0
   -1.3817   -1.8298    3.6802 H   0  0  0  0  0  0  0  0  0  0  0  0
   -0.0626   -2.3728    4.7019 H   0  0  0  0  0  0  0  0  0  0  0  0
   -2.2628   -2.4873    5.8832 H   0  0  0  0  0  0  0  0  0  0  0  0
   -1.4578   -4.0513    5.7999 H   0  0  0  0  0  0  0  0  0  0  0  0
   -1.3851   -3.9082    2.4357 H   0  0  0  0  0  0  0  0  0  0  0  0
    0.4912   -5.5075    3.0435 H   0  0  0  0  0  0  0  0  0  0  0  0
   -0.8358   -5.5261    3.9946 H   0  0  0  0  0  0  0  0  0  0  0  0
    0.0621   -4.3967    0.7260 H   0  0  0  0  0  0  0  0  0  0  0  0
  1  6  1  0  0  0  0
  1  8  1  0  0  0  0
  1  9  2  0  0  0  0
  2  8  1  0  0  0  0
  2 11  1  0  0  0  0
  2 12  1  0  0  0  0
  2 13  1  0  0  0  0
  3 10  1  0  0  0  0
  3 14  1  0  0  0  0
  3 15  1  0  0  0  0
  3 16  1  0  0  0  0
  4  5  1  0  0  0  0
  4  6  1  0  0  0  0
  4 17  1  0  0  0  0
  4 18  1  0  0  0  0
  5 10  1  0  0  0  0
  5 19  1  0  0  0  0
  5 20  1  0  0  0  0
  6  7  1  0  0  0  0
  6 21  1  0  0  0  0
  7 22  1  0  0  0  0
  7 23  1  0  0  0  0
  8 24  1  0  0  0  0
M  END
$$$$
