
  -OEChem-05262117483D

 22 22  0     0  0  0  0  0  0999 V2000
    1.9797   -0.8862    0.0726 C   0  0  0  0  0  0  0  0  0  0  0  0
    0.8630   -0.3223    0.6942 C   0  0  0  0  0  0  0  0  0  0  0  0
    2.9332   -1.5762    0.8215 C   0  0  0  0  0  0  0  0  0  0  0  0
    1.6466   -1.1270    2.8349 C   0  0  0  0  0  0  0  0  0  0  0  0
    0.6801   -0.4407    2.0785 C   0  0  0  0  0  0  0  0  0  0  0  0
    2.7657   -1.6926    2.2061 C   0  0  0  0  0  0  0  0  0  0  0  0
    1.5290   -1.2196    4.3275 C   0  0  0  0  0  0  0  0  0  0  0  0
   -0.5305    0.1726    2.7446 C   0  0  0  0  0  0  0  0  0  0  0  0
    0.2821   -2.1222    6.1191 C   0  0  0  0  0  0  0  0  0  0  0  0
    2.2518   -0.6498    5.1201 O   0  0  0  0  0  0  0  0  0  0  0  0
    3.6558   -2.3742    2.9956 O   0  0  0  0  0  0  0  0  0  0  0  0
    0.4894   -2.0076    4.6954 O   0  0  0  0  0  0  0  0  0  0  0  0
    2.1101   -0.7897   -1.0020 H   0  0  0  0  0  0  0  0  0  0  0  0
    0.1283    0.2168    0.1025 H   0  0  0  0  0  0  0  0  0  0  0  0
    3.8005   -2.0220    0.3375 H   0  0  0  0  0  0  0  0  0  0  0  0
   -1.2024   -0.6032    3.1248 H   0  0  0  0  0  0  0  0  0  0  0  0
   -0.2441    0.7999    3.5955 H   0  0  0  0  0  0  0  0  0  0  0  0
   -1.0878    0.7949    2.0402 H   0  0  0  0  0  0  0  0  0  0  0  0
   -0.5781   -2.7814    6.2350 H   0  0  0  0  0  0  0  0  0  0  0  0
    0.0789   -1.1409    6.5549 H   0  0  0  0  0  0  0  0  0  0  0  0
    1.1656   -2.5510    6.5975 H   0  0  0  0  0  0  0  0  0  0  0  0
    4.3868   -2.6955    2.4447 H   0  0  0  0  0  0  0  0  0  0  0  0
  1  2  1  0  0  0  0
  1  3  2  0  0  0  0
  1 13  1  0  0  0  0
  2  5  2  0  0  0  0
  2 14  1  0  0  0  0
  3  6  1  0  0  0  0
  3 15  1  0  0  0  0
  4  5  1  0  0  0  0
  4  6  2  0  0  0  0
  4  7  1  0  0  0  0
  5  8  1  0  0  0  0
  6 11  1  0  0  0  0
  7 10  2  0  0  0  0
  7 12  1  0  0  0  0
  8 16  1  0  0  0  0
  8 17  1  0  0  0  0
  8 18  1  0  0  0  0
  9 12  1  0  0  0  0
  9 19  1  0  0  0  0
  9 20  1  0  0  0  0
  9 21  1  0  0  0  0
 11 22  1  0  0  0  0
M  END
$$$$
