24
0 1 C6H14N2OS
C                     0.725151963313    -2.356010789088     1.682067389120
C                     3.078516411255    -1.622429794824     1.492189472333
C                    -4.393198182614    -3.093363996639     5.812348451995
C                    -0.994994377582    -2.401811664058     3.483646165079
C                    -2.206903949634    -3.110255015698     4.094690344679
C                    -0.236548674423    -3.269219997952     2.463651836782
N                     0.491948519670    -4.359129796125     3.139307130319
N                     2.026982412106    -2.450768673624     2.056894307400
O                     0.298301104274    -1.594306010491     0.812143754232
S                    -3.050779931723    -1.983916049788     5.268296350397
H                     3.907068209797    -2.240964631303     1.130695443755
H                     3.464798513284    -0.911052832898     2.231804769582
H                     2.655979097915    -1.064549059728     0.655538939379
H                    -4.998545801293    -2.539026187637     6.533640887781
H                    -3.995296608481    -3.987420102040     6.301824311772
H                    -5.029054597897    -3.386054224365     4.971681120048
H                    -1.329500939927    -1.497142131807     2.969002838250
H                    -0.300549170776    -2.096336477880     4.275088279283
H                    -1.916304696863    -4.014976454941     4.641811933396
H                    -2.910559268829    -3.400679296024     3.306319580297
H                    -0.957629677455    -3.632417807812     1.717985451047
H                     0.699903235809    -5.104736575340     2.477415265064
H                    -0.080750018717    -4.772230816153     3.871618437951
H                     2.218930105009    -3.108196220009     2.806688629928
