
  -OEChem-05262117483D

 24 23  0     1  0  0  0  0  0999 V2000
    0.5011   -2.7861    1.9362 C   0  0  0  0  0  0  0  0  0  0  0  0
    2.8014   -2.0161    1.4477 C   0  0  0  0  0  0  0  0  0  0  0  0
   -1.0470    0.2690    5.3653 C   0  0  0  0  0  0  0  0  0  0  0  0
   -0.8870   -2.8372    4.0379 C   0  0  0  0  0  0  0  0  0  0  0  0
   -1.8789   -1.7506    3.6153 C   0  0  0  0  0  0  0  0  0  0  0  0
   -0.3375   -3.6774    2.8666 C   0  0  2  0  0  0  0  0  0  0  0  0
    0.4796   -4.7781    3.4115 N   0  0  0  0  0  0  0  0  0  0  0  0
    1.8381   -2.8243    2.1757 N   0  0  0  0  0  0  0  0  0  0  0  0
   -0.0343   -2.0753    1.0816 O   0  0  0  0  0  0  0  0  0  0  0  0
   -2.5138   -0.7638    5.0220 S   0  0  0  0  0  0  0  0  0  0  0  0
    3.5626   -2.6469    0.9755 H   0  0  0  0  0  0  0  0  0  0  0  0
    3.2991   -1.3001    2.1121 H   0  0  0  0  0  0  0  0  0  0  0  0
    2.2640   -1.4659    0.6742 H   0  0  0  0  0  0  0  0  0  0  0  0
   -1.3359    0.9880    6.1357 H   0  0  0  0  0  0  0  0  0  0  0  0
   -0.7425    0.8162    4.4684 H   0  0  0  0  0  0  0  0  0  0  0  0
   -0.2066   -0.3224    5.7385 H   0  0  0  0  0  0  0  0  0  0  0  0
   -0.0403   -2.3981    4.5766 H   0  0  0  0  0  0  0  0  0  0  0  0
   -1.3907   -3.5124    4.7409 H   0  0  0  0  0  0  0  0  0  0  0  0
   -2.7640   -2.2020    3.1565 H   0  0  0  0  0  0  0  0  0  0  0  0
   -1.4453   -1.0782    2.8724 H   0  0  0  0  0  0  0  0  0  0  0  0
   -1.1835   -4.0267    2.2588 H   0  0  0  0  0  0  0  0  0  0  0  0
    0.6085   -5.5002    2.7042 H   0  0  0  0  0  0  0  0  0  0  0  0
   -0.0051   -5.2165    4.1927 H   0  0  0  0  0  0  0  0  0  0  0  0
    2.1353   -3.4750    2.8965 H   0  0  0  0  0  0  0  0  0  0  0  0
  1  6  1  0  0  0  0
  1  8  1  0  0  0  0
  1  9  2  0  0  0  0
  2  8  1  0  0  0  0
  2 11  1  0  0  0  0
  2 12  1  0  0  0  0
  2 13  1  0  0  0  0
  3 10  1  0  0  0  0
  3 14  1  0  0  0  0
  3 15  1  0  0  0  0
  3 16  1  0  0  0  0
  4  5  1  0  0  0  0
  4  6  1  0  0  0  0
  4 17  1  0  0  0  0
  4 18  1  0  0  0  0
  5 10  1  0  0  0  0
  5 19  1  0  0  0  0
  5 20  1  0  0  0  0
  6  7  1  0  0  0  0
  6 21  1  0  0  0  0
  7 22  1  0  0  0  0
  7 23  1  0  0  0  0
  8 24  1  0  0  0  0
M  END
$$$$
