24   
torsion grid (-165,)
C       -2.3375660528   -2.2523554970    1.5195073388
C       -4.0902771588    1.7907518737    2.3859682169
C       -4.6604918766   -0.5555912274    2.5370767467
C       -5.3386814514    2.1443968060    2.8885534151
C       -5.9116989340   -0.2136718138    3.0409395111
C       -3.7180975959    0.4407089043    2.1957593275
C       -6.2462223006    1.1332959304    3.2139374846
C       -2.3831034281    0.2059483340    1.6621614396
C       -0.3696258668   -1.0527433058    0.8011804163
C       -1.7355858147   -0.9573053681    1.3446768072
C        1.4631038385    1.8828873945    1.1475382461
N       -2.7738810032   -3.3272209069    1.6411130237
N        0.5973869764   -0.2022593764    0.7263210852
O        0.2867821548    1.0641746316    1.2158191794
Cl      -7.8214683222    1.5574751175    3.8464900193
H       -3.3833615328    2.5768240976    2.1327782434
H       -4.4279655193   -1.6050005749    2.4139495998
H       -5.6080311786    3.1863990316    3.0274544654
H       -6.6275598134   -0.9873399352    3.2996640376
H       -1.8122237591    1.1065202775    1.4785865656
H       -0.0802207088   -2.0309102331    0.4224530407
H        1.1632237008    2.8577124624    1.5369267950
H        1.8032134170    1.9763722177    0.1119297384
H        2.2600365585    1.4589163807    1.7655786287
24   
torsion grid (-150,)
C       -2.2844877214   -2.2454700376    1.5651333349
C       -4.1690092459    1.7883638854    2.2162756698
C       -4.6043864694   -0.5556674057    2.6276298961
C       -5.3930999564    2.1323565607    2.7820330340
C       -5.8301535865   -0.2232023781    3.1962444940
C       -3.7438784382    0.4444117877    2.1219647316
C       -6.2200099173    1.1179790492    3.2706828925
C       -2.4417661438    0.2143823984    1.5103383975
C       -0.4373549966   -1.0072452741    0.6072754390
C       -1.7708324136   -0.9438640228    1.2377010772
C        1.4836823180    1.7893877123    1.3523850357
N       -2.6492900968   -3.3260923346    1.8104616901
N        0.5489458494   -0.1778049952    0.6231293062
O        0.2772842414    1.0158390545    1.2890742188
Cl      -7.7627812690    1.5304568863    3.9861211431
H       -3.5244180754    2.5772837850    1.8369261554
H       -4.3264292647   -1.6005447116    2.5839136123
H       -5.7047098571    3.1698784234    2.8456834129
H       -6.4832140473   -0.9994843183    3.5820285428
H       -1.9253620163    1.1182317979    1.2103279757
H       -0.1868088536   -1.9393603526    0.1042947422
H        1.2117870195    2.7106747151    1.8711899639
H        1.8472883201    2.0139753049    0.3451210699
H        2.2536918365    1.2539175848    1.9158820402
24   
torsion grid (-135,)
C       -2.2014771510   -2.2074935466    1.6283612200
C       -4.2529631174    1.7843429588    2.0840461989
C       -4.5520683206   -0.5387187897    2.6908820139
C       -5.4514432475    2.1189528297    2.7079725864
C       -5.7516621279   -0.2159651690    3.3179171412
C       -3.7744815427    0.4561100730    2.0577616223
C       -6.1962064276    1.1102351511    3.3236159474
C       -2.5066687256    0.2287719924    1.3760301482
C       -0.5021181044   -0.9380210694    0.4388650507
C       -1.8013254571   -0.9149546345    1.1508456668
C        1.5006536949    1.6821595326    1.5166144161
N       -2.4740643154   -3.2811364178    1.9955453436
N        0.5031070922   -0.1406385327    0.5380603259
O        0.2749102507    0.9516454041    1.3735065065
Cl      -7.7053168074    1.5109778740    4.1139894469
H       -3.6718598822    2.5686787215    1.6055011237
H       -4.2288851499   -1.5716387877    2.7015673401
H       -5.8056200800    3.1446538819    2.7191224270
H       -6.3417374539   -0.9875447255    3.8020797013
H       -2.0534751790    1.1269907047    0.9691263429
H       -0.2962719912   -1.8048125679   -0.1869122617
H        1.2604038051    2.5272068147    2.1647104231
H        1.8514632128    2.0382926446    0.5431019974
H        2.2689423122    1.0581057548    1.9833440609
24   
torsion grid (-120,)
C       -2.0782030290   -2.1270422078    1.6999935125
C       -4.3445225704    1.7753474119    1.9517686449
C       -4.4865945213   -0.5083464485    2.7372227640
C       -5.5222505996    2.0964862672    2.6213688816
C       -5.6648762489   -0.1992913166    3.4101496302
C       -3.7992953660    0.4742526506    1.9916445150
C       -6.1772343322    1.1007601296    3.3495683675
C       -2.5601769354    0.2538759099    1.2547396869
C       -0.5399752838   -0.8445094717    0.2985602437
C       -1.8025917943   -0.8618579738    1.0871003874
C        1.5681612226    1.5506853841    1.6521357192
N       -2.2505313863   -3.1789028119    2.1759123034
N        0.4930968687   -0.1014587251    0.4732042242
O        0.3307157595    0.8469431417    1.4812272717
Cl      -7.6590442051    1.4846646259    4.1983962690
H       -3.8335068121    2.5499467304    1.3853691977
H       -4.1090284504   -1.5209597145    2.8001661421
H       -5.9286388768    3.1019194186    2.5815062552
H       -6.1859133673   -0.9611821274    3.9810992334
H       -2.1804343647    1.1375950804    0.7481347063
H       -0.3998842485   -1.6148876480   -0.4582120673
H        1.3782480937    2.2799562591    2.4419817105
H        1.8534123558    2.0605813454    0.7265610062
H        2.3636853791    0.8644611434    1.9586505588
24   
torsion grid (-105,)
C       -1.9593595351   -1.9841911177    1.7756276970
C       -4.5005662046    1.7576932780    1.8072505167
C       -4.4355058798   -0.4508566813    2.7923788231
C       -5.6679931270    2.0535286838    2.5064034391
C       -5.6025193065   -0.1660101622    3.4954255657
C       -3.8590573258    0.5074261730    1.9311860784
C       -6.2137017419    1.0834748312    3.3498581502
C       -2.6400457351    0.3068655546    1.1531003142
C       -0.5913679949   -0.7076717621    0.1827039984
C       -1.8084932169   -0.7598977678    1.0500873641
C        1.6914035392    1.3520940761    1.7754727250
N       -2.0351346379   -3.0031235267    2.3405420544
N        0.4870934213   -0.0532008491    0.4128418486
O        0.4294813520    0.6988157763    1.5831765340
Cl      -7.6816220654    1.4357431354    4.2364735021
H       -4.0752405103    2.5128593563    1.1508117443
H       -3.9801779219   -1.4244408205    2.9226281546
H       -6.1497612314    3.0201741869    2.4009705395
H       -6.0388179906   -0.9086046836    4.1558092656
H       -2.3498629382    1.1653867870    0.5504297041
H       -0.5532882015   -1.3321089812   -0.7087080637
H        1.5812793320    1.9239239732    2.6987462455
H        1.9107680775    2.0234122545    0.9391411370
H        2.4947937923    0.6167823584    1.8827031572
24   
torsion grid (-90,)
C       -1.8204046810   -1.7665060716    1.8704171393
C       -4.7055068987    1.7137368485    1.6725273936
C       -4.3864401717   -0.3670648259    2.8634070294
C       -5.8742785742    1.9625816337    2.3877604903
C       -5.5534041269   -0.1289767825    3.5840767399
C       -3.9376061100    0.5507872643    1.8898789999
C       -6.2921834884    1.0336244729    3.3430026163
C       -2.7295984181    0.3909023368    1.0831963012
C       -0.6367088796   -0.5113009852    0.1076313260
C       -1.7989267812   -0.5941817626    1.0501654260
C        1.8785435889    1.0868100185    1.8625473598
N       -1.7980939337   -2.7450446539    2.5066276303
N        0.4983720742    0.0267339846    0.3584963994
O        0.5637821746    0.5584223535    1.6426528750
Cl      -7.7599334135    1.3285214099    4.2509801296
H       -4.3801785126    2.4374166479    0.9291266021
H       -3.8307250187   -1.2733289449    3.0682276277
H       -6.4545328121    2.8620776874    2.2093345353
H       -5.8908632872   -0.8406254973    4.3308247802
H       -2.5460352073    1.2108757856    0.3906476395
H       -0.7210456657   -0.9545970171   -0.8832466917
H        1.8590480519    1.4928743286    2.8754805846
H        2.1012799235    1.8799575392    1.1418138308
H        2.6301295567    0.2948089607    1.7895651178
24   
torsion grid (-75,)
C       -1.6789816574   -1.4939838026    1.9678028023
C       -4.9166585973    1.6377889678    1.5532742244
C       -4.3361032034   -0.2590845926    2.9374281004
C       -6.0943163913    1.8231145374    2.2730814180
C       -5.5102466213   -0.0827111186    3.6641020303
C       -4.0147800672    0.5984313323    1.8634558856
C       -6.3842361363    0.9561555190    3.3287950624
C       -2.8104821870    0.4954533913    1.0423921990
C       -0.6615271878   -0.2592716597    0.0810746265
C       -1.7741852811   -0.3789473102    1.0744389351
C        2.0814798829    0.7854115385    1.9048802782
N       -1.5747420257   -2.4282463272    2.6592296948
N        0.5292296829    0.1428865675    0.3309302597
O        0.7073978409    0.4462259690    1.6762230394
Cl      -7.8601972760    1.1733977792    4.2451751760
H       -4.6907175900    2.3140935767    0.7324042599
H       -3.6744844066   -1.0692932356    3.2162633170
H       -6.7786246957    2.6270707964    2.0220849989
H       -5.7490262905   -0.7471059378    4.4884229308
H       -2.7308222826    1.2648412296    0.2754282849
H       -0.8554189895   -0.4919965604   -0.9643899303
H        2.1433735659    1.0328250198    2.9660259278
H        2.3708804146    1.6486726057    1.2973898267
H        2.7314468271   -0.0654498576    1.6790643729
24   
torsion grid (-60,)
C       -2.2439056906   -2.3543567381    1.8998743008
C       -4.1748934518    1.7245992292    1.6572944406
C       -4.3897355172   -0.3591228411    2.8666832867
C       -5.2893806248    2.2398718431    2.3137899978
C       -5.5042592962    0.1460454107    3.5300235789
C       -3.7003781284    0.4202974182    1.9123848223
C       -5.9499201112    1.4418199352    3.2505096557
C       -2.5245911305   -0.0166842503    1.1656156368
C       -0.6748081821   -1.3588792969    0.2536257843
C       -1.8425310393   -1.1919831553    1.1630591742
C        1.9293666419   -2.4796317428    2.2310842055
N       -2.5757028957   -3.3230572973    2.4585784533
N        0.5147124817   -1.7077314814    0.5856396558
O        0.6238454122   -1.9606342215    1.9474820229
Cl      -7.3523638646    2.0725690984    4.0869013579
H       -3.6597313999    2.3474077076    0.9299997517
H       -4.0630854201   -1.3643087158    3.1000301898
H       -5.6422896312    3.2447010400    2.1055228433
H       -6.0274684004   -0.4609838088    4.2619513238
H       -2.1166540213    0.7444309863    0.5012062497
H       -0.7941419005   -1.1032804717   -0.7974499701
H        1.9569441402   -2.6113740348    3.3140321406
H        2.7009963862   -1.7705671906    1.9152138892
H        2.0783758589   -3.4420547969    1.7319959397
24   
torsion grid (-45,)
C       -2.0704844074   -2.1765839671    2.0973392743
C       -4.2984407052    1.7133629787    1.5746272107
C       -4.3640415095   -0.2906524115    2.9292632323
C       -5.4486020172    2.1916633950    2.1957410979
C       -5.5135882500    0.1787383300    3.5578768222
C       -3.7301936362    0.4678089141    1.9202358426
C       -6.0513145286    1.4158519265    3.1887563181
C       -2.5245937922    0.0703569485    1.2030473514
C       -0.5779883692   -1.1589227709    0.3723666086
C       -1.7447122211   -1.0443277730    1.2781989581
C        1.9571630605   -2.7508454019    2.1087637482
N       -2.3710110039   -3.1107807992    2.7271771689
N        0.5878659970   -1.6353084681    0.6300092795
O        0.6946701369   -2.0960102368    1.9348652248
Cl      -7.4975840273    2.0004366840    3.9820802281
H       -3.8282424554    2.3189345828    0.8036271574
H       -3.9671327462   -1.2509732043    3.2311847936
H       -5.8731375172    3.1508670939    1.9177077482
H       -5.9934907799   -0.4114819709    4.3320068293
H       -2.1794969587    0.8125824809    0.4838344802
H       -0.6717351214   -0.7337449432   -0.6250252403
H        1.9853470771   -3.0454065182    3.1590890113
H        2.7791653843   -2.0638788456    1.8841107032
H        2.0234414567   -3.6360596574    1.4687198638
24   
torsion grid (-30,)
C       -1.9331851562   -2.0117273873    2.3022595424
C       -4.3764920497    1.6954220397    1.5187504322
C       -4.3606663095   -0.2337831093    2.9803901357
C       -5.5558599889    2.1489087532    2.1015574313
C       -5.5396644584    0.2115860854    3.5706490888
C       -3.7508717074    0.4999725816    1.9379878095
C       -6.1323301646    1.3990409694    3.1297809299
C       -2.5192771681    0.1300075024    1.2539697768
C       -0.4981838759   -1.0008388529    0.5017710143
C       -1.6683763936   -0.9290100778    1.3971407422
C        1.9677060020   -2.9528587535    1.9585252876
N       -2.2152405333   -2.8886763372    3.0168959688
N        0.6362474228   -1.5849683208    0.6701437558
O        0.7311728643   -2.2326784282    1.8922832812
Cl      -7.6151297875    1.9532974457    3.8753802768
H       -3.9275039252    2.2808637639    0.7200519443
H       -3.9223947555   -1.1561114121    3.3372631136
H       -6.0234611638    3.0692996968    1.7671593079
H       -6.0002078269   -0.3595869783    4.3704088330
H       -2.2169108388    0.8456734930    0.4902166638
H       -0.5638656334   -0.4435904146   -0.4307322521
H        1.9810950486   -3.4082404470    2.9500550506
H        2.8154641055   -2.2702723341    1.8418965540
H        2.0033700458   -3.7288389021    1.1875849436
24   
torsion grid (-15,)
C       -3.0037681799   -1.9072042999    0.4048071613
C       -4.0063028785    2.0562934321    2.2937404969
C       -4.5914193460   -0.2836361555    2.4918732099
C       -4.8917370953    2.3822219268    3.3161070825
C       -5.4793576146    0.0321534053    3.5159427585
C       -3.8318078694    0.7239587277    1.8549520225
C       -5.6267974658    1.3614100889    3.9242883771
C       -2.8745596014    0.5115013188    0.7789566401
C       -1.4551792316   -0.4364432316   -0.9468531770
C       -2.4541747487   -0.6113355151    0.1190144734
C       -0.1640186930   -3.4924458732   -1.9635916380
N       -3.5157068353   -2.9197555406    0.6726948856
N       -0.7349437383   -1.2952469759   -1.5813674751
O       -0.9543121952   -2.5997438312   -1.1698110645
Cl      -6.7451709392    1.7517580265    5.2120572048
H       -3.4343325891    2.8519941999    1.8226236804
H       -4.4968760065   -1.3188529467    2.1936410987
H       -5.0128206168    3.4108509135    3.6398856529
H       -6.0576279536   -0.7498011610    3.9977132547
H       -2.3972734697    1.4306622740    0.4416860059
H       -1.2590768545    0.5900819077   -1.2505626058
H       -0.3825637020   -4.4889150711   -1.5763467633
H        0.9009712322   -3.2660932438   -1.8503606359
H       -0.4502761472   -3.4259584617   -3.0178867531
24   
torsion grid (0,)
C       -2.8064521943   -1.9340905948    0.6016930802
C       -4.0689780282    2.0648918865    2.2400178298
C       -4.5507785113   -0.2879016865    2.5417154400
C       -4.9957269632    2.3988375075    3.2222109543
C       -5.4800593057    0.0358901500    3.5258125480
C       -3.8213330623    0.7220252500    1.8736906561
C       -5.6993302678    1.3753032981    3.8623347746
C       -2.8281028512    0.5041141749    0.8323626283
C       -1.3163654312   -0.4483063092   -0.8066629360
C       -2.3401351846   -0.6264461887    0.2329626376
C       -0.2874521153   -3.4895289026   -2.1261668179
N       -3.2380786425   -2.9555662442    0.9613233175
N       -0.6806837158   -1.3002320775   -1.5344418122
O       -1.0400708101   -2.6131805077   -1.2793839721
Cl      -6.8690910209    1.7754254076    5.1003690824
H       -3.5223066517    2.8625751533    1.7429251298
H       -4.3995666234   -1.3309782177    2.2998704375
H       -5.1728716429    3.4353132162    3.4904051887
H       -6.0344614158   -0.7477709375    4.0322568418
H       -2.3897231292    1.4288600428    0.4597758437
H       -1.0302932452    0.5809508234   -1.0145573277
H       -0.6307340596   -4.4943332342   -1.8747415850
H        0.7839394017   -3.3935810954   -1.9233758661
H       -0.4892154435   -3.2727640289   -3.1798794584
24   
torsion grid (15,)
C       -2.6037160434   -1.9405244807    0.7925122418
C       -4.1224740428    2.0660191073    2.1801506190
C       -4.5029348095   -0.2907123569    2.5789550320
C       -5.0902146426    2.3982415100    3.1227737587
C       -5.4731429402    0.0312719586    3.5233400800
C       -3.8031568462    0.7214054701    1.8833070636
C       -5.7631076003    1.3726134449    3.7918322109
C       -2.7746008530    0.5022983610    0.8766707833
C       -1.1717392041   -0.4595190202   -0.6722971714
C       -2.2227517082   -0.6306580081    0.3430448123
C       -0.4513816354   -3.4690303617   -2.2434995540
N       -2.9446456793   -2.9672220345    1.2269889436
N       -0.6315434252   -1.3036704226   -1.4813767986
O       -1.1461383058   -2.5840236849   -1.3570586934
Cl      -6.9833385920    1.7722852087    4.9803967608
H       -3.6009689084    2.8657374201    1.6598120221
H       -4.2957627247   -1.3352091267    2.3901624704
H       -5.3227468939    3.4360464972    3.3383029674
H       -6.0039308626   -0.7544575444    4.0514267400
H       -2.3733324202    1.4277660970    0.4657461676
H       -0.7858284163    0.5510808532   -0.7915640650
H       -0.9158979219   -4.4452299658   -2.0953099599
H        0.6117265846   -3.5140721884   -1.9872592656
H       -0.5722031161   -3.1446280283   -3.2819717174
24   
torsion grid (30,)
C       -2.3822476774   -1.9342928505    0.9819206712
C       -4.1661697495    2.0480014772    2.1130484381
C       -4.4390007507   -0.3061697204    2.6031989857
C       -5.1731706631    2.3707427179    3.0175227591
C       -5.4482999143    0.0058085633    3.5091724763
C       -3.7727945326    0.7106776799    1.8827751920
C       -5.8111111191    1.3408561404    3.7133594341
C       -2.7089477082    0.4980797513    0.9108371494
C       -1.0146786592   -0.4750100000   -0.5425439892
C       -2.0923639958   -0.6314483581    0.4525431316
C       -0.6440997289   -3.4190162764   -2.3338964846
N       -2.6169144862   -2.9641647573    1.4754674643
N       -0.5810481513   -1.3027342179   -1.4276385308
O       -1.2572105154   -2.5129337144   -1.4091432390
Cl      -7.0802605530    1.7267580938    4.8545123792
H       -3.6720414967    2.8503031540    1.5704706253
H       -4.1750989919   -1.3459617649    2.4641597499
H       -5.4624426320    3.4035406380    3.1825543562
H       -5.9534636530   -0.7829015092    4.0575256484
H       -2.3472217183    1.4199630388    0.4567300899
H       -0.5280623476    0.4975458198   -0.5843668013
H       -1.2479987526   -4.3267234671   -2.2885659715
H        0.3857447815   -3.6370129325   -2.0343177461
H       -0.6591349226   -3.0020907826   -3.3458693662
24   
torsion grid (45,)
C       -2.1693771852   -1.9215372317    1.1806630677
C       -4.2106035801    2.0168816337    2.0172820717
C       -4.3717515928   -0.3173240627    2.6296752097
C       -5.2585733404    2.3314303226    2.8776854426
C       -5.4213659817   -0.0147430051    3.4921367054
C       -3.7402296035    0.6935276617    1.8716445386
C       -5.8600330483    1.3075851495    3.6133968375
C       -2.6379284729    0.4824936816    0.9408559547
C       -0.8439078767   -0.5089420136   -0.3960752348
C       -1.9560271534   -0.6386662204    0.5740873458
C       -0.8610108033   -3.3248519250   -2.4077423040
N       -2.3183818320   -2.9459111125    1.7175027151
N       -0.5247053555   -1.3040532157   -1.3544194200
O       -1.3609206461   -2.4096575825   -1.4251905210
Cl      -7.1795797675    1.6844506478    4.6995409521
H       -3.7453721762    2.8147495758    1.4435279137
H       -4.0492453597   -1.3473642922    2.5536175474
H       -5.6072644718    3.3541210565    2.9781586207
H       -5.8989514462   -0.7996718475    4.0698611842
H       -2.3118632064    1.3916886503    0.4365393436
H       -0.2446156224    0.3985665829   -0.3559238059
H       -1.5838141721   -4.1419657436   -2.4327200752
H        0.1235468311   -3.7033071716   -2.1161420063
H       -0.8008338005   -2.8401634994   -3.3873251266
24   
torsion grid (60,)
C       -1.9618390539   -1.9123911967    1.4231893625
C       -4.2490493534    1.9565803085    1.8902504250
C       -4.2933438552   -0.3299521041    2.6788930098
C       -5.3349907450    2.2749313785    2.7013690478
C       -5.3800450063   -0.0231195888    3.4927171530
C       -3.7019562324    0.6561260195    1.8595763596
C       -5.8954549134    1.2768825869    3.5016295239
C       -2.5633859505    0.4357560787    0.9729528355
C       -0.6713301023   -0.5808438529   -0.2283933639
C       -1.8111477024   -0.6687104623    0.7262935625
C       -1.1011610260   -3.1691411936   -2.4792184642
N       -2.0413182182   -2.9191152758    2.0069506289
N       -0.4720698622   -1.3200235349   -1.2584510584
O       -1.4539414593   -2.2926662963   -1.4014648381
Cl      -7.2619243192    1.6577807307    4.5272412048
H       -3.8148142570    2.7334913338    1.2656664725
H       -3.9122596888   -1.3429687544    2.6883548173
H       -5.7436151908    3.2801462328    2.7143393629
H       -5.8278819821   -0.7879618779    4.1191378327
H       -2.2765820112    1.3156158989    0.3978548704
H        0.0494053196    0.2251452278   -0.1047779360
H       -1.9300087736   -3.8745292677   -2.5588599437
H       -0.1735652799   -3.7039448983   -2.2532555818
H       -0.9911903598   -2.6059611842   -3.4112639698
24   
torsion grid (75,)
C       -2.7750774789   -1.6415490011    0.1851310912
C       -3.6775969094    1.5805116090    3.2288328848
C       -4.7800449041   -0.2235348784    2.0538970719
C       -4.8528541381    1.8754842268    3.9152179751
C       -5.9604282080    0.0627737191    2.7339801930
C       -3.6105229926    0.5306700272    2.2890154028
C       -5.9922634276    1.1090893952    3.6612364656
C       -2.3259117135    0.3097120993    1.6286417716
C       -0.5259412980   -0.6120494956    0.2060572595
C       -1.9375497812   -0.6014393113    0.7022063900
C       -0.7037887956    0.4628205292   -3.0744410594
N       -3.4149715117   -2.5185318293   -0.2428959394
N       -0.1358069327   -0.2412134164   -0.9569655337
O       -1.1953059617    0.1647930815   -1.7609760660
Cl      -7.4799301873    1.4634074273    4.5137330785
H       -2.7909029899    2.1782556723    3.4255814529
H       -4.7805484755   -1.0374655609    1.3401260663
H       -4.8880434642    2.6862921317    4.6356327208
H       -6.8551228008   -0.5224492117    2.5470220701
H       -1.5473073031    1.0090950438    1.9305565697
H        0.2716183824   -0.9217677780    0.8789201825
H       -1.5771957594    0.7916324701   -3.6402338854
H       -0.2715368780   -0.4301148980   -3.5361804455
H        0.0433821505    1.2616323429   -3.0334898035
24   
torsion grid (90,)
C       -2.7790398922   -1.9152045203    0.3546119008
C       -3.6712362012    1.6559288540    2.9874464467
C       -4.7478496060   -0.3316786465    2.1295162775
C       -4.8331882678    2.0112101114    3.6680254876
C       -5.9150609054    0.0125424562    2.8055547595
C       -3.5984534766    0.4835403883    2.2067344635
C       -5.9524035837    1.1816144819    3.5719793170
C       -2.3296500616    0.2078619793    1.5360499385
C       -0.5583399358   -0.8588915142    0.1693293238
C       -1.9458150626   -0.8154074187    0.7339885299
C       -0.7397671887    0.7695393432   -2.8754566519
N       -3.4128148252   -2.8387952065    0.0258079409
N       -0.1841476014   -0.3502672754   -0.9450966322
O       -1.2257790512    0.2801662156   -1.6183308992
Cl      -7.4217625919    1.6109824806    4.4218496161
H       -2.8002299569    2.3023931982    3.0622299060
H       -4.7430893272   -1.2407368930    1.5416146461
H       -4.8733525768    2.9167338532    4.2647223650
H       -6.7937226877   -0.6211816923    2.7398164239
H       -1.5617688406    0.9599859459    1.7104038401
H        0.2253947406   -1.3776918145    0.7189192773
H       -1.5968494095    1.2557866526   -3.3447701030
H       -0.3870841104   -0.0561828932   -3.5009649368
H        0.0676054076    1.4925931266   -2.7221353416
24   
torsion grid (105,)
C       -2.7784935304   -2.1329252530    0.5281641713
C       -3.6773548738    1.7005309240    2.7548822980
C       -4.7117321654   -0.4176146582    2.2141541749
C       -4.8176132415    2.1015775227    3.4463866370
C       -5.8567914189   -0.0281068829    2.9029814735
C       -3.5946341433    0.4405627947    2.1257810694
C       -5.9050453998    1.2281345410    3.5157690720
C       -2.3512277874    0.1267854268    1.4277800288
C       -0.6171278120   -1.0473505808    0.0925855624
C       -1.9609729204   -0.9785655453    0.7450248921
C       -0.7342259859    1.0336200905   -2.6725695356
N       -3.4006425102   -3.0995327481    0.3240074655
N       -0.2442147503   -0.4224459914   -0.9631561352
O       -1.2263716416    0.4236771720   -1.4718182021
Cl      -7.3479800746    1.7120177153    4.3809962942
H       -2.8305122133    2.3801444731    2.6999177979
H       -4.6989001929   -1.3941675003    1.7469148182
H       -4.8654854440    3.0744760539    3.9247547536
H       -6.7112784442   -0.6943463292    2.9654512488
H       -1.6081709683    0.9211177599    1.4630249731
H        0.1219534637   -1.7446526272    0.4843768539
H       -1.5402463387    1.6851171559   -3.0153041893
H       -0.5168855179    0.2746707052   -3.4304855307
H        0.1655603266    1.6220288440   -2.4667307011
24   
torsion grid (120,)
C       -2.7938328402   -2.2821261839    0.6732333390
C       -3.7269414914    1.7283276463    2.5376667802
C       -4.6949841612   -0.4751060195    2.2917591530
C       -4.8442280463    2.1577862516    3.2488656293
C       -5.8164580614   -0.0572675798    3.0019442065
C       -3.6235077807    0.4104342875    2.0435695193
C       -5.8864791665    1.2564378390    3.4769520543
C       -2.4089220215    0.0728494072    1.3102454871
C       -0.7136008058   -1.1923733170   -0.0040303054
C       -2.0063393786   -1.0866341887    0.7267617275
C       -0.6615428374    1.2105089648   -2.5015446136
N       -3.3908805144   -3.2821186861    0.5947170134
N       -0.3019884834   -0.4844559359   -0.9935791773
O       -1.1698457079    0.5514772044   -1.3340423570
Cl      -7.2995708595    1.7774549004    4.3687805885
H       -2.9155599571    2.4295392609    2.3589870875
H       -4.6644591090   -1.4961259776    1.9332876422
H       -4.9092222119    3.1747725723    3.6218901816
H       -6.6353055549   -0.7450370224    3.1874207437
H       -1.7012259847    0.8930684106    1.2197536555
H       -0.0593503398   -2.0292368426    0.2357079758
H       -1.3739259687    2.0098415932   -2.7145280692
H       -0.6128331929    0.5166364663   -3.3464436993
H        0.3307741384    1.6295655774   -2.3071864235
24   
torsion grid (135,)
C       -2.7889655896   -2.3645695829    0.7919292243
C       -3.7968379166    1.7376412977    2.3764006145
C       -4.6811158138   -0.5141893347    2.3557295249
C       -4.8853838127    2.1745808645    3.1259717183
C       -5.7733121964   -0.0876996733    3.1051841381
C       -3.6657811303    0.3905290829    1.9739395498
C       -5.8718208116    1.2540894098    3.4876030315
C       -2.4845327470    0.0516847245    1.1905506084
C       -0.8159183239   -1.2735212739   -0.1204372050
C       -2.0577716594   -1.1355290822    0.6758841441
C       -0.5504065044    1.3435554870   -2.3829572645
N       -3.3422433464   -3.3903646037    0.8507857851
N       -0.3458311786   -0.5129114462   -1.0460103321
O       -1.0829461491    0.6535909454   -1.2441280172
Cl      -7.2477771191    1.7856901773    4.4295499853
H       -3.0296951337    2.4544678673    2.0943635142
H       -4.6294632002   -1.5573055887    2.0716185583
H       -4.9713219482    3.2134964015    3.4273460612
H       -6.5480937525   -0.7911004767    3.3929902024
H       -1.8270310736    0.8920492660    0.9925679514
H       -0.2529773771   -2.1981295351   -0.0040057820
H       -1.1547029078    2.2472565568   -2.4830420824
H       -0.6426755142    0.7290467305   -3.2837176711
H        0.4991696651    1.6054032593   -2.2171664724
24   
torsion grid (150,)
C       -2.7815156436   -2.3991867190    0.9062005077
C       -3.8827391580    1.7510824372    2.2513740018
C       -4.6665004034   -0.5307476068    2.4302182264
C       -4.9321689302    2.1922708499    3.0519085183
C       -5.7203228094   -0.1008327435    3.2308343167
C       -3.7201513301    0.3869814092    1.9217779555
C       -5.8488178001    1.2574025271    3.5390333802
C       -2.5827083167    0.0523238248    1.0751790074
C       -0.9450629974   -1.3233074620   -0.2483163970
C       -2.1293506702   -1.1518271923    0.6163829346
C       -0.4150308231    1.4400712563   -2.2852608001
N       -3.2702200880   -3.4395874490    1.1055601776
N       -0.4089314376   -0.5383207210   -1.1185807839
O       -1.0102417806    0.7162595491   -1.1991695402
Cl      -7.1755446249    1.7924814881    4.5468038065
H       -3.1696798575    2.4780938787    1.8708565911
H       -4.5912100954   -1.5866399920    2.2058048943
H       -5.0416802584    3.2439075558    3.2961925821
H       -6.4418940308   -0.8143771403    3.6156990330
H       -1.9898466015    0.9057986809    0.7690552030
H       -0.4718498218   -2.3032158716   -0.2272109061
H       -0.9132381340    2.4114315496   -2.2953165784
H       -0.5863274050    0.9199661849   -3.2325298357
H        0.6589403603    1.5658884021   -2.1179731560
24   
torsion grid (165,)
C       -2.7625261173   -2.4233520163    0.9849675070
C       -3.9917315878    1.7470257100    2.1092763269
C       -4.6343290492   -0.5521080579    2.5042040152
C       -4.9984319981    2.1905832179    2.9613578116
C       -5.6449802637   -0.1188186974    3.3569542979
C       -3.7808285809    0.3720112070    1.8601301620
C       -5.8227900790    1.2497760042    3.5836039355
C       -2.6937794171    0.0382890443    0.9496828235
C       -1.0839659687   -1.3696803333   -0.3937243155
C       -2.2076463401   -1.1732098217    0.5384784495
C       -0.2507543888    1.4993281703   -2.1741870694
N       -3.1717307763   -3.4655035458    1.3120284850
N       -0.4793284089   -0.5709317616   -1.2063916084
O       -0.9448130453    0.7414104879   -1.1729358725
Cl      -7.0936316646    1.7900764748    4.6582017772
H       -3.3510606038    2.4794248678    1.6245750865
H       -4.5200263942   -1.6162680267    2.3460804518
H       -5.1457704370    3.2502314875    3.1429659751
H       -6.2946076927   -0.8379134203    3.8456498778
H       -2.1783513764    0.8961014531    0.5383599323
H       -0.6984249767   -2.3850034540   -0.4604367316
H       -0.6438026585    2.5148477191   -2.0962230301
H       -0.4524663883    1.0924225919   -3.1695057615
H        0.8257167827    1.4931480797   -1.9792879866
24   
torsion grid (180,)
C       -2.3715551839   -2.2612585563    1.4629274260
C       -4.0323339251    1.7606655710    2.5609135354
C       -4.6973266030   -0.5636910504    2.4619383209
C       -5.3014800733    2.1238868962    3.0004647855
C       -5.9697485459   -0.2123357514    2.9021294801
C       -3.6960503948    0.4169174340    2.2796154145
C       -6.2668975740    1.1281312650    3.1686545635
C       -2.3333873838    0.1735351550    1.8260228948
C       -0.3066550370   -1.1016177409    1.0097835103
C       -1.7047751889   -0.9856682997    1.4557589837
C        1.4134280376    1.9232365134    0.9517183025
N       -2.8604458036   -3.3200521371    1.4488950116
N        0.6380706482   -0.2364985294    0.8541279015
O        0.2780294488    1.0721081770    1.1654354947
Cl      -7.8687880035    1.5636651570    3.7212414631
H       -3.2799023183    2.5342667317    2.4301173981
H       -4.4947508086   -1.6077745949    2.2639811549
H       -5.5425045438    3.1608421193    3.2108509626
H       -6.7309377381   -0.9737556000    3.0392173096
H       -1.7168456604    1.0602982041    1.7715506117
H        0.0214816476   -2.1070113771    0.7542965033
H        1.0754746922    2.9301190445    1.2042910927
H        1.7295390991    1.8815726787   -0.0947104998
H        2.2401551578    1.6269646062    1.6040415607
