27   
torsion grid (-75,)
C        1.9166928615   -0.6392961355    0.0918509870
C        0.6303106750   -0.5641547085    0.7424092239
C        4.9635709273   -3.8132366801    4.4786200874
C        6.2141741086   -3.6992319996    3.8660393517
C        2.9645092214   -1.3629874187    0.6904774029
C        0.6280741055   -1.3314884050    1.9067925168
C        3.8770250651   -3.1504592071    3.9140441359
C        6.3060472999   -2.9321199970    2.6999657895
C        0.9725936010   -0.5939100307    6.1225551689
C        2.3144614961   -0.3492063575    6.1152560275
C        2.9270906642   -1.7250539899    2.0889232296
C        1.8092367761   -1.0891069376    2.6777314644
C        4.0701228007   -2.3771840806    2.7540721141
C        1.6553141175   -0.8953760524    4.1146049076
N        5.2726003438   -2.2882923669    2.1491021351
N        0.5633570416   -0.9234555052    4.8403955570
O        2.7653047740   -0.5291176801    4.8344539426
H        2.0586294143   -0.2326332890   -0.9058828680
H       -0.2686456960   -0.2839389370    0.2009483417
H        4.8346793510   -4.4160233127    5.3739489996
H        7.0922065203   -4.1969162204    4.2675487016
H        3.8577897260   -1.5990468314    0.1209358304
H       -0.2935322606   -1.4065632586    2.4880733906
H        2.8871016907   -3.2438446976    4.3484438026
H        7.2598050892   -2.8310872919    2.1833499694
H        0.2786034144   -0.5474359158    6.9510573718
H        3.0439487889   -0.0435946461    6.8501444796
27   
torsion grid (-60,)
C        1.9198412658   -0.7390027232    0.0152176342
C        0.6697276712   -0.5821607134    0.6716008003
C        4.9156873226   -3.7949924233    4.4672264107
C        6.1834037917   -3.6406188891    3.9004157940
C        2.9622347252   -1.4182795077    0.6642643771
C        0.5972846634   -1.1760037439    1.9352218297
C        3.8335334314   -3.1423553004    3.8823502376
C        6.2956767005   -2.8452578431    2.7558225254
C        1.0707944916   -0.6965503733    6.1751748803
C        2.3935626303   -0.3722880145    6.1204884709
C        2.9122719664   -1.6819079970    2.0613129093
C        1.7943916605   -1.0724641172    2.6874383174
C        4.0475025990   -2.3390847205    2.7471696727
C        1.6841675176   -0.9065000844    4.1351666219
N        5.2660794260   -2.2111947775    2.1851194287
N        0.6284176196   -1.0226172066    4.9011497598
O        2.7994869937   -0.4925310561    4.8165997251
H        2.0505776889   -0.4121014810   -1.0129086167
H       -0.2192742797   -0.2748722372    0.1284025664
H        4.7704637643   -4.4207893608    5.3440633760
H        7.0586248491   -4.1280516613    4.3202992016
H        3.8512847452   -1.7125212746    0.1157280560
H       -0.3345688835   -1.1262114114    2.4979979165
H        2.8325663627   -3.2658975158    4.2831149409
H        7.2631488051   -2.7112194626    2.2733919132
H        0.4105045780   -0.7140970478    7.0318165033
H        3.1357758777   -0.0462673790    6.8333911948
27   
torsion grid (-45,)
C        1.9179645096   -0.8319082502   -0.0319040616
C        0.6949435696   -0.5959369740    0.6274349681
C        4.8966641764   -3.7927235865    4.4513869414
C        6.1734773456   -3.5961514589    3.9188255040
C        2.9624694652   -1.4625199420    0.6527119651
C        0.5904254398   -1.0218119356    1.9537663701
C        3.8155877003   -3.1473485135    3.8564576317
C        6.2969645138   -2.7696548558    2.7981184480
C        1.1139481474   -0.7578433133    6.2042996362
C        2.4290219183   -0.4087898232    6.1347971862
C        2.9060282967   -1.6532735844    2.0504505576
C        1.7873267232   -1.0716190400    2.6990959696
C        4.0392409431   -2.3118058444    2.7471405714
C        1.6984449329   -0.9216734310    4.1519700526
N        5.2668184635   -2.1436910650    2.2182637031
N        0.6584805221   -1.0742796055    4.9312429864
O        2.8162199261   -0.4990456563    4.8221631676
H        2.0326867976   -0.5860354697   -1.0842419218
H       -0.1822290772   -0.2681587201    0.0766416755
H        4.7442745443   -4.4437700705    5.3084394067
H        7.0488016776   -4.0755476629    4.3476215898
H        3.8522268410   -1.7891816843    0.1240819181
H       -0.3369404908   -0.8721312364    2.5023155351
H        2.8082604526   -3.3000627163    4.2306308791
H        7.2725773041   -2.6024236531    2.3432455773
H        0.4674944146   -0.8028469510    7.0704080389
H        3.1776363831   -0.0844797312    6.8417155412
27   
torsion grid (-30,)
C        1.9079327194   -0.9201871131   -0.0669238856
C        0.7112440196   -0.6060219507    0.5956641287
C        4.8964542045   -3.7989360444    4.4242474194
C        6.1784028656   -3.5659788575    3.9189641198
C        2.9606695341   -1.5006493763    0.6430135793
C        0.6078798599   -0.8734857046    1.9609109079
C        3.8129731950   -3.1590670202    3.8278290698
C        6.3052785709   -2.7099126909    2.8214885334
C        1.1287246362   -0.7963601356    6.2163017894
C        2.4429562312   -0.4459565279    6.1463126287
C        2.9071853134   -1.6333352482    2.0421691641
C        1.7860325803   -1.0764139510    2.7037000445
C        4.0405542528   -2.2934055869    2.7430334736
C        1.7065633967   -0.9364152539    4.1597423597
N        5.2724688474   -2.0897086129    2.2391389927
N        0.6705075468   -1.1014404706    4.9405727874
O        2.8259289558   -0.5212087765    4.8311719115
H        2.0017097019   -0.7562120303   -1.1371776084
H       -0.1558334509   -0.2619269241    0.0385331983
H        4.7422556191   -4.4737814559    5.2623524780
H        7.0551349822   -4.0398484178    4.3510343461
H        3.8501537132   -1.8488956144    0.1279165404
H       -0.3042222437   -0.6362582292    2.5015759521
H        2.8025696061   -3.3377933103    4.1819548368
H        7.2848952097   -2.5130133917    2.3876415812
H        0.4848596943   -0.8519109304    7.0837085730
H        3.1945169554   -0.1313302427    6.8544881684
27   
torsion grid (-15,)
C        1.8755303628   -1.0052429297   -0.0780931213
C        0.7066095066   -0.6112163988    0.5860376963
C        4.8937119313   -3.8040825772    4.4111442955
C        6.1778026789   -3.5442882166    3.9241669210
C        2.9423932274   -1.5353972484    0.6476245234
C        0.6341051641   -0.7303603822    1.9723910470
C        3.8080850163   -3.1668418104    3.8159050845
C        6.3042770616   -2.6652755081    2.8452423766
C        1.1154716459   -0.8085260851    6.2273989768
C        2.4357914961   -0.4811377750    6.1659609424
C        2.9018402477   -1.6165017953    2.0490434240
C        1.7756720706   -1.0801670526    2.7141319845
C        4.0359151888   -2.2785166872    2.7500061417
C        1.6997328629   -0.9444868616    4.1723097695
N        5.2691238919   -2.0480987849    2.2629988432
N        0.6581291069   -1.0984596148    4.9473400000
O        2.8233864784   -0.5549933028    4.8519963446
H        1.9438564537   -0.9245629254   -1.1598215115
H       -0.1520410395   -0.2533857150    0.0245373153
H        4.7399866274   -4.4970243144    5.2344584112
H        7.0562764458   -4.0148383760    4.3563519967
H        3.8286114456   -1.9009582807    0.1389101667
H       -0.2543208126   -0.4119926009    2.5091453554
H        2.7963973178   -3.3636793010    4.1567895888
H        7.2855185232   -2.4464674552    2.4259057520
H        0.4665488440   -0.8587287060    7.0913282767
H        3.1901207581   -0.1862926579    6.8797230107
27   
torsion grid (0,)
C        1.8474143327   -1.0836227808   -0.0847908778
C        0.7104481222   -0.6133739045    0.5825890876
C        4.9097568737   -3.8077648416    4.3864929145
C        6.1937812315   -3.5219031916    3.9136931758
C        2.9334873744   -1.5648436204    0.6454785301
C        0.6877276574   -0.5940939247    1.9755423205
C        3.8201776357   -3.1734622425    3.7955112867
C        6.3161556626   -2.6211932428    2.8526494236
C        1.0999833046   -0.8268255148    6.2292774967
C        2.4263654616   -0.5229561791    6.1822124151
C        2.9089569022   -1.5981917637    2.0482017364
C        1.7768866672   -1.0818750649    2.7179514517
C        4.0437509217   -2.2631970218    2.7475913965
C        1.6997154357   -0.9533847833    4.1779373304
N        5.2765262327   -2.0073473038    2.2739990972
N        0.6491443577   -1.0971742320    4.9422762343
O        2.8244923779   -0.5912659078    4.8711937298
H        1.8833603253   -1.0830376791   -1.1710768954
H       -0.1421251927   -0.2408935753    0.0211491011
H        4.7595315302   -4.5180592133    5.1955670928
H        7.0753357036   -3.9889651182    4.3433675074
H        3.8147395862   -1.9451716619    0.1388982347
H       -0.1694943328   -0.1987742980    2.5115163990
H        2.8087711356   -3.3886388126    4.1260870885
H        7.2972303593   -2.3812794573    2.4446630889
H        0.4425524120   -0.8737492936    7.0869067155
H        3.1798891449   -0.2497304898    6.9054100351
27   
torsion grid (15,)
C        1.8069449557   -1.1553205469   -0.0782031927
C        0.7041413931   -0.6075138039    0.5893712696
C        4.9268640573   -3.8253299011    4.3485540852
C        6.2108280068   -3.5098812983    3.8939589289
C        2.9161025017   -1.5902335188    0.6482753285
C        0.7565286167   -0.4606094390    1.9741210156
C        3.8334798280   -3.1895239262    3.7666599571
C        6.3300712256   -2.5791230480    2.8591530719
C        1.0614146332   -0.8155932416    6.2217382903
C        2.4015757529   -0.5763391131    6.2004813140
C        2.9182715701   -1.5790503876    2.0527138596
C        1.7766823497   -1.0792831783    2.7186104998
C        4.0545167390   -2.2494911118    2.7451785247
C        1.6913607820   -0.9554780569    4.1795643903
N        5.2864271872   -1.9639597145    2.2882903401
N        0.6219177112   -1.0548495867    4.9247372366
O        2.8197916649   -0.6550229629    4.8964625774
H        1.8069280540   -1.2347372054   -1.1622103824
H       -0.1426097110   -0.2195647474    0.0298045517
H        4.7801546815   -4.5591526328    5.1370358614
H        7.0949666599   -3.9770626090    4.3181572909
H        3.7881538146   -1.9854240495    0.1370143379
H       -0.0617875301    0.0104787372    2.5100122296
H        2.8221074835   -3.4242465910    4.0839767641
H        7.3109899067   -2.3149500233    2.4661202635
H        0.3870793326   -0.8369714335    7.0671651897
H        3.1545497700   -0.3462491103    6.9391520458
27   
torsion grid (30,)
C        1.7602351859   -1.2315621391   -0.0777964042
C        0.6909639142   -0.6134042677    0.5893299021
C        4.9698102905   -3.8333160082    4.2923429271
C        6.2491622388   -3.4901381288    3.8442467444
C        2.8986326959   -1.6178769540    0.6347117301
C        0.8391065576   -0.3508937777    1.9508530075
C        3.8677321118   -3.2000977510    3.7244958594
C        6.3548308766   -2.5355786271    2.8301154047
C        1.0103300597   -0.8181923482    6.1910402353
C        2.3613439085   -0.6496797437    6.2018705812
C        2.9341156405   -1.5639545337    2.0410476355
C        1.7776558807   -1.0873337576    2.6996485626
C        4.0752448425   -2.2362102791    2.7228269614
C        1.6778600448   -0.9692976045    4.1609073978
N        5.3022415678   -1.9230999213    2.2722511553
N        0.5884323388   -1.0199110630    4.8821611619
O        2.8040713986   -0.7370946656    4.9067248741
H        1.7202874211   -1.3880788495   -1.1526501285
H       -0.1520673769   -0.2114374464    0.0343787897
H        4.8337522573   -4.5859417750    5.0648917628
H        7.1398804822   -3.9540773332    4.2580976374
H        3.7599620516   -2.0237314140    0.1135655049
H        0.0655337393    0.1911686552    2.4874244814
H        2.8597752363   -3.4543173771    4.0374721936
H        7.3317064710   -2.2490128712    2.4428083422
H        0.3170680541   -0.8130320851    7.0212725824
H        3.1087158708   -0.4680096293    6.9595598301
27   
torsion grid (45,)
C        1.7101764451   -1.3261166148   -0.0309803475
C        0.6880792419   -0.6197089159    0.6325040733
C        5.0255140363   -3.8570494398    4.2566601290
C        6.2988726998   -3.4715548101    3.8253279705
C        2.8781131649   -1.6678764193    0.6613008507
C        0.9525147844   -0.2431632983    1.9507939448
C        3.9122942468   -3.2281867233    3.7063322699
C        6.3877862937   -2.4806744194    2.8453312686
C        0.9259851981   -0.7098252599    6.1728533841
C        2.2857805290   -0.7269319312    6.2442829398
C        2.9542404428   -1.5578130729    2.0675832716
C        1.7845000079   -1.0927189770    2.7164289617
C        4.1032474903   -2.2276499757    2.7383834302
C        1.6571971544   -0.9562242072    4.1732427454
N        5.3239156507   -1.8725168897    2.3034737922
N        0.5396828258   -0.8585438500    4.8472802225
O        2.7696798632   -0.8805725491    4.9704607500
H        1.6219616913   -1.5656193311   -1.0874682862
H       -0.1516879657   -0.2014008073    0.0847535201
H        4.9031442252   -4.6385472380    5.0024246755
H        7.1978068516   -3.9307404957    4.2265536767
H        3.7222377181   -2.0973163212    0.1308361247
H        0.2388676899    0.3751876337    2.4903859023
H        2.9085799724   -3.5119368520    4.0069488327
H        7.3595388549   -2.1599732226    2.4722461723
H        0.2038165624   -0.6076968762    6.9715863298
H        3.0166135124   -0.6464574796    7.0349545638
27   
torsion grid (60,)
C        1.6259169782   -1.4047679460    0.0552094311
C        0.6620183639   -0.5947997737    0.7111742969
C        5.1446879449   -3.8577355472    4.1799763491
C        6.4002516738   -3.3971423854    3.7698239891
C        2.8313464190   -1.7124104180    0.7068324418
C        1.0879877298   -0.1203925911    1.9529144502
C        4.0043139801   -3.2467991019    3.6663698732
C        6.4460375622   -2.3507232702    2.8466924162
C        0.8630303108   -0.5201109944    6.1519208411
C        2.1726446555   -0.8635530952    6.3023227835
C        2.9824895210   -1.5300748219    2.1104042149
C        1.8023418221   -1.0645432327    2.7423585531
C        4.1526494826   -2.1887305787    2.7545816324
C        1.6419485667   -0.9033378001    4.1906702334
N        5.3556576518   -1.7588701218    2.3393089893
N        0.5373720996   -0.5548264569    4.8045916559
O        2.6851245385   -1.1123112239    5.0552779437
H        1.4757621579   -1.7301902021   -0.9709018975
H       -0.1689731456   -0.1497719684    0.1716400937
H        5.0571365916   -4.6835604539    4.8816211328
H        7.3182568027   -3.8408031549    4.1445211528
H        3.6406545882   -2.1809895876    0.1552341367
H        0.4645488394    0.5885958129    2.4958062719
H        3.0135667617   -3.5843281256    3.9529244723
H        7.4025025809   -1.9694881631    2.4915651484
H        0.1370065240   -0.2598463105    6.9103014091
H        2.8494949057   -0.9739321570    7.1363251409
