24
0 1 C8H12N2O2
C                     3.014016879626     3.133272324616    -4.736303625919
C                     4.099663911945     3.605854180774    -4.015443887755
C                     2.262297987209     2.297329153423    -3.863652664606
C                     2.897726832598     2.288007157097    -2.618484913416
C                     2.555036322435     1.588898623748    -1.367766405502
C                     2.703157812756     1.477086961119     1.046726688779
C                     2.676983538434     3.685881787930    -0.021145339243
C                     1.163092545735     0.280074955238    -4.422190770091
N                     4.013043582261     3.109425175871    -2.741311780693
N                     2.882076601804     2.244665913677    -0.183813037943
O                     2.075220312176     0.451231333743    -1.364223151318
O                     1.079621730639     1.700895212644    -4.193760182090
H                     2.768410077800     3.364052189552    -5.764283497621
H                     4.922474497592     4.240055155113    -4.316253112087
H                     3.302778188817     1.936984619458     1.838302425521
H                     3.030863680636     0.450001377736     0.888701498792
H                     1.651565418901     1.456394089558     1.364085866874
H                     1.737158790248     3.878014676981     0.515196147677
H                     2.621326965462     4.182679200715    -0.988157662025
H                     3.496196692735     4.126679366361     0.558898549251
H                     0.154294273690    -0.038298898991    -4.693746268577
H                     1.491957094744    -0.233149435817    -3.515604446856
H                     1.849844558376     0.069680038936    -5.252046313111
H                     4.725060462313     3.193083097445    -2.029176079190
