17
0 1 C7H8O2
C                     1.907167526261    -1.047117390897    -0.167029701155
C                     0.806683280431    -0.457886938400     0.455615376430
C                     2.922532003764    -1.632608597848     0.600997141702
C                     0.709992179250    -0.448028340506     1.855929196698
C                     2.833265041887    -1.626528637453     1.990173438010
C                     1.720367579303    -1.030640675261     2.619920777568
C                     0.672997162323    -0.519437979280     4.719293129230
O                     3.824568080334    -2.198240064546     2.742473483423
O                     1.758635129837    -1.094576252153     3.997775041698
H                     1.982880709284    -1.055236334586    -1.250719365182
H                     0.017979753543    -0.003220165038    -0.136919412032
H                     3.788357790876    -2.097075632608     0.137921054532
H                    -0.148852151754     0.012178875917     2.332628363770
H                     0.895391918017    -0.676495928578     5.775531534950
H                    -0.273159180606    -1.013153606868     4.467457525336
H                     0.591871824669     0.555530061133     4.518642275706
H                     3.575745410390    -2.089966957007     3.677572917248
