28
0 1 C11H15NO
C                     5.822916401356     4.977505286763    -2.163124372856
C                     6.291676465615     4.138617953491    -3.188310469349
C                     4.889346623052     4.490314271304    -1.260207930619
C                     5.787734758311     2.843503022798    -3.246808379978
C                     4.449048720202     3.159299344795    -1.415943095644
C                     0.800315024291    -0.541006125823    -0.344098825348
C                     1.303246050749    -0.105429573797    -1.727814335640
C                     1.917173071374    -0.449537612120     0.705991207946
C                     1.925190831089     1.298974161880    -1.683661165043
C                     2.539285024086     0.954672063690     0.745179024108
C                     3.038631065445     1.361502466066    -0.637920984295
N                     4.880792452274     2.352184261052    -2.382734889115
O                     3.546664381526     2.715301556598    -0.508742164829
H                     6.185569449736     5.998537320985    -2.074002892377
H                     7.021229923879     4.480965196980    -3.915572563832
H                     4.494458586131     5.092186010641    -0.448087222054
H                     6.119011254712     2.155389140854    -4.023350853637
H                     0.404789090702    -1.562624752983    -0.387504152128
H                    -0.033193053298     0.107937519227    -0.041930562811
H                     2.055258535974    -0.823019123802    -2.083350712552
H                     0.484918665014    -0.125604386161    -2.456500715878
H                     1.532371427261    -0.711495375910     1.698136744139
H                     2.697117276063    -1.186132836819     0.468936740654
H                     2.327255791595     1.574829225203    -2.662362610233
H                     1.159036529417     2.038869933635    -1.417545153190
H                     1.791296460581     1.685447974229     1.078244404070
H                     3.368916746313     0.994503354048     1.459428645689
H                     3.864274209698     0.713210635046    -0.946356234328
