
  -OEChem-05262117483D

 24 24  0     0  0  0  0  0  0999 V2000
    3.1981    3.4532   -4.5555 C   0  0  0  0  0  0  0  0  0  0  0  0
    4.1264    3.9038   -3.6242 C   0  0  0  0  0  0  0  0  0  0  0  0
    2.3197    2.5747   -3.8701 C   0  0  0  0  0  0  0  0  0  0  0  0
    2.7382    2.4902   -2.5336 C   0  0  0  0  0  0  0  0  0  0  0  0
    2.2575    1.8850   -1.2764 C   0  0  0  0  0  0  0  0  0  0  0  0
    0.8887    0.3053   -0.0616 C   0  0  0  0  0  0  0  0  0  0  0  0
    1.5096   -0.2283   -2.3822 C   0  0  0  0  0  0  0  0  0  0  0  0
   -0.0289    2.3797   -4.0079 C   0  0  0  0  0  0  0  0  0  0  0  0
    3.8355    3.3271   -2.4245 N   0  0  0  0  0  0  0  0  0  0  0  0
    1.4382    0.7803   -1.3278 N   0  0  0  0  0  0  0  0  0  0  0  0
    2.5796    2.4100   -0.1971 O   0  0  0  0  0  0  0  0  0  0  0  0
    1.2584    1.9386   -4.4640 O   0  0  0  0  0  0  0  0  0  0  0  0
    3.1449    3.7175   -5.6031 H   0  0  0  0  0  0  0  0  0  0  0  0
    4.9612    4.5818   -3.7379 H   0  0  0  0  0  0  0  0  0  0  0  0
   -0.0379   -0.2412   -0.2632 H   0  0  0  0  0  0  0  0  0  0  0  0
    0.6818    1.1532    0.5903 H   0  0  0  0  0  0  0  0  0  0  0  0
    1.5882   -0.3650    0.4566 H   0  0  0  0  0  0  0  0  0  0  0  0
    1.9391   -1.1541   -1.9758 H   0  0  0  0  0  0  0  0  0  0  0  0
    2.1301    0.1122   -3.2060 H   0  0  0  0  0  0  0  0  0  0  0  0
    0.5113   -0.4532   -2.7735 H   0  0  0  0  0  0  0  0  0  0  0  0
   -0.7667    1.8349   -4.6009 H   0  0  0  0  0  0  0  0  0  0  0  0
   -0.1445    3.4575   -4.1734 H   0  0  0  0  0  0  0  0  0  0  0  0
   -0.1714    2.1566   -2.9446 H   0  0  0  0  0  0  0  0  0  0  0  0
    4.2564    3.5201   -1.5236 H   0  0  0  0  0  0  0  0  0  0  0  0
  1  2  2  0  0  0  0
  1  3  1  0  0  0  0
  1 13  1  0  0  0  0
  2  9  1  0  0  0  0
  2 14  1  0  0  0  0
  3  4  2  0  0  0  0
  3 12  1  0  0  0  0
  4  5  1  0  0  0  0
  4  9  1  0  0  0  0
  5 10  1  0  0  0  0
  5 11  2  0  0  0  0
  6 10  1  0  0  0  0
  6 15  1  0  0  0  0
  6 16  1  0  0  0  0
  6 17  1  0  0  0  0
  7 10  1  0  0  0  0
  7 18  1  0  0  0  0
  7 19  1  0  0  0  0
  7 20  1  0  0  0  0
  8 12  1  0  0  0  0
  8 21  1  0  0  0  0
  8 22  1  0  0  0  0
  8 23  1  0  0  0  0
  9 24  1  0  0  0  0
M  END
$$$$
