22
0 1 C8H10N2O2
C                     2.125118421077    -0.265770919518    -0.669735626211
C                     0.831323671106     0.319610239740    -0.754752829410
C                     3.197283145216     0.484446136224    -1.067455576141
C                     0.638841604472     1.612168577741    -1.180152769206
C                     1.767751609610     2.416838502930    -1.631406809943
C                    -0.775166279529     2.111469416783    -1.339989211075
C                    -2.411344130037     3.891569958699    -1.065704428208
C                    -0.228414675643     4.105519839876     0.068123257792
N                     3.008774993055     1.757073210382    -1.520065681107
N                    -1.101817110930     3.315608688260    -0.788017152295
O                     1.732767042741     3.563001283251    -2.088886255432
O                    -1.591279847111     1.405407960562    -1.944729371358
H                     2.267910361329    -1.279367008494    -0.314692892260
H                    -0.043279409063    -0.267658542254    -0.487142532242
H                     4.220568040286     0.123317938436    -1.051226578941
H                    -3.010140476638     3.953205969564    -0.148134767377
H                    -2.929644203685     3.262769137251    -1.787597088537
H                    -2.292599621519     4.902241867326    -1.474219826074
H                     0.211271281389     4.946807737939    -0.476672851089
H                     0.578413467049     3.491320165985     0.467469289914
H                    -0.812993083655     4.484845399461     0.914305933925
H                     3.797574459771     2.308934152531    -1.843284009822
