23
0 1 C11H10N2
C                     1.732645189105    -1.269013254193    -0.099586171491
C                     0.715644426873    -0.561753830727     0.555842106350
C                     5.638482527418    -4.058017649590     2.979189330219
C                     6.067903272080    -3.462616043589     4.169581112232
C                     2.759437793525    -1.823276258704     0.658526980834
C                     0.751832035796    -0.408473481740     1.936494082767
C                     4.565036839881    -3.500619317732     2.292061379503
C                     5.372744760853    -2.339415416046     4.617420218967
C                     2.818905807692    -1.699572968131     2.060757301038
C                     1.796004132174    -0.953519081800     2.715199700569
C                     3.935339237689    -2.342151854903     2.795567108287
N                     4.341498426399    -1.792251138603     3.962412351253
N                     1.755699249380    -0.809815284545     4.096214623759
H                     1.728993151962    -1.374863650875    -1.180407568033
H                    -0.099678518206    -0.119880371525    -0.011734599899
H                     6.125281062723    -4.952973070493     2.599599414868
H                     6.899258249309    -3.862698902060     4.742182832356
H                     3.562556626225    -2.343636609737     0.145068127231
H                    -0.037484754561     0.145391988976     2.441276716160
H                     4.195677925593    -3.972282866218     1.388231222852
H                     5.654528238800    -1.853015546976     5.550404409771
H                     2.669328011104    -0.862294471166     4.540089028997
H                     1.170986128725    -0.051571065610     4.425079950659
