
  -OEChem-05262117483D

 25 26  0     0  0  0  0  0  0999 V2000
   -0.5953   -5.8370    2.2460 C   0  0  0  0  0  0  0  0  0  0  0  0
   -1.8816   -5.3002    2.1301 C   0  0  0  0  0  0  0  0  0  0  0  0
   -0.2039   -5.3436   -0.1108 C   0  0  0  0  0  0  0  0  0  0  0  0
   -1.4879   -4.8033   -0.2247 C   0  0  0  0  0  0  0  0  0  0  0  0
    0.2129   -5.8504    1.1146 C   0  0  0  0  0  0  0  0  0  0  0  0
   -2.3140   -4.8045    0.9078 C   0  0  0  0  0  0  0  0  0  0  0  0
   -1.0502    0.2008   -1.0195 C   0  0  0  0  0  0  0  0  0  0  0  0
   -0.0106   -0.6209   -0.2528 C   0  0  0  0  0  0  0  0  0  0  0  0
   -1.1435   -2.0454   -1.5912 C   0  0  0  0  0  0  0  0  0  0  0  0
   -2.3321   -2.9951   -1.5637 C   0  0  0  0  0  0  0  0  0  0  0  0
   -1.5951   -0.7401   -1.9599 O   0  0  0  0  0  0  0  0  0  0  0  0
   -0.5627   -1.9394   -0.3049 O   0  0  0  0  0  0  0  0  0  0  0  0
   -1.9123   -4.3658   -1.4544 O   0  0  0  0  0  0  0  0  0  0  0  0
    1.4656   -6.3697    1.2084 F   0  0  0  0  0  0  0  0  0  0  0  0
   -3.5779   -4.3114    0.8071 F   0  0  0  0  0  0  0  0  0  0  0  0
   -0.2293   -6.2398    3.1844 H   0  0  0  0  0  0  0  0  0  0  0  0
   -2.5600   -5.2759    2.9773 H   0  0  0  0  0  0  0  0  0  0  0  0
    0.4550   -5.3539   -0.9723 H   0  0  0  0  0  0  0  0  0  0  0  0
   -1.8492    0.5621   -0.3620 H   0  0  0  0  0  0  0  0  0  0  0  0
   -0.6172    1.0432   -1.5666 H   0  0  0  0  0  0  0  0  0  0  0  0
    0.9706   -0.5957   -0.7469 H   0  0  0  0  0  0  0  0  0  0  0  0
    0.0989   -0.3383    0.7955 H   0  0  0  0  0  0  0  0  0  0  0  0
   -0.3901   -2.3844   -2.3204 H   0  0  0  0  0  0  0  0  0  0  0  0
   -2.8565   -2.9273   -2.5184 H   0  0  0  0  0  0  0  0  0  0  0  0
   -3.0106   -2.7110   -0.7568 H   0  0  0  0  0  0  0  0  0  0  0  0
  1  2  1  0  0  0  0
  1  5  2  0  0  0  0
  1 16  1  0  0  0  0
  2  6  2  0  0  0  0
  2 17  1  0  0  0  0
  3  4  2  0  0  0  0
  3  5  1  0  0  0  0
  3 18  1  0  0  0  0
  4  6  1  0  0  0  0
  4 13  1  0  0  0  0
  5 14  1  0  0  0  0
  6 15  1  0  0  0  0
  7  8  1  0  0  0  0
  7 11  1  0  0  0  0
  7 19  1  0  0  0  0
  7 20  1  0  0  0  0
  8 12  1  0  0  0  0
  8 21  1  0  0  0  0
  8 22  1  0  0  0  0
  9 10  1  0  0  0  0
  9 11  1  0  0  0  0
  9 12  1  0  0  0  0
  9 23  1  0  0  0  0
 10 13  1  0  0  0  0
 10 24  1  0  0  0  0
 10 25  1  0  0  0  0
M  END
$$$$
