
  -OEChem-05262117483D

 25 26  0     0  0  0  0  0  0999 V2000
   -4.0799   -1.1714   -0.2957 C   0  0  0  0  0  0  0  0  0  0  0  0
   -4.1238    0.1388   -0.7826 C   0  0  0  0  0  0  0  0  0  0  0  0
   -2.3370   -1.6712   -1.9260 C   0  0  0  0  0  0  0  0  0  0  0  0
   -2.3685   -0.3540   -2.4049 C   0  0  0  0  0  0  0  0  0  0  0  0
   -3.1853   -2.0512   -0.8932 C   0  0  0  0  0  0  0  0  0  0  0  0
   -3.2952    0.5277   -1.8255 C   0  0  0  0  0  0  0  0  0  0  0  0
    0.4584    0.3465   -0.4911 C   0  0  0  0  0  0  0  0  0  0  0  0
    1.1145   -0.4923   -1.5868 C   0  0  0  0  0  0  0  0  0  0  0  0
    0.2271    1.4026   -2.5412 C   0  0  0  0  0  0  0  0  0  0  0  0
   -0.8880    1.2038   -3.5666 C   0  0  0  0  0  0  0  0  0  0  0  0
   -0.3064    1.3112   -1.2255 O   0  0  0  0  0  0  0  0  0  0  0  0
    1.2709    0.4484   -2.6558 O   0  0  0  0  0  0  0  0  0  0  0  0
   -1.5399   -0.0717   -3.4551 O   0  0  0  0  0  0  0  0  0  0  0  0
   -3.1246   -3.3345   -0.4487 F   0  0  0  0  0  0  0  0  0  0  0  0
   -3.3992    1.8041   -2.2856 F   0  0  0  0  0  0  0  0  0  0  0  0
   -4.7234   -1.5030    0.5120 H   0  0  0  0  0  0  0  0  0  0  0  0
   -4.8099    0.8701   -0.3667 H   0  0  0  0  0  0  0  0  0  0  0  0
   -1.6537   -2.3856   -2.3722 H   0  0  0  0  0  0  0  0  0  0  0  0
   -0.2275   -0.2239    0.1401 H   0  0  0  0  0  0  0  0  0  0  0  0
    1.2021    0.8574    0.1331 H   0  0  0  0  0  0  0  0  0  0  0  0
    2.1044   -0.8667   -1.3170 H   0  0  0  0  0  0  0  0  0  0  0  0
    0.4762   -1.3255   -1.8986 H   0  0  0  0  0  0  0  0  0  0  0  0
    0.6726    2.3952   -2.7047 H   0  0  0  0  0  0  0  0  0  0  0  0
   -0.4446    1.1995   -4.5644 H   0  0  0  0  0  0  0  0  0  0  0  0
   -1.5997    2.0272   -3.4920 H   0  0  0  0  0  0  0  0  0  0  0  0
  1  2  1  0  0  0  0
  1  5  2  0  0  0  0
  1 16  1  0  0  0  0
  2  6  2  0  0  0  0
  2 17  1  0  0  0  0
  3  4  2  0  0  0  0
  3  5  1  0  0  0  0
  3 18  1  0  0  0  0
  4  6  1  0  0  0  0
  4 13  1  0  0  0  0
  5 14  1  0  0  0  0
  6 15  1  0  0  0  0
  7  8  1  0  0  0  0
  7 11  1  0  0  0  0
  7 19  1  0  0  0  0
  7 20  1  0  0  0  0
  8 12  1  0  0  0  0
  8 21  1  0  0  0  0
  8 22  1  0  0  0  0
  9 10  1  0  0  0  0
  9 11  1  0  0  0  0
  9 12  1  0  0  0  0
  9 23  1  0  0  0  0
 10 13  1  0  0  0  0
 10 24  1  0  0  0  0
 10 25  1  0  0  0  0
M  END
$$$$
