25
0 1 C10F2H10O3
C                    -0.568472661476    -2.067489308300    -6.274164472975
C                    -1.134450204778    -0.799286801221    -6.439692464458
C                    -0.462776588744    -1.679295543015    -3.867986202619
C                    -1.024368179030    -0.410358966600    -4.034676690599
C                    -0.250839200249    -2.479616250670    -4.984589429708
C                    -1.364076283475     0.002984622969    -5.330450124120
C                     2.852225276133     1.648891184825    -3.380954802883
C                     2.515065069997     3.045388113373    -2.852049176541
C                     0.794141129650     1.541572570096    -2.454949125962
C                    -0.675658373348     1.642395799152    -2.835651086054
O                     1.557784268494     1.062958416534    -3.546186820260
O                     1.285926371691     2.844923863609    -2.134129483458
O                    -1.290090959297     0.345315239711    -2.920292890941
F                     0.298830773620    -3.709712458096    -4.804950874985
F                    -1.940476675747     1.222421693218    -5.507413666876
H                    -0.383258155901    -2.722507024003    -7.118840793261
H                    -1.414161990988    -0.431392289612    -7.421988901488
H                    -0.190172657910    -2.022198385533    -2.875753510940
H                     3.353932823712     1.646177685799    -4.349997017694
H                     3.444658621324     1.073168499223    -2.656295657014
H                     3.269303830206     3.441416326096    -2.166031942332
H                     2.348500721989     3.759911510076    -3.666337289125
H                     0.926542225570     0.882499854097    -1.581777157934
H                    -0.776112665344     2.202599479325    -3.767516453357
H                    -1.208541893576     2.165403893651    -2.039750489805
