33
0 1 C11H17N3OS
C                     2.838339025821     4.144656325849    -0.112004997522
C                     2.717943791329     3.649740503180     1.160395080779
C                     1.583279978878     2.376591051739    -0.584258319301
C                     0.178083525156     0.381696686246    -0.976372287573
C                    -1.151511005053    -1.693543697622    -1.578545589127
C                    -1.597394373361     0.466453915266    -2.811596372841
C                    -2.436942934725    -1.446885261925    -0.781476230923
C                    -2.834094394870     0.652792366778    -1.929721318276
C                    -0.522510302788    -0.388755698566    -2.097764885925
C                     3.585184312546     5.374004710624    -0.544448577040
C                     3.272805882652     4.162913331208     2.457407540405
N                     2.187416406173     3.411340364699    -1.097277416058
N                    -3.384887801374    -0.663098786178    -1.590000349533
N                     0.866887903983     1.502008270808    -1.395347767318
O                     0.167824636453     0.052805657209     0.207055342427
S                     1.741631184362     2.185459265426     1.145221014223
H                    -0.433001300547    -2.233649629508    -0.956260002789
H                    -1.390511087612    -2.320410011233    -2.444914079219
H                    -1.898995447888    -0.057575380122    -3.724919328347
H                    -1.203319337848     1.443884049250    -3.111502111755
H                    -2.902996961356    -2.408649279216    -0.542118165272
H                    -2.181816827558    -0.950069761863     0.166716549957
H                    -2.560853456385     1.244271187408    -1.035645405773
H                    -3.592862472786     1.220416783644    -2.478661519730
H                     0.258103744997    -0.639221865924    -2.829164405347
H                     4.356316642448     5.112912813045    -1.277112835287
H                     2.904412356934     6.083106448674    -1.027640378062
H                     4.066698018549     5.879037195037     0.295085458410
H                     2.476585478156     4.410297813913     3.168799716175
H                     3.926468693024     3.425897458253     2.937634811317
H                     3.861188196375     5.068142320189     2.291902679258
H                    -4.248368359756    -0.540265854531    -1.065875902791
H                     0.881060402124     1.754243038365    -2.377081133337
