
  -OEChem-05262117483D

 31 32  0     0  0  0  0  0  0999 V2000
    7.6002   -3.2799   -3.2105 C   0  0  0  0  0  0  0  0  0  0  0  0
    6.5630   -2.6900   -3.9394 C   0  0  0  0  0  0  0  0  0  0  0  0
    7.4814   -3.4332   -1.8199 C   0  0  0  0  0  0  0  0  0  0  0  0
    5.4108   -2.2543   -3.2810 C   0  0  0  0  0  0  0  0  0  0  0  0
    6.3357   -3.0026   -1.1565 C   0  0  0  0  0  0  0  0  0  0  0  0
    1.7869   -0.9420   -0.2210 C   0  0  0  0  0  0  0  0  0  0  0  0
    0.4558   -0.7316    1.7675 C   0  0  0  0  0  0  0  0  0  0  0  0
    0.6220   -0.4880    0.3938 C   0  0  0  0  0  0  0  0  0  0  0  0
    5.2913   -2.4087   -1.8914 C   0  0  0  0  0  0  0  0  0  0  0  0
    2.7858   -1.6248    0.4926 C   0  0  0  0  0  0  0  0  0  0  0  0
    2.6214   -1.8663    1.8776 C   0  0  0  0  0  0  0  0  0  0  0  0
    1.4385   -1.4069    2.4819 C   0  0  0  0  0  0  0  0  0  0  0  0
   -0.1507    1.8133   -0.3386 C   0  0  0  0  0  0  0  0  0  0  0  0
   -0.4174    0.2981   -0.3754 C   0  0  0  0  0  0  0  0  0  0  0  0
    4.0809   -1.9343   -1.3256 N   0  0  0  0  0  0  0  0  0  0  0  0
    3.9869   -2.1036   -0.0767 N   0  0  0  0  0  0  0  0  0  0  0  0
    3.5919   -2.5286    2.5533 O   0  0  0  0  0  0  0  0  0  0  0  0
    1.1839   -1.7431    4.3614 Br  0  0  0  0  0  0  0  0  0  0  0  0
    8.4987   -3.6197   -3.7192 H   0  0  0  0  0  0  0  0  0  0  0  0
    6.6516   -2.5701   -5.0159 H   0  0  0  0  0  0  0  0  0  0  0  0
    8.2905   -3.8918   -1.2570 H   0  0  0  0  0  0  0  0  0  0  0  0
    4.5903   -1.7929   -3.8236 H   0  0  0  0  0  0  0  0  0  0  0  0
    6.2262   -3.1139   -0.0829 H   0  0  0  0  0  0  0  0  0  0  0  0
    1.9542   -0.7768   -1.2807 H   0  0  0  0  0  0  0  0  0  0  0  0
   -0.4418   -0.3946    2.2781 H   0  0  0  0  0  0  0  0  0  0  0  0
   -0.1548    2.1866    0.6910 H   0  0  0  0  0  0  0  0  0  0  0  0
   -0.9145    2.3593   -0.9026 H   0  0  0  0  0  0  0  0  0  0  0  0
    0.8274    2.0465   -0.7720 H   0  0  0  0  0  0  0  0  0  0  0  0
   -0.4329   -0.0430   -1.4163 H   0  0  0  0  0  0  0  0  0  0  0  0
   -1.4125    0.0937    0.0356 H   0  0  0  0  0  0  0  0  0  0  0  0
    3.3156   -2.6082    3.4854 H   0  0  0  0  0  0  0  0  0  0  0  0
  1  2  1  0  0  0  0
  1  3  2  0  0  0  0
  1 19  1  0  0  0  0
  2  4  2  0  0  0  0
  2 20  1  0  0  0  0
  3  5  1  0  0  0  0
  3 21  1  0  0  0  0
  4  9  1  0  0  0  0
  4 22  1  0  0  0  0
  5  9  2  0  0  0  0
  5 23  1  0  0  0  0
  6  8  2  0  0  0  0
  6 10  1  0  0  0  0
  6 24  1  0  0  0  0
  7  8  1  0  0  0  0
  7 12  2  0  0  0  0
  7 25  1  0  0  0  0
  8 14  1  0  0  0  0
  9 15  1  0  0  0  0
 10 11  2  0  0  0  0
 10 16  1  0  0  0  0
 11 12  1  0  0  0  0
 11 17  1  0  0  0  0
 12 18  1  0  0  0  0
 13 14  1  0  0  0  0
 13 26  1  0  0  0  0
 13 27  1  0  0  0  0
 13 28  1  0  0  0  0
 14 29  1  0  0  0  0
 14 30  1  0  0  0  0
 15 16  2  0  0  0  0
 17 31  1  0  0  0  0
M  END
$$$$
