
  -OEChem-05262117483D

 33 34  0     0  0  0  0  0  0999 V2000
    2.7314    4.3108   -0.0063 C   0  0  0  0  0  0  0  0  0  0  0  0
    2.8966    3.6630    1.1901 C   0  0  0  0  0  0  0  0  0  0  0  0
    1.5798    2.4756   -0.4857 C   0  0  0  0  0  0  0  0  0  0  0  0
    0.3342    0.3813   -0.8981 C   0  0  0  0  0  0  0  0  0  0  0  0
    0.3523   -0.6218   -3.2475 C   0  0  0  0  0  0  0  0  0  0  0  0
   -1.0956   -1.6420   -1.4456 C   0  0  0  0  0  0  0  0  0  0  0  0
    1.3544   -1.7535   -3.0092 C   0  0  0  0  0  0  0  0  0  0  0  0
   -0.0593   -2.7636   -1.3161 C   0  0  0  0  0  0  0  0  0  0  0  0
   -0.4828   -0.3342   -1.9763 C   0  0  0  0  0  0  0  0  0  0  0  0
    3.2685    5.6588   -0.3941 C   0  0  0  0  0  0  0  0  0  0  0  0
    3.6326    4.0852    2.4284 C   0  0  0  0  0  0  0  0  0  0  0  0
    1.9801    3.6245   -0.9533 N   0  0  0  0  0  0  0  0  0  0  0  0
    0.6283   -2.9610   -2.6026 N   0  0  0  0  0  0  0  0  0  0  0  0
    0.8100    1.6224   -1.2701 N   0  0  0  0  0  0  0  0  0  0  0  0
    0.5549   -0.0694    0.2230 O   0  0  0  0  0  0  0  0  0  0  0  0
    2.0725    2.1084    1.1499 S   0  0  0  0  0  0  0  0  0  0  0  0
    0.8783    0.2736   -3.5972 H   0  0  0  0  0  0  0  0  0  0  0  0
   -0.3339   -0.9287   -4.0442 H   0  0  0  0  0  0  0  0  0  0  0  0
   -1.8715   -1.9608   -2.1506 H   0  0  0  0  0  0  0  0  0  0  0  0
   -1.5689   -1.4672   -0.4757 H   0  0  0  0  0  0  0  0  0  0  0  0
    1.8955   -1.9646   -3.9376 H   0  0  0  0  0  0  0  0  0  0  0  0
    2.0997   -1.4309   -2.2579 H   0  0  0  0  0  0  0  0  0  0  0  0
    0.6370   -2.5169   -0.5005 H   0  0  0  0  0  0  0  0  0  0  0  0
   -0.5688   -3.6965   -1.0524 H   0  0  0  0  0  0  0  0  0  0  0  0
   -1.2962    0.3526   -2.2481 H   0  0  0  0  0  0  0  0  0  0  0  0
    3.9199    5.5717   -1.2704 H   0  0  0  0  0  0  0  0  0  0  0  0
    2.4481    6.3322   -0.6646 H   0  0  0  0  0  0  0  0  0  0  0  0
    3.8399    6.1214    0.4130 H   0  0  0  0  0  0  0  0  0  0  0  0
    2.9663    4.1376    3.2970 H   0  0  0  0  0  0  0  0  0  0  0  0
    4.4422    3.3890    2.6756 H   0  0  0  0  0  0  0  0  0  0  0  0
    4.0768    5.0738    2.2927 H   0  0  0  0  0  0  0  0  0  0  0  0
    1.2848   -3.7334   -2.5146 H   0  0  0  0  0  0  0  0  0  0  0  0
    0.6078    1.9903   -2.1929 H   0  0  0  0  0  0  0  0  0  0  0  0
  1  2  2  0  0  0  0
  1 10  1  0  0  0  0
  1 12  1  0  0  0  0
  2 11  1  0  0  0  0
  2 16  1  0  0  0  0
  3 12  2  0  0  0  0
  3 14  1  0  0  0  0
  3 16  1  0  0  0  0
  4  9  1  0  0  0  0
  4 14  1  0  0  0  0
  4 15  2  0  0  0  0
  5  7  1  0  0  0  0
  5  9  1  0  0  0  0
  5 17  1  0  0  0  0
  5 18  1  0  0  0  0
  6  8  1  0  0  0  0
  6  9  1  0  0  0  0
  6 19  1  0  0  0  0
  6 20  1  0  0  0  0
  7 13  1  0  0  0  0
  7 21  1  0  0  0  0
  7 22  1  0  0  0  0
  8 13  1  0  0  0  0
  8 23  1  0  0  0  0
  8 24  1  0  0  0  0
  9 25  1  0  0  0  0
 10 26  1  0  0  0  0
 10 27  1  0  0  0  0
 10 28  1  0  0  0  0
 11 29  1  0  0  0  0
 11 30  1  0  0  0  0
 11 31  1  0  0  0  0
 13 32  1  0  0  0  0
 14 33  1  0  0  0  0
M  END
$$$$
