19
0 1 BrC9H7N2
C                     1.562408277170    -1.264723373299     5.800238236821
C                     0.767730276073     0.377483377295     1.928138385194
C                     1.029246515565    -0.143937100903     3.195215512267
C                     0.400597250470    -1.881142093614     1.175553917614
C                     0.448057762759    -0.510985855036     0.903050128275
C                     0.960603140077    -1.530645388786     3.385740104773
C                     0.446859361589    -3.429773803032     5.100304483363
C                     1.892618735497    -3.548553009699     4.753027139223
C                     1.229099422773    -2.162858953442     4.719442209034
N                     1.831271057419    -0.541748175150     6.672806117312
N                     0.651654572274    -2.375934131149     2.389984214726
Br                    0.076231766106     0.123343873411    -0.861240784088
H                     0.812226845638     1.446702621703     1.746234877925
H                     1.281690916674     0.516524541229     4.018462235188
H                     0.153658012179    -2.594384336414     0.392371418276
H                    -0.277956902285    -3.746282535140     4.358334003561
H                     0.147307187137    -3.519307761271     6.138982804817
H                     2.610770366952    -3.721896043690     5.547275289672
H                     2.146067731914    -3.945766399453     3.776272886248
