21   
torsion grid (-165,)
C        1.9531065643   -1.0867979626   -0.1251309887
C        2.8360890355   -1.8228653685    0.6720374469
C        0.9631015059   -0.3004972815    0.4739239757
C        2.7329995975   -1.7692664850    2.0639109256
C        0.8593427477   -0.2467108905    1.8655404640
C        1.7491701371   -0.9740596236    2.6681845711
C        1.6265981232   -0.9375815797    4.1647293522
N        0.6082874298   -1.9506201387    6.4727442549
O       -0.8614193036   -1.9563556839    4.2214582378
O        1.1005510186   -3.5667347519    4.5335162824
O        0.0689103668   -3.0831785294    7.1545307407
S        0.4840061097   -2.2525942013    4.7264476735
H        2.0338077086   -1.1283753128   -1.2081721611
H        3.6017982912   -2.4405634084    0.2106363648
H        0.2704474645    0.2669078147   -0.1417291313
H        3.4084107471   -2.3537120225    2.6832101819
H        0.0788300052    0.3498173299    2.3305054653
H        1.2009016891    0.0020710804    4.5255703451
H        2.5694263621   -1.1374689999    4.6757905026
H       -0.0768763321   -1.2185225645    6.6850164890
H        0.8429869716   -3.6623703740    7.2689775142
21   
torsion grid (-150,)
C        1.9731406239   -1.0847631596   -0.1237289076
C        2.8253865966   -1.8517678533    0.6777768030
C        1.0002589235   -0.2726874675    0.4689737772
C        2.7081321478   -1.8032637798    2.0687051218
C        0.8833963264   -0.2245852684    1.8597609826
C        1.7418010277   -0.9830525382    2.6679259128
C        1.6032369739   -0.9510923412    4.1628049572
N        0.5012281342   -1.9231309072    6.4620216089
O       -0.9073971086   -1.9152478245    4.1889191272
O        1.0352686109   -3.5581750835    4.5239833621
O        0.2637756160   -3.1358582409    7.1708972623
S        0.4257501290   -2.2402590928    4.7105218723
H        2.0645660429   -1.1221676575   -1.2060648649
H        3.5775123120   -2.4890771543    0.2206554401
H        0.3317969028    0.3190075483   -0.1505943129
H        3.3590364210   -2.4113047585    2.6915277531
H        0.1164120983    0.3926303151    2.3202181756
H        1.1979666127   -0.0042159647    4.5273469872
H        2.5345857547   -1.1761849045    4.6843484620
H       -0.3305017371   -1.3659979923    6.6788175448
H        1.1518539347   -3.5215975458    7.2658501708
21   
torsion grid (-135,)
C        1.9916929847   -1.0644279715   -0.1249272314
C        2.8183197111   -1.8651088056    0.6704960534
C        1.0347389992   -0.2388249045    0.4749599943
C        2.6917952223   -1.8367861768    2.0611370017
C        0.9079955288   -0.2102855792    1.8655017388
C        1.7413085377   -1.0030339237    2.6671141424
C        1.5911402057   -0.9909714156    4.1608435197
N        0.4010086732   -1.9419948750    6.4423382115
O       -0.9431469739   -1.8713627772    4.1830301181
O        0.9539773302   -3.5853861114    4.4636848322
O        0.4731122145   -3.1599369611    7.1707417464
S        0.3812827555   -2.2589126200    4.6859614901
H        2.0905285730   -1.0861758418   -1.2070679910
H        3.5580833458   -2.5132312473    0.2084238932
H        0.3857643594    0.3793039319   -0.1395067743
H        3.3227882366   -2.4711503428    2.6782529337
H        0.1529696957    0.4180109240    2.3307058969
H        1.2040478082   -0.0433812002    4.5411673557
H        2.5152281963   -1.2436998734    4.6837977001
H       -0.5394855272   -1.5927450301    6.6487339785
H        1.4133014252   -3.2321778844    7.4064620567
21   
torsion grid (-120,)
C        2.0056162752   -1.0462366639   -0.1128989053
C        2.8104766549   -1.8773343572    0.6736428837
C        1.0632788099   -0.2097946789    0.4950450382
C        2.6771726883   -1.8683910669    2.0638893874
C        0.9296694585   -0.2006919385    1.8852452478
C        1.7416776646   -1.0238816347    2.6781454021
C        1.5826880085   -1.0296297168    4.1709469535
N        0.3206182993   -1.9747201033    6.4261405384
O       -0.9771099802   -1.8184963835    4.2067518249
O        0.8577250868   -3.6101436169    4.4015029954
O        0.6916112018   -3.1354400771    7.1563410375
S        0.3392246792   -2.2723127554    4.6747334243
H        2.1099505576   -1.0528619894   -1.1947288844
H        3.5385222031   -2.5338725431    0.2048786703
H        0.4310489416    0.4318162605   -0.1127959013
H        3.2908423454   -2.5262745343    2.6738683968
H        0.1859209851    0.4360803944    2.3569852855
H        1.2136776367   -0.0812841750    4.5654825652
H        2.5006284318   -1.3103783169    4.6919301606
H       -0.6734027554   -1.8449696116    6.6383519657
H        1.5718994175   -2.9149970685    7.5045212065
21   
torsion grid (-105,)
C        2.0296547345   -1.0459802209   -0.0767510588
C        2.8017784704   -1.9075777022    0.7098950174
C        1.1020003314   -0.1909235776    0.5277619197
C        2.6498806357   -1.9097822936    2.0981657857
C        0.9498958511   -0.1934484448    1.9161606876
C        1.7293726085   -1.0469525781    2.7095746874
C        1.5481992246   -1.0635270453    4.1998149330
N        0.2441575928   -2.0258397105    6.4180223880
O       -1.0361157658   -1.7927119395    4.2417343824
O        0.7541746914   -3.6285143504    4.3461286822
O        0.9030168931   -3.0760104122    7.1166589261
S        0.2769933795   -2.2877081370    4.6738884534
H        2.1479811959   -1.0434988502   -1.1571454693
H        3.5177069861   -2.5786475852    0.2430253650
H        0.4954928834    0.4741369831   -0.0810850010
H        3.2363539564   -2.5913726036    2.7087721111
H        0.2175829308    0.4581742269    2.3856366759
H        1.1877544456   -0.1137646717    4.5980077410
H        2.4547689288   -1.3656310107    4.7297740304
H       -0.7478709970   -2.1185234475    6.6603515624
H        1.6532949858   -2.6260020330    7.5406940247
21   
torsion grid (-90,)
C        2.0443454497   -1.0366447107   -0.0719843338
C        2.7858335106   -1.9239839628    0.7155452375
C        1.1300637063   -0.1668475727    0.5317359990
C        2.6175342022   -1.9384453358    2.1018401957
C        0.9617008992   -0.1809473671    1.9182992153
C        1.7107821802   -1.0607277169    2.7122513957
C        1.5100110808   -1.0897594187    4.2000158548
N        0.1682531204   -2.0503919367    6.3791215094
O       -1.1067703063   -1.7525529421    4.2285458121
O        0.6321736711   -3.6281299501    4.2729434883
O        1.0786091657   -2.9422206762    7.0222153403
S        0.1984050280   -2.2817743065    4.6398435164
H        2.1757938978   -1.0255904863   -1.1508235904
H        3.4914087667   -2.6068221778    0.2500413135
H        0.5462729631    0.5187873096   -0.0764711260
H        3.1797412646   -2.6409211687    2.7115318325
H        0.2393685929    0.4829649815    2.3860565396
H        1.1717414244   -0.1348511243    4.6054213384
H        2.3999901202   -1.4288110254    4.7357238099
H       -0.7697781783   -2.3556684499    6.6618768193
H        1.6798098796   -2.3377877044    7.4900777562
21   
torsion grid (-75,)
C        2.0555717179   -1.0244896641   -0.0511818977
C        2.7709859453   -1.9409744818    0.7271060730
C        1.1609247724   -0.1406049702    0.5613419433
C        2.5966655255   -1.9711945889    2.1123306797
C        0.9855534608   -0.1691457455    1.9468244586
C        1.7094390036   -1.0788738527    2.7302356655
C        1.5020339345   -1.1251310332    4.2168626555
N        0.1302632610   -2.0937535402    6.3637590309
O       -1.1375002640   -1.7663595117    4.2110728786
O        0.5856834939   -3.6458246436    4.2399209020
O        1.2568408326   -2.7589577748    6.9462978169
S        0.1640105497   -2.2987895860    4.6245313033
H        2.1918877014   -1.0017626624   -1.1292426771
H        3.4610585029   -2.6348935750    0.2548388984
H        0.5971650209    0.5677789443   -0.0395968437
H        3.1374135121   -2.6963323185    2.7147630833
H        0.2780124648    0.5062396078    2.4208698183
H        1.1808686019   -0.1682319317    4.6323744909
H        2.3794088495   -1.4949110824    4.7513791395
H       -0.6974710756   -2.6129939271    6.6788026842
H        1.6925247273   -2.0429965322    7.4396757004
21   
torsion grid (-60,)
C       -3.9052860572   -6.3784196583    5.6538799940
C       -2.6663640632   -7.0150297566    5.7853145466
C       -3.9600657727   -4.9970819869    5.4394136169
C       -1.4861104883   -6.2737209191    5.6982222403
C       -2.7798415556   -4.2552574748    5.3518219169
C       -1.5359594875   -4.8910254250    5.4722214702
C       -0.2681792210   -4.0904963734    5.4036284795
N        1.7541751836   -2.7379633922    6.8625261886
O       -0.6891437806   -2.3484542354    7.4116826651
O        0.4077325471   -4.6037737031    7.9623563656
O        2.6868444472   -3.7111200874    6.3940444685
S        0.1888661237   -3.4687482083    7.0693381455
H       -4.8237307047   -6.9555978823    5.7215619336
H       -2.6197861301   -8.0867406811    5.9589223916
H       -4.9204371955   -4.4976688305    5.3439812047
H       -0.5238776169   -6.7646943562    5.8175904020
H       -2.8222662227   -3.1795039253    5.2017549825
H       -0.3707012788   -3.1960293646    4.7847422334
H        0.5906043840   -4.6789068664    5.0726955173
H        1.7085329043   -2.0227603961    6.1327230489
H        3.1157269572   -4.0105522313    7.2147809067
21   
torsion grid (-45,)
C       -3.9176834172   -6.3533868615    5.6319360815
C       -2.6910332535   -7.0019435198    5.8114528271
C       -3.9478546943   -4.9788300820    5.3737747220
C       -1.4992264097   -6.2789004419    5.7287941549
C       -2.7559361448   -4.2554046692    5.2906266906
C       -1.5239972077   -4.9033591949    5.4592121471
C       -0.2433003331   -4.1227839777    5.3921737445
N        1.7207975723   -2.6863258696    6.8649637810
O       -0.7336387873   -2.3641051870    7.3987963511
O        0.4029205086   -4.5998334238    7.9434445325
O        2.5981599892   -3.5221850175    6.1076949120
S        0.1717350964   -3.4630487779    7.0552123015
H       -4.8454645867   -6.9158527066    5.6961802046
H       -2.6631476218   -8.0682293058    6.0191692077
H       -4.8987240033   -4.4698610016    5.2410366296
H       -0.5469454991   -6.7782533017    5.8862502645
H       -2.7804937226   -3.1844884975    5.1060187415
H       -0.3180416044   -3.2495448111    4.7397243765
H        0.6156664856   -4.7293989106    5.1026855431
H        1.5887281406   -1.8457690307    6.2961306051
H        3.1809087296   -3.8986183651    6.7904813856
21   
torsion grid (-30,)
C       -3.9497194574   -6.3089638538    5.6115301928
C       -2.7457087017   -6.9808959283    5.8488810056
C       -3.9383874989   -4.9437301529    5.3065221717
C       -1.5339137426   -6.2906102741    5.7771532968
C       -2.7264676040   -4.2533427310    5.2345987903
C       -1.5165821665   -4.9248294667    5.4610971105
C       -0.2145472577   -4.1791478105    5.4019242066
N        1.6740209065   -2.6220309926    6.8763521810
O       -0.8017043896   -2.4391672827    7.4179087982
O        0.4329399247   -4.6199275324    7.9485300450
O        2.4761045114   -3.2242612865    5.8572657462
S        0.1590385955   -3.4886771082    7.0643469710
H       -4.8928478596   -6.8462188454    5.6673932553
H       -2.7508883251   -8.0397825229    6.0930133169
H       -4.8718954753   -4.4166041905    5.1289457268
H       -0.5994967565   -6.8071452089    5.9796101564
H       -2.7187009036   -3.1890963713    5.0138174643
H       -0.2470603506   -3.3266523417    4.7197468042
H        0.6347453324   -4.8148311377    5.1543669704
H        1.4295063291   -1.6991288242    6.5063176256
H        3.2026602348   -3.6293031034    6.3625958001
21   
torsion grid (-15,)
C       -3.9720191531   -6.2824521996    5.5997178327
C       -2.7898804565   -6.9676513078    5.9005425370
C       -3.9221831749   -4.9282815715    5.2523082516
C       -1.5629957415   -6.3026389313    5.8492012813
C       -2.6954789821   -4.2625410766    5.2014824715
C       -1.5073408807   -4.9482111575    5.4909746731
C       -0.1891316910   -4.2292971107    5.4493082767
N        1.6633126189   -2.6264496187    6.9358279171
O       -0.8353004084   -2.5270353829    7.4892320009
O        0.4497467475   -4.6766077263    7.9942376295
O        2.3241451062   -2.9643531812    5.7124730116
S        0.1579741493   -3.5419050264    7.1192599773
H       -4.9269331498   -6.8000273295    5.6391804069
H       -2.8239474351   -8.0176375753    6.1783906295
H       -4.8383171320   -4.3900604093    5.0246658113
H       -0.6466423531   -6.8295968874    6.1010378734
H       -2.6596052186   -3.2064897744    4.9467172921
H       -0.1880564131   -3.3843675472    4.7583430293
H        0.6499883049   -4.8863691644    5.2247247480
H        1.3570821783   -1.6587305153    6.7980361401
H        3.1411576348   -3.3959975453    6.0174343770
21   
torsion grid (0,)
C       -3.9693630738   -6.2570872575    5.5765040943
C       -2.8027776365   -6.9540686080    5.9093179646
C       -3.8980882727   -4.9084882927    5.2115175950
C       -1.5664581942   -6.3057231344    5.8730587637
C       -2.6613023760   -4.2608791242    5.1751115445
C       -1.4877815078   -4.9574448121    5.4967003033
C       -0.1602631871   -4.2545903087    5.4676566923
N        1.7008633869   -2.6646728525    6.9612625476
O       -0.8421463577   -2.5110413795    7.4510999459
O        0.3964606742   -4.6567894010    8.0506191380
O        2.2086478264   -2.7766176445    5.6269406769
S        0.1528896609   -3.5438913337    7.1334802927
H       -4.9312289660   -6.7623252862    5.6049366199
H       -2.8562761066   -7.9996396078    6.2004588406
H       -4.8029614695   -4.3619445000    4.9598058543
H       -0.6619711869   -6.8408235812    6.1496493401
H       -2.6060236570   -3.2089791582    4.9074338189
H       -0.1312205941   -3.4235105184    4.7624614248
H        0.6728455614   -4.9302159642    5.2742275264
H        1.4195729716   -1.6818326298    7.0341100162
H        3.0442831589   -3.2579662022    5.7545265082
21   
torsion grid (15,)
C       -4.0004536619   -6.2715049231    5.5650170735
C       -2.8405985746   -6.9702926233    5.9169748363
C       -3.9162980542   -4.9258393364    5.1920677066
C       -1.6002819485   -6.3291514787    5.8926103476
C       -2.6765338640   -4.2833807751    5.1663254657
C       -1.5110736493   -4.9839874464    5.5078693913
C       -0.1803064704   -4.2867394112    5.4911721016
N        1.7230203523   -2.7867892219    6.9979313895
O       -0.8551937693   -2.4694240161    7.3857453293
O        0.2571426055   -4.6354069524    8.1255377682
O        2.0979378529   -2.6734785512    5.6188229222
S        0.1066850772   -3.5556349718    7.1506726102
H       -4.9650472094   -6.7719861384    5.5848352099
H       -2.9026165433   -8.0135382687    6.2145305365
H       -4.8151137609   -4.3765308824    4.9252899158
H       -0.7021821762   -6.8672128314    6.1842475912
H       -2.6124007155   -3.2335693439    4.8927176398
H       -0.1354558283   -3.4620661711    4.7807120881
H        0.6507548051   -4.9717365674    5.3172785589
H        1.5405577855   -1.8177544702    7.2802957954
H        2.9051304618   -3.2139752218    5.5751993538
21   
torsion grid (30,)
C       -4.0227690707   -6.2839527562    5.5485974025
C       -2.8755799492   -6.9912889050    5.9239903617
C       -3.9191511615   -4.9449426724    5.1568971383
C       -1.6287334229   -6.3627640056    5.9034151113
C       -2.6726493235   -4.3154450923    5.1356789714
C       -1.5194471093   -5.0244928460    5.5001877517
C       -0.1815774406   -4.3404832328    5.4924808870
N        1.7545678415   -2.9393247667    6.9910769058
O       -0.8338695067   -2.4847151907    7.3309437664
O        0.1988003128   -4.6549862766    8.1599388282
O        1.9997656888   -2.5589281753    5.6288697111
S        0.1002315378   -3.6040552107    7.1475551099
H       -4.9933030154   -6.7729177554    5.5649197509
H       -2.9524716834   -8.0290676641    6.2368382434
H       -4.8088865251   -4.3900182979    4.8719582205
H       -0.7399622938   -6.9061362557    6.2133409603
H       -2.5935916585   -3.2703324460    4.8484462708
H       -0.1239235454   -3.5155074260    4.7841496711
H        0.6432903719   -5.0366750789    5.3273011706
H        1.6995532574   -2.0460598818    7.4936125497
H        2.7586798796   -3.1180016249    5.3908679140
21   
torsion grid (45,)
C       -4.0383739546   -6.2869009787    5.5344940454
C       -2.9035065674   -7.0012097798    5.9331930716
C       -3.9161237249   -4.9553321544    5.1231157425
C       -1.6492354367   -6.3872731395    5.9163733124
C       -2.6621495433   -4.3408417606    5.1054614523
C       -1.5209665745   -5.0568755735    5.4933212867
C       -0.1755275173   -4.3881044257    5.4923255302
N        1.7629419571   -3.0300288770    6.9437600859
O       -0.8202874715   -2.4722198316    7.2536163514
O        0.1774102076   -4.6167020981    8.1855980730
O        1.9034834858   -2.3967823537    5.6623399828
S        0.0979455183   -3.6103041442    7.1265770865
H       -5.0144547822   -6.7647630289    5.5480138937
H       -2.9956187276   -8.0330479529    6.2612161812
H       -4.7965097508   -4.3949348866    4.8203603116
H       -0.7698754323   -6.9358868027    6.2436832501
H       -2.5678695953   -3.3010571071    4.8039175599
H       -0.1006557497   -3.5781618671    4.7679446416
H        0.6444432588   -5.0971508137    5.3575375146
H        1.8451938923   -2.2660237694    7.6246825017
H        2.6103925208   -2.9219742415    5.2504345923
21   
torsion grid (60,)
C       -4.0418195300   -6.2679200857    5.5417209772
C       -2.9189218241   -6.9842044812    5.9695501454
C       -3.9001115610   -4.9483045405    5.0991282021
C       -1.6578133820   -6.3842262558    5.9505174441
C       -2.6393060573   -4.3480148150    5.0794883468
C       -1.5098591991   -5.0661337173    5.4965532123
C       -0.1570410195   -4.4131960091    5.4972024041
N        1.7797159285   -3.0580520490    6.8832477085
O       -0.7961721910   -2.4492139108    7.2034443563
O        0.2139299119   -4.5642285350    8.1943122412
O        1.8384744293   -2.1783411775    5.7505820201
S        0.1187056480   -3.5898429816    7.1055955001
H       -5.0232643047   -6.7346262534    5.5567402412
H       -3.0255998840   -8.0066265943    6.3217729893
H       -4.7710358822   -4.3859072268    4.7735789620
H       -0.7878379183   -6.9342760577    6.2997718145
H       -2.5307770872   -3.3168377194    4.7540097060
H       -0.0685703674   -3.6220751732    4.7519904070
H        0.6588583231   -5.1313282441    5.3913545140
H        1.9852253078   -2.4694370200    7.6991047816
H        2.4930992090   -2.6176770001    5.1813538508
21   
torsion grid (75,)
C       -3.6729570393   -6.5490690079    5.7555359926
C       -2.3534610245   -7.0079030650    5.8434284283
C       -3.9274226726   -5.1850666639    5.5781630257
C       -1.2887843969   -6.1089877133    5.7608800335
C       -2.8602407220   -4.2840735068    5.4961723651
C       -1.5360088666   -4.7395889840    5.5915438759
C       -0.4041555192   -3.7551543515    5.5410096687
N       -0.9611748717   -3.0129846824    8.1600310889
O        1.0392514497   -4.6835234156    7.5815174011
O        1.1679895889   -2.1838385431    7.0799731970
O       -1.7247701203   -4.1609306240    8.5131093396
S        0.4049113144   -3.4336472601    7.1519068399
H       -4.4990163250   -7.2518159894    5.8222403200
H       -2.1545887388   -8.0668337714    5.9839324990
H       -4.9493034569   -4.8233754188    5.5006048035
H       -0.2661142603   -6.4606765064    5.8615346950
H       -3.0569228197   -3.2230836664    5.3586954390
H       -0.7148734726   -2.7739633348    5.1777560708
H        0.4346932145   -4.1113955279    4.9363125732
H       -0.5603386788   -2.6577888337    9.0335771441
H       -2.5102089122   -4.0908043982    7.9413621201
21   
torsion grid (90,)
C       -3.6563710418   -6.5290124619    5.7909230454
C       -2.3445939519   -7.0159516962    5.7889711621
C       -3.8864403789   -5.1535147026    5.6729388001
C       -1.2667468088   -6.1351935212    5.6755128921
C       -2.8078882080   -4.2703311091    5.5577863213
C       -1.4906869145   -4.7559658409    5.5606770155
C       -0.3372391098   -3.7963360433    5.5027074116
N       -1.0604120900   -3.0160659090    8.0321315413
O        0.9537811897   -4.7337025259    7.6499437769
O        1.1652790261   -2.2396226496    7.1121720493
O       -1.7038901535   -4.1337580704    8.6288434529
S        0.3828406208   -3.4806497061    7.1544128223
H       -4.4933923749   -7.2158930037    5.8824387658
H       -2.1607817736   -8.0825179312    5.8845792591
H       -4.9025855279   -4.7682599792    5.6679482624
H       -0.2485763569   -6.5123683167    5.7062591686
H       -2.9873534542   -3.2010781386    5.4763786613
H       -0.6188012019   -2.8135936032    5.1215193486
H        0.5085083326   -4.1836898266    4.9285260357
H       -0.7253568884   -2.4400445293    8.8103890413
H       -2.4593999046   -4.2967864876    8.0343240425
21   
torsion grid (105,)
C       -3.6508576416   -6.5477255039    5.7575252294
C       -2.3429528817   -7.0398237636    5.6916982999
C       -3.8765950764   -5.1669965502    5.7123091847
C       -1.2646701399   -6.1580526348    5.5852606021
C       -2.7971665421   -4.2850471625    5.6034811708
C       -1.4827594190   -4.7737787499    5.5381893122
C       -0.3232883536   -3.8191708798    5.4926882031
N       -1.1293349249   -2.9672548656    7.9534417327
O        0.7974755751   -4.8027907484    7.7250365484
O        1.2034640354   -2.3387799988    7.1304981593
O       -1.6930842466   -3.9531562708    8.8040428250
S        0.3436353750   -3.5291453966    7.1700319327
H       -4.4886967384   -7.2345799256    5.8423815331
H       -2.1618995294   -8.1104657233    5.7308315059
H       -4.8901798853   -4.7774130495    5.7578767088
H       -0.2486624089   -6.5420156484    5.5636665914
H       -2.9724232437   -3.2127313347    5.5800526013
H       -0.5908590078   -2.8309534199    5.1162720273
H        0.5293330600   -4.2095833023    4.9311530563
H       -0.8124227039   -2.2243775235    8.5838141285
H       -2.4229723913   -4.3165064085    8.2689045691
21   
torsion grid (120,)
C       -3.6476893288   -6.5830799284    5.6720987971
C       -2.3384349300   -7.0679819491    5.5833843530
C       -3.8786876773   -5.2027777721    5.6888675033
C       -1.2642511598   -6.1778576460    5.5131795344
C       -2.8035971953   -4.3126020997    5.6180152564
C       -1.4885423823   -4.7937444173    5.5257990362
C       -0.3306023014   -3.8379876312    5.5051390240
N       -1.1347799866   -2.8932370030    7.9400507570
O        0.6516806886   -4.8538868056    7.7943807929
O        1.2796545219   -2.4512428910    7.1287697393
O       -1.5786906646   -3.6813030994    9.0325294168
S        0.3225206365   -3.5647715135    7.1913528944
H       -4.4831160616   -7.2760456557    5.7267691830
H       -2.1533914090   -8.1386686581    5.5741131817
H       -4.8938823114   -4.8200468960    5.7537196144
H       -0.2469007352   -6.5567857681    5.4684713052
H       -2.9822907533   -3.2411049546    5.6424976312
H       -0.5893147724   -2.8453534405    5.1334098304
H        0.5288171629   -4.2222836231    4.9494393922
H       -0.8094870092   -2.0238021740    8.3734931801
H       -2.3042129812   -4.2062352311    8.6489893033
21   
torsion grid (135,)
C       -3.6627621139   -6.6234009617    5.5657326506
C       -2.3496935938   -7.1026529400    5.5055528227
C       -3.8989258190   -5.2447564794    5.6065242854
C       -1.2778360757   -6.2074670035    5.4836284146
C       -2.8261725062   -4.3498458486    5.5865944771
C       -1.5082471689   -4.8246435072    5.5185619425
C       -0.3540620418   -3.8659963545    5.5236310903
N       -1.0995801068   -2.8688660794    7.9643488243
O        0.5506946546   -4.9123902097    7.8355805057
O        1.3696956490   -2.5869374840    7.1089377857
O       -1.3485940577   -3.4342150708    9.2423816410
S        0.3229254126   -3.6143062341    7.2048018668
H       -4.4970420539   -7.3198581183    5.5802200072
H       -2.1604787814   -8.1723502249    5.4781545107
H       -4.9169877550   -4.8670483732    5.6524314208
H       -0.2581762991   -6.5820081110    5.4559820032
H       -3.0097332183   -3.2797539399    5.6317442407
H       -0.6145197844   -2.8684106760    5.1648979628
H        0.5071700655   -4.2334665545    4.9589016464
H       -0.7998095875   -1.9135093541    8.1800131469
H       -2.0296415569   -4.1059797939    9.0630419511
21   
torsion grid (150,)
C       -3.6848940672   -6.6621342741    5.4727931335
C       -2.3667824102   -7.1303709893    5.4457062552
C       -3.9334630688   -5.2865059015    5.5318410428
C       -1.3020032533   -6.2272190903    5.4738288024
C       -2.8678170518   -4.3839350006    5.5628092881
C       -1.5452328424   -4.8473483818    5.5274953287
C       -0.3985284859   -3.8820785001    5.5749156120
N       -1.1269726838   -2.8576590771    8.0070337878
O        0.4022548052   -4.9563672837    7.9235127630
O        1.4003569026   -2.7186925881    7.1671725522
O       -1.1767059354   -3.1775877938    9.3930404367
S        0.2744443109   -3.6579407161    7.2632624969
H       -4.5135675621   -7.3649902679    5.4483065212
H       -2.1682235514   -8.1979325557    5.4045574288
H       -4.9554255846   -4.9174536133    5.5542548891
H       -0.2789510800   -6.5936484687    5.4698746519
H       -3.0621716779   -3.3163705412    5.6238954921
H       -0.6599044537   -2.8788005608    5.2306936433
H        0.4733442037   -4.2265492711    5.0116771566
H       -0.8934702107   -1.8601409057    8.0120853958
H       -1.7395191731   -3.9713151971    9.4195741766
21   
torsion grid (165,)
C       -3.6915032443   -6.6821619159    5.3977802749
C       -2.3688967100   -7.1381974752    5.4019919699
C       -3.9533776290   -5.3094362013    5.4634650579
C       -1.3134410433   -6.2261078849    5.4671270401
C       -2.8969272745   -4.3983916992    5.5320634725
C       -1.5699600478   -4.8490878887    5.5282797354
C       -0.4328412063   -3.8745841025    5.6086847997
N       -1.1490499763   -2.8958477584    8.0593843067
O        0.3656202167   -4.9780221103    7.9595124075
O        1.3890736829   -2.7604175594    7.2060658035
O       -0.9769230776   -2.9615434659    9.4744271230
S        0.2461846140   -3.6783956260    7.2988362820
H       -4.5129390352   -7.3918628777    5.3443139973
H       -2.1595980857   -8.2035032578    5.3559397863
H       -4.9787000226   -4.9492755486    5.4624383993
H       -0.2874926772   -6.5838289309    5.4865414553
H       -3.1043150090   -3.3331754368    5.5966424667
H       -0.6994288369   -2.8664847819    5.2812641855
H        0.4458172642   -4.1960519283    5.0420628301
H       -1.0430310612   -1.8941996076    7.8698635882
H       -1.4365445300   -3.7860633581    9.7131802255
21   
torsion grid (180,)
C        1.9338070923   -1.0840740005   -0.1233771228
C        2.8477124039   -1.7904381040    0.6657445168
C        0.9250462456   -0.3288986109    0.4843467142
C        2.7565398444   -1.7377883977    2.0584410802
C        0.8329678117   -0.2759769687    1.8768238340
C        1.7539187332   -0.9731752246    2.6710930047
C        1.6439757102   -0.9388810301    4.1688741518
N        0.7079453370   -2.0139132409    6.4789371469
O       -0.8261233513   -1.9858820455    4.2753853082
O        1.1420962404   -3.5921033855    4.4931995087
O       -0.1030496784   -2.9885732736    7.1393842267
S        0.5348088778   -2.2827620895    4.7347715953
H        2.0050006403   -1.1249202121   -1.2071057402
H        3.6280655800   -2.3842889046    0.1976447923
H        0.2083431928    0.2146933850   -0.1252131339
H        3.4561231578   -2.2996262163    2.6718067334
H        0.0378477590    0.2951474873    2.3487891190
H        1.1949673866   -0.0104315785    4.5302788258
H        2.5985059502   -1.1129160115    4.6685126360
H        0.2080398508   -1.1415856338    6.6811613538
H        0.5341643935   -3.6919240398    7.3560964731
