
  -OEChem-05262117483D

 74 78  0     1  0  0  0  0  0999 V2000
    3.5952   -0.4097   -4.5895 C   0  0  0  0  0  0  0  0  0  0  0  0
    4.0133   -0.9853   -3.3840 C   0  0  0  0  0  0  0  0  0  0  0  0
    2.3942    0.3062   -4.6273 C   0  0  0  0  0  0  0  0  0  0  0  0
    4.9354  -18.2906   -1.1629 C   0  0  0  0  0  0  0  0  0  0  0  0
    6.3116  -18.4875   -1.3045 C   0  0  0  0  0  0  0  0  0  0  0  0
    3.2346   -0.8543   -2.2340 C   0  0  0  0  0  0  0  0  0  0  0  0
    1.6211    0.4440   -3.4716 C   0  0  0  0  0  0  0  0  0  0  0  0
    1.6554   -3.3580    0.3547 C   0  0  0  0  0  0  0  0  0  0  0  0
    0.7987   -2.9685   -1.8564 C   0  0  0  0  0  0  0  0  0  0  0  0
   -0.8564   -1.5755    1.5137 C   0  0  0  0  0  0  0  0  0  0  0  0
    1.9058   -4.6971    0.0367 C   0  0  0  0  0  0  0  0  0  0  0  0
    1.0310   -4.2973   -2.1868 C   0  0  0  0  0  0  0  0  0  0  0  0
   -1.4929   -1.3596    2.7356 C   0  0  0  0  0  0  0  0  0  0  0  0
    4.4807  -17.0525   -0.7117 C   0  0  0  0  0  0  0  0  0  0  0  0
    0.0798    0.4227    3.2039 C   0  0  0  0  0  0  0  0  0  0  0  0
    7.1665  -17.4298   -0.9837 C   0  0  0  0  0  0  0  0  0  0  0  0
    1.1173   -2.4638   -0.5806 C   0  0  0  0  0  0  0  0  0  0  0  0
    2.0196   -0.1447   -2.2581 C   0  0  0  0  0  0  0  0  0  0  0  0
    0.2351   -0.7952    1.1024 C   0  0  0  0  0  0  0  0  0  0  0  0
    0.7148    0.2116    1.9777 C   0  0  0  0  0  0  0  0  0  0  0  0
    1.5949   -5.1728   -1.2443 C   0  0  0  0  0  0  0  0  0  0  0  0
   -1.0222   -0.3501    3.5834 C   0  0  0  0  0  0  0  0  0  0  0  0
    5.4185  -16.0499   -0.4187 C   0  0  0  0  0  0  0  0  0  0  0  0
    0.8775   -1.0422   -0.2168 C   0  0  0  0  0  0  0  0  0  0  0  0
    1.2007    0.0032   -1.0278 C   0  0  0  0  0  0  0  0  0  0  0  0
    1.9256    1.0323    1.5964 C   0  0  0  0  0  0  0  0  0  0  0  0
    0.7686    1.4083   -0.6477 C   0  0  0  0  0  0  0  0  0  0  0  0
    1.6538    2.0297    0.4515 C   0  0  0  0  0  0  0  0  0  0  0  0
    4.9801  -14.6895    0.0469 C   0  0  0  0  0  0  0  0  0  0  0  0
    3.0979   -9.8090   -0.5540 C   0  0  0  0  0  0  0  0  0  0  0  0
    2.4867   -8.7321   -1.4575 C   0  0  0  0  0  0  0  0  0  0  0  0
    3.2215  -11.1645   -1.2617 C   0  0  0  0  0  0  0  0  0  0  0  0
    2.3710   -7.3904   -0.7493 C   0  0  0  0  0  0  0  0  0  0  0  0
    3.8397  -12.2290   -0.3583 C   0  0  0  0  0  0  0  0  0  0  0  0
    6.7413  -16.2350   -0.5514 N   0  0  0  0  0  0  0  0  0  0  0  0
    5.0572  -13.4860   -2.4062 O   0  0  0  0  0  0  0  0  0  0  0  0
   -1.5950   -0.0807    4.8048 O   0  0  0  0  0  0  0  0  0  0  0  0
    1.7904   -6.4610   -1.6659 O   0  0  0  0  0  0  0  0  0  0  0  0
    4.0592  -13.7983   -1.3077 S   0  0  1  0  0  0  0  0  0  0  0  0
    4.1994   -0.5151   -5.4869 H   0  0  0  0  0  0  0  0  0  0  0  0
    4.9489   -1.5373   -3.3403 H   0  0  0  0  0  0  0  0  0  0  0  0
    2.0573    0.7561   -5.5580 H   0  0  0  0  0  0  0  0  0  0  0  0
    4.2321  -19.0846   -1.4003 H   0  0  0  0  0  0  0  0  0  0  0  0
    6.7160  -19.4330   -1.6540 H   0  0  0  0  0  0  0  0  0  0  0  0
    3.5623   -1.3088   -1.3040 H   0  0  0  0  0  0  0  0  0  0  0  0
    0.6832    0.9918   -3.5197 H   0  0  0  0  0  0  0  0  0  0  0  0
    1.8925   -3.0018    1.3538 H   0  0  0  0  0  0  0  0  0  0  0  0
    0.3638   -2.3053   -2.5974 H   0  0  0  0  0  0  0  0  0  0  0  0
   -1.2163   -2.3645    0.8595 H   0  0  0  0  0  0  0  0  0  0  0  0
    2.3354   -5.3486    0.7892 H   0  0  0  0  0  0  0  0  0  0  0  0
    0.7820   -4.6829   -3.1713 H   0  0  0  0  0  0  0  0  0  0  0  0
   -2.3454   -1.9718    3.0264 H   0  0  0  0  0  0  0  0  0  0  0  0
    3.4176  -16.8581   -0.5944 H   0  0  0  0  0  0  0  0  0  0  0  0
    0.4396    1.1861    3.8888 H   0  0  0  0  0  0  0  0  0  0  0  0
    8.2451  -17.5447   -1.0792 H   0  0  0  0  0  0  0  0  0  0  0  0
    2.3067    1.5675    2.4717 H   0  0  0  0  0  0  0  0  0  0  0  0
    2.7167    0.3474    1.2708 H   0  0  0  0  0  0  0  0  0  0  0  0
    0.7835    2.0611   -1.5246 H   0  0  0  0  0  0  0  0  0  0  0  0
   -0.2636    1.3798   -0.2829 H   0  0  0  0  0  0  0  0  0  0  0  0
    1.1504    2.9240    0.8386 H   0  0  0  0  0  0  0  0  0  0  0  0
    2.6130    2.3549    0.0319 H   0  0  0  0  0  0  0  0  0  0  0  0
    4.2906  -14.7484    0.8959 H   0  0  0  0  0  0  0  0  0  0  0  0
    5.8548  -14.0878    0.3024 H   0  0  0  0  0  0  0  0  0  0  0  0
    4.0925   -9.4863   -0.2185 H   0  0  0  0  0  0  0  0  0  0  0  0
    2.4867   -9.9209    0.3520 H   0  0  0  0  0  0  0  0  0  0  0  0
    3.0986   -8.6057   -2.3577 H   0  0  0  0  0  0  0  0  0  0  0  0
    1.4896   -9.0413   -1.7919 H   0  0  0  0  0  0  0  0  0  0  0  0
    2.2308  -11.4946   -1.5989 H   0  0  0  0  0  0  0  0  0  0  0  0
    3.8438  -11.0603   -2.1567 H   0  0  0  0  0  0  0  0  0  0  0  0
    3.3606   -7.0329   -0.4321 H   0  0  0  0  0  0  0  0  0  0  0  0
    1.7380   -7.4779    0.1450 H   0  0  0  0  0  0  0  0  0  0  0  0
    4.8344  -11.9256   -0.0143 H   0  0  0  0  0  0  0  0  0  0  0  0
    3.2065  -12.4497    0.5089 H   0  0  0  0  0  0  0  0  0  0  0  0
   -2.3445   -0.6820    4.9392 H   0  0  0  0  0  0  0  0  0  0  0  0
  1  2  1  0  0  0  0
  1  3  2  0  0  0  0
  1 40  1  0  0  0  0
  2  6  2  0  0  0  0
  2 41  1  0  0  0  0
  3  7  1  0  0  0  0
  3 42  1  0  0  0  0
  4  5  1  0  0  0  0
  4 14  2  0  0  0  0
  4 43  1  0  0  0  0
  5 16  2  0  0  0  0
  5 44  1  0  0  0  0
  6 18  1  0  0  0  0
  6 45  1  0  0  0  0
  7 18  2  0  0  0  0
  7 46  1  0  0  0  0
  8 11  2  0  0  0  0
  8 17  1  0  0  0  0
  8 47  1  0  0  0  0
  9 12  1  0  0  0  0
  9 17  2  0  0  0  0
  9 48  1  0  0  0  0
 10 13  2  0  0  0  0
 10 19  1  0  0  0  0
 10 49  1  0  0  0  0
 11 21  1  0  0  0  0
 11 50  1  0  0  0  0
 12 21  2  0  0  0  0
 12 51  1  0  0  0  0
 13 22  1  0  0  0  0
 13 52  1  0  0  0  0
 14 23  1  0  0  0  0
 14 53  1  0  0  0  0
 15 20  1  0  0  0  0
 15 22  2  0  0  0  0
 15 54  1  0  0  0  0
 16 35  1  0  0  0  0
 16 55  1  0  0  0  0
 17 24  1  0  0  0  0
 18 25  1  0  0  0  0
 19 20  2  0  0  0  0
 19 24  1  0  0  0  0
 20 26  1  0  0  0  0
 21 38  1  0  0  0  0
 22 37  1  0  0  0  0
 23 29  1  0  0  0  0
 23 35  2  0  0  0  0
 24 25  2  0  0  0  0
 25 27  1  0  0  0  0
 26 28  1  0  0  0  0
 26 56  1  0  0  0  0
 26 57  1  0  0  0  0
 27 28  1  0  0  0  0
 27 58  1  0  0  0  0
 27 59  1  0  0  0  0
 28 60  1  0  0  0  0
 28 61  1  0  0  0  0
 29 39  1  0  0  0  0
 29 62  1  0  0  0  0
 29 63  1  0  0  0  0
 30 31  1  0  0  0  0
 30 32  1  0  0  0  0
 30 64  1  0  0  0  0
 30 65  1  0  0  0  0
 31 33  1  0  0  0  0
 31 66  1  0  0  0  0
 31 67  1  0  0  0  0
 32 34  1  0  0  0  0
 32 68  1  0  0  0  0
 32 69  1  0  0  0  0
 33 38  1  0  0  0  0
 33 70  1  0  0  0  0
 33 71  1  0  0  0  0
 34 39  1  0  0  0  0
 34 72  1  0  0  0  0
 34 73  1  0  0  0  0
 36 39  2  0  0  0  0
 37 74  1  0  0  0  0
M  END
$$$$
