30
1 1 C11H15N2O2
C                    -1.457450607734     1.838968077535     0.197331637096
C                    -2.699907246487     1.295123207024     0.336651561001
C                    -0.546041273441     0.720762052051     0.161519294192
C                    -1.307228077509    -0.410796961286     0.276926303209
C                     2.492152268287     1.430725010136    -1.759625590822
C                    -0.847408298180    -1.826247837455     0.332168911433
C                     0.616183299957    -1.880071054814    -0.150068063398
C                     1.460330268404    -0.740379159261     0.443376380690
C                     4.205825575955     2.383992759220    -2.986615750276
C                     4.670610037664     2.040821480978    -1.560500164692
C                     0.942657984140     0.656885912343     0.047356645386
N                     2.902234835046     1.695567525280    -3.009900203725
N                     1.314369884894     0.988954528819    -1.377211096856
O                    -2.621123316904    -0.077424632082     0.387360544017
O                     3.433219259975     1.657534400251    -0.857996081103
H                    -1.225212700829     2.895063462529     0.147099469206
H                    -3.693515301488     1.711288131351     0.417843918948
H                    -0.924453076277    -2.200047278805     1.361320698986
H                    -1.485952002341    -2.468170734989    -0.282878345597
H                     1.059786422498    -2.841291638861     0.122791618782
H                     0.641063434368    -1.825742552596    -1.245891559778
H                     1.435134448037    -0.792268075162     1.537684964426
H                     2.509402588087    -0.840560099477     0.147934457927
H                     4.079596559598     3.459207290377    -3.142226452821
H                     4.873431200391     1.978708099352    -3.748033143313
H                     5.334560650982     1.176278345340    -1.523134898345
H                     5.100833242523     2.878078620352    -1.014933769588
H                     1.423990642744     1.421328532117     0.661877561595
H                     2.269572591616     1.736146950503    -3.800463613880
H                     0.591892330286     0.855438271304    -2.077600244347
