29
0 1 C11H14N2O2
C                     0.141099721493     1.838130903312    -0.631344846180
C                    -1.184062875491     2.151108763983    -0.544282367769
C                     0.243869094993     0.443155068197    -0.279582915684
C                    -1.026093264986     0.017970186019    -0.015699909950
C                     3.177786949707    -1.176718895952    -1.774548599834
C                    -1.466055404896    -1.340823368987     0.407948887204
C                    -0.302090230065    -2.323203119678     0.155550439844
C                     1.048367053464    -1.741587252069     0.600666845163
C                     5.261527623529    -1.879790299845    -1.633232333734
C                     4.928530221671    -1.593194484344    -3.121699256061
C                     1.430161637494    -0.473001181472    -0.191613565120
N                     4.065556022378    -1.460342688193    -0.891118706205
N                     1.884345891200    -0.810886884272    -1.553242896131
O                    -1.915454113290     1.048711267364    -0.166097026321
O                     3.512137108435    -1.268659271681    -3.106176631060
H                     0.943062645953     2.513945103473    -0.900527662223
H                    -1.750867697402     3.056837592591    -0.704761564154
H                    -1.734022166416    -1.332140385893     1.473572711138
H                    -2.364403227435    -1.647214079366    -0.139748716199
H                    -0.496846673892    -3.264676080247     0.679209321768
H                    -0.250835765889    -2.556309993772    -0.914267409824
H                     1.007655111684    -1.479538173460     1.665714971918
H                     1.848364211588    -2.476179138851     0.479830774304
H                     5.461783192260    -2.944334380016    -1.457338665587
H                     6.141217308507    -1.320844029394    -1.296966077244
H                     5.466340101266    -0.728816420245    -3.523547195701
H                     5.069547761943    -2.448641270109    -3.786054610568
H                     2.262050279357     0.020788922517     0.323159283122
H                     1.413699537732    -0.365280328562    -2.329506895574
