
  -OEChem-05262117483D

 38 38  0     1  0  0  0  0  0999 V2000
    0.6265   -3.1820    3.2120 C   0  0  0  0  0  0  0  0  0  0  0  0
    1.8065   -3.4465    2.2365 C   0  0  0  0  0  0  0  0  0  0  0  0
   -0.5418   -4.0136    2.6406 C   0  0  0  0  0  0  0  0  0  0  0  0
    1.2521   -4.4569    1.2112 C   0  0  2  0  0  0  0  0  0  0  0  0
    1.8390   -4.3307   -0.1951 C   0  0  0  0  0  0  0  0  0  0  0  0
    3.3619   -4.5183   -0.2742 C   0  0  0  0  0  0  0  0  0  0  0  0
    7.4257   -8.0987    0.3777 C   0  0  0  0  0  0  0  0  0  0  0  0
    7.7130   -9.5403    0.8145 C   0  0  0  0  0  0  0  0  0  0  0  0
    3.8066   -5.9187    0.1561 C   0  0  0  0  0  0  0  0  0  0  0  0
    5.9287   -7.8028    0.4765 C   0  0  0  0  0  0  0  0  0  0  0  0
    9.1832   -9.8945    0.7407 C   0  0  0  0  0  0  0  0  0  0  0  0
   -0.1872   -4.1551    1.2211 N   0  0  0  0  0  0  0  0  0  0  0  0
    6.2617   -5.1921    0.9308 O   0  0  0  0  0  0  0  0  0  0  0  0
    5.9302   -5.9821   -1.4775 O   0  0  0  0  0  0  0  0  0  0  0  0
    9.3966  -11.1769    1.1321 F   0  0  0  0  0  0  0  0  0  0  0  0
    9.6740   -9.7745   -0.5183 F   0  0  0  0  0  0  0  0  0  0  0  0
    9.9389   -9.1019    1.5416 F   0  0  0  0  0  0  0  0  0  0  0  0
    5.6063   -6.0854   -0.0427 S   0  0  0  0  0  0  0  0  0  0  0  0
    0.8594   -3.4748    4.2393 H   0  0  0  0  0  0  0  0  0  0  0  0
    0.3720   -2.1193    3.2240 H   0  0  0  0  0  0  0  0  0  0  0  0
    2.0936   -2.5231    1.7239 H   0  0  0  0  0  0  0  0  0  0  0  0
    2.6968   -3.8285    2.7434 H   0  0  0  0  0  0  0  0  0  0  0  0
   -0.5966   -4.9870    3.1595 H   0  0  0  0  0  0  0  0  0  0  0  0
   -1.5118   -3.5188    2.7498 H   0  0  0  0  0  0  0  0  0  0  0  0
    1.4382   -5.4788    1.5959 H   0  0  0  0  0  0  0  0  0  0  0  0
    1.3470   -5.0511   -0.8632 H   0  0  0  0  0  0  0  0  0  0  0  0
    1.5875   -3.3338   -0.5735 H   0  0  0  0  0  0  0  0  0  0  0  0
    3.8662   -3.7759    0.3509 H   0  0  0  0  0  0  0  0  0  0  0  0
    3.6911   -4.3479   -1.3036 H   0  0  0  0  0  0  0  0  0  0  0  0
    7.9762   -7.3990    1.0119 H   0  0  0  0  0  0  0  0  0  0  0  0
    7.7585   -7.9464   -0.6522 H   0  0  0  0  0  0  0  0  0  0  0  0
    7.3973   -9.7097    1.8484 H   0  0  0  0  0  0  0  0  0  0  0  0
    7.1811  -10.2579    0.1824 H   0  0  0  0  0  0  0  0  0  0  0  0
    3.5975   -6.1161    1.2103 H   0  0  0  0  0  0  0  0  0  0  0  0
    3.3470   -6.6959   -0.4626 H   0  0  0  0  0  0  0  0  0  0  0  0
    5.3414   -8.4478   -0.1839 H   0  0  0  0  0  0  0  0  0  0  0  0
    5.5624   -7.8961    1.5034 H   0  0  0  0  0  0  0  0  0  0  0  0
   -0.7264   -4.8923    0.7709 H   0  0  0  0  0  0  0  0  0  0  0  0
  1  2  1  0  0  0  0
  1  3  1  0  0  0  0
  1 19  1  0  0  0  0
  1 20  1  0  0  0  0
  2  4  1  0  0  0  0
  2 21  1  0  0  0  0
  2 22  1  0  0  0  0
  3 12  1  0  0  0  0
  3 23  1  0  0  0  0
  3 24  1  0  0  0  0
  4  5  1  0  0  0  0
  4 12  1  0  0  0  0
  4 25  1  0  0  0  0
  5  6  1  0  0  0  0
  5 26  1  0  0  0  0
  5 27  1  0  0  0  0
  6  9  1  0  0  0  0
  6 28  1  0  0  0  0
  6 29  1  0  0  0  0
  7  8  1  0  0  0  0
  7 10  1  0  0  0  0
  7 30  1  0  0  0  0
  7 31  1  0  0  0  0
  8 11  1  0  0  0  0
  8 32  1  0  0  0  0
  8 33  1  0  0  0  0
  9 18  1  0  0  0  0
  9 34  1  0  0  0  0
  9 35  1  0  0  0  0
 10 18  1  0  0  0  0
 10 36  1  0  0  0  0
 10 37  1  0  0  0  0
 11 15  1  0  0  0  0
 11 16  1  0  0  0  0
 11 17  1  0  0  0  0
 12 38  1  0  0  0  0
 13 18  2  0  0  0  0
 14 18  2  0  0  0  0
M  END
$$$$
