
  -OEChem-05262117483D

 54 56  0     0  0  0  0  0  0999 V2000
    0.2381   -5.6181   -5.2820 C   0  0  0  0  0  0  0  0  0  0  0  0
   -0.9439   -4.9451   -4.9982 C   0  0  0  0  0  0  0  0  0  0  0  0
    1.4260   -4.9057   -5.5131 C   0  0  0  0  0  0  0  0  0  0  0  0
    0.2029   -2.8003   -5.2158 C   0  0  0  0  0  0  0  0  0  0  0  0
   -0.9677   -3.5476   -4.9888 C   0  0  0  0  0  0  0  0  0  0  0  0
    1.4020   -3.5020   -5.4755 C   0  0  0  0  0  0  0  0  0  0  0  0
    3.6872   -6.8867   -7.6813 C   0  0  0  0  0  0  0  0  0  0  0  0
    2.6966   -8.1832   -5.7023 C   0  0  0  0  0  0  0  0  0  0  0  0
    2.6928   -5.6865   -5.7092 C   0  0  0  0  0  0  0  0  0  0  0  0
    5.0782   -7.2775   -7.2406 C   0  0  0  0  0  0  0  0  0  0  0  0
    4.0920   -8.5676   -5.2711 C   0  0  0  0  0  0  0  0  0  0  0  0
    5.0590   -8.6096   -6.4687 C   0  0  0  0  0  0  0  0  0  0  0  0
   -0.3514    2.9102   -5.0638 C   0  0  0  0  0  0  0  0  0  0  0  0
   -0.0607    3.1193   -6.5807 C   0  0  0  0  0  0  0  0  0  0  0  0
   -0.5558    1.3921   -4.8807 C   0  0  0  0  0  0  0  0  0  0  0  0
    0.0142    1.7004   -7.1989 C   0  0  0  0  0  0  0  0  0  0  0  0
    2.5867   -6.9379   -6.6024 C   0  0  0  0  0  0  0  0  0  0  0  0
    0.2897    0.7698   -6.0036 C   0  0  0  0  0  0  0  0  0  0  0  0
   -4.7087   -2.1460   -6.3203 C   0  0  0  0  0  0  0  0  0  0  0  0
   -0.0332   -0.6791   -6.3005 C   0  0  0  0  0  0  0  0  0  0  0  0
   -3.3258   -2.7928   -6.3597 C   0  0  0  0  0  0  0  0  0  0  0  0
    3.3929   -6.5683   -8.8182 O   0  0  0  0  0  0  0  0  0  0  0  0
    1.6890   -8.7894   -5.3821 O   0  0  0  0  0  0  0  0  0  0  0  0
    3.7416   -5.3780   -5.1698 O   0  0  0  0  0  0  0  0  0  0  0  0
   -3.3607   -3.7632   -3.8832 O   0  0  0  0  0  0  0  0  0  0  0  0
   -2.4600   -1.4023   -4.2423 O   0  0  0  0  0  0  0  0  0  0  0  0
    0.2419   -1.4505   -5.1062 O   0  0  0  0  0  0  0  0  0  0  0  0
   -2.5979   -2.7935   -4.6868 S   0  0  0  0  0  0  0  0  0  0  0  0
    2.8299   -2.5532   -5.7878 Cl  0  0  0  0  0  0  0  0  0  0  0  0
    0.2491   -6.7040   -5.2883 H   0  0  0  0  0  0  0  0  0  0  0  0
   -1.8513   -5.4939   -4.7681 H   0  0  0  0  0  0  0  0  0  0  0  0
    5.7178   -7.3278   -8.1244 H   0  0  0  0  0  0  0  0  0  0  0  0
    5.4486   -6.4843   -6.5805 H   0  0  0  0  0  0  0  0  0  0  0  0
    4.4364   -7.8048   -4.5615 H   0  0  0  0  0  0  0  0  0  0  0  0
    4.0400   -9.5267   -4.7514 H   0  0  0  0  0  0  0  0  0  0  0  0
    6.0672   -8.8331   -6.1086 H   0  0  0  0  0  0  0  0  0  0  0  0
    4.7743   -9.4250   -7.1438 H   0  0  0  0  0  0  0  0  0  0  0  0
    0.5023    3.2490   -4.4675 H   0  0  0  0  0  0  0  0  0  0  0  0
   -1.2199    3.4819   -4.7240 H   0  0  0  0  0  0  0  0  0  0  0  0
   -0.8317    3.7228   -7.0686 H   0  0  0  0  0  0  0  0  0  0  0  0
    0.8872    3.6481   -6.7213 H   0  0  0  0  0  0  0  0  0  0  0  0
   -0.2739    1.0303   -3.8896 H   0  0  0  0  0  0  0  0  0  0  0  0
   -1.6066    1.1178   -5.0300 H   0  0  0  0  0  0  0  0  0  0  0  0
   -0.9522    1.4344   -7.6475 H   0  0  0  0  0  0  0  0  0  0  0  0
    0.7697    1.6190   -7.9871 H   0  0  0  0  0  0  0  0  0  0  0  0
    1.6249   -6.9592   -7.1121 H   0  0  0  0  0  0  0  0  0  0  0  0
    1.3521    0.8319   -5.7330 H   0  0  0  0  0  0  0  0  0  0  0  0
   -5.3781   -2.6940   -5.6530 H   0  0  0  0  0  0  0  0  0  0  0  0
   -4.6458   -1.1098   -5.9798 H   0  0  0  0  0  0  0  0  0  0  0  0
   -5.1393   -2.1557   -7.3260 H   0  0  0  0  0  0  0  0  0  0  0  0
    0.5738   -1.0677   -7.1274 H   0  0  0  0  0  0  0  0  0  0  0  0
   -1.0952   -0.7821   -6.5534 H   0  0  0  0  0  0  0  0  0  0  0  0
   -2.6337   -2.2505   -7.0082 H   0  0  0  0  0  0  0  0  0  0  0  0
   -3.3633   -3.8392   -6.6732 H   0  0  0  0  0  0  0  0  0  0  0  0
  1  2  1  0  0  0  0
  1  3  2  0  0  0  0
  1 30  1  0  0  0  0
  2  5  2  0  0  0  0
  2 31  1  0  0  0  0
  3  6  1  0  0  0  0
  3  9  1  0  0  0  0
  4  5  1  0  0  0  0
  4  6  2  0  0  0  0
  4 27  1  0  0  0  0
  5 28  1  0  0  0  0
  6 29  1  0  0  0  0
  7 10  1  0  0  0  0
  7 17  1  0  0  0  0
  7 22  2  0  0  0  0
  8 11  1  0  0  0  0
  8 17  1  0  0  0  0
  8 23  2  0  0  0  0
  9 17  1  0  0  0  0
  9 24  2  0  0  0  0
 10 12  1  0  0  0  0
 10 32  1  0  0  0  0
 10 33  1  0  0  0  0
 11 12  1  0  0  0  0
 11 34  1  0  0  0  0
 11 35  1  0  0  0  0
 12 36  1  0  0  0  0
 12 37  1  0  0  0  0
 13 14  1  0  0  0  0
 13 15  1  0  0  0  0
 13 38  1  0  0  0  0
 13 39  1  0  0  0  0
 14 16  1  0  0  0  0
 14 40  1  0  0  0  0
 14 41  1  0  0  0  0
 15 18  1  0  0  0  0
 15 42  1  0  0  0  0
 15 43  1  0  0  0  0
 16 18  1  0  0  0  0
 16 44  1  0  0  0  0
 16 45  1  0  0  0  0
 17 46  1  0  0  0  0
 18 20  1  0  0  0  0
 18 47  1  0  0  0  0
 19 21  1  0  0  0  0
 19 48  1  0  0  0  0
 19 49  1  0  0  0  0
 19 50  1  0  0  0  0
 20 27  1  0  0  0  0
 20 51  1  0  0  0  0
 20 52  1  0  0  0  0
 21 28  1  0  0  0  0
 21 53  1  0  0  0  0
 21 54  1  0  0  0  0
 25 28  2  0  0  0  0
 26 28  2  0  0  0  0
M  END
$$$$
