33
0 1 C12H18O3
C                    -1.813468906331     1.028592489575     5.516730191511
C                    -0.875859267490     0.937057585300     6.559050215278
C                    -0.605233009478    -0.648907713917     4.286635836205
C                    -1.692376623742     0.242863023280     4.374095906621
C                     0.197983429958     0.053327674652     6.470971145111
C                     0.334078584984    -0.752895660822     5.310975005740
C                    -5.845184019628    -1.926489532507     2.436633127927
C                     1.066565182567     0.686234307993     8.598626071311
C                     1.597745752321    -2.409142350666     4.149624818305
C                    -2.719289801190     0.288150770984     3.265620317603
C                    -3.757529339485    -0.841679605617     3.385427048827
C                    -4.768735283171    -0.857870025799     2.242304418040
O                    -4.022530062740    -1.090410653819     1.032791685370
O                     1.165042696050    -0.109761354942     7.425875046629
O                     1.416363796818    -1.588640438187     5.296414176195
H                    -2.641647227474     1.727648232206     5.608350542030
H                    -0.994974252972     1.566024197968     7.434227547971
H                    -0.505962666822    -1.259758114115     3.395212588515
H                    -5.388957903904    -2.920005568883     2.498567562988
H                    -6.414445298026    -1.746204556071     3.355108761310
H                    -6.556002741931    -1.928163828035     1.600977686260
H                     1.919417872852     0.408636092605     9.220022608186
H                     0.137214068487     0.482988279468     9.146543230338
H                     1.121959003179     1.757265497505     8.364172859266
H                     2.504003022583    -2.986958059138     4.337326604941
H                     1.732079593918    -1.807242734273     3.241803760593
H                     0.752636083525    -3.094912983003     4.007802023780
H                    -3.238210530914     1.254098876061     3.284652848040
H                    -2.230840449951     0.209991302260     2.289598387677
H                    -4.295369784356    -0.743153598334     4.335687758995
H                    -3.245291138955    -1.811211177054     3.409185168798
H                    -5.251613096896     0.131346683869     2.183187079027
H                    -4.646450753742    -1.094307774096     0.290339172756
