
  -OEChem-05262117483D

 29 31  0     1  0  0  0  0  0999 V2000
    0.1411    1.8381   -0.6313 C   0  0  0  0  0  0  0  0  0  0  0  0
   -1.1841    2.1511   -0.5443 C   0  0  0  0  0  0  0  0  0  0  0  0
    0.2439    0.4432   -0.2796 C   0  0  0  0  0  0  0  0  0  0  0  0
   -1.0261    0.0180   -0.0157 C   0  0  0  0  0  0  0  0  0  0  0  0
    3.1778   -1.1767   -1.7745 C   0  0  0  0  0  0  0  0  0  0  0  0
   -1.4661   -1.3408    0.4079 C   0  0  0  0  0  0  0  0  0  0  0  0
   -0.3021   -2.3232    0.1556 C   0  0  0  0  0  0  0  0  0  0  0  0
    1.0484   -1.7416    0.6007 C   0  0  0  0  0  0  0  0  0  0  0  0
    5.2615   -1.8798   -1.6332 C   0  0  0  0  0  0  0  0  0  0  0  0
    4.9285   -1.5932   -3.1217 C   0  0  0  0  0  0  0  0  0  0  0  0
    1.4302   -0.4730   -0.1916 C   0  0  1  0  0  0  0  0  0  0  0  0
    4.0656   -1.4603   -0.8911 N   0  0  0  0  0  0  0  0  0  0  0  0
    1.8843   -0.8109   -1.5532 N   0  0  0  0  0  0  0  0  0  0  0  0
   -1.9155    1.0487   -0.1661 O   0  0  0  0  0  0  0  0  0  0  0  0
    3.5121   -1.2687   -3.1062 O   0  0  0  0  0  0  0  0  0  0  0  0
    0.9431    2.5139   -0.9005 H   0  0  0  0  0  0  0  0  0  0  0  0
   -1.7509    3.0568   -0.7048 H   0  0  0  0  0  0  0  0  0  0  0  0
   -1.7340   -1.3321    1.4736 H   0  0  0  0  0  0  0  0  0  0  0  0
   -2.3644   -1.6472   -0.1397 H   0  0  0  0  0  0  0  0  0  0  0  0
   -0.4968   -3.2647    0.6792 H   0  0  0  0  0  0  0  0  0  0  0  0
   -0.2508   -2.5563   -0.9143 H   0  0  0  0  0  0  0  0  0  0  0  0
    1.0077   -1.4795    1.6657 H   0  0  0  0  0  0  0  0  0  0  0  0
    1.8484   -2.4762    0.4798 H   0  0  0  0  0  0  0  0  0  0  0  0
    5.4618   -2.9443   -1.4573 H   0  0  0  0  0  0  0  0  0  0  0  0
    6.1412   -1.3208   -1.2970 H   0  0  0  0  0  0  0  0  0  0  0  0
    5.4663   -0.7288   -3.5235 H   0  0  0  0  0  0  0  0  0  0  0  0
    5.0695   -2.4486   -3.7861 H   0  0  0  0  0  0  0  0  0  0  0  0
    2.2621    0.0208    0.3232 H   0  0  0  0  0  0  0  0  0  0  0  0
    1.4137   -0.3653   -2.3295 H   0  0  0  0  0  0  0  0  0  0  0  0
  1  2  2  0  0  0  0
  1  3  1  0  0  0  0
  1 16  1  0  0  0  0
  2 14  1  0  0  0  0
  2 17  1  0  0  0  0
  3  4  2  0  0  0  0
  3 11  1  0  0  0  0
  4  6  1  0  0  0  0
  4 14  1  0  0  0  0
  5 12  2  0  0  0  0
  5 13  1  0  0  0  0
  5 15  1  0  0  0  0
  6  7  1  0  0  0  0
  6 18  1  0  0  0  0
  6 19  1  0  0  0  0
  7  8  1  0  0  0  0
  7 20  1  0  0  0  0
  7 21  1  0  0  0  0
  8 11  1  0  0  0  0
  8 22  1  0  0  0  0
  8 23  1  0  0  0  0
  9 10  1  0  0  0  0
  9 12  1  0  0  0  0
  9 24  1  0  0  0  0
  9 25  1  0  0  0  0
 10 15  1  0  0  0  0
 10 26  1  0  0  0  0
 10 27  1  0  0  0  0
 11 13  1  0  0  0  0
 11 28  1  0  0  0  0
 13 29  1  0  0  0  0
M  END
$$$$
