24
0 1 BrC10H10NO2
C                     0.447619117186     2.377465194281     1.739038644663
C                    -1.049004055823     1.952507556674     4.121370962214
C                    -0.422030102276     1.266550415828     1.825874788689
C                     0.545101105458     3.228218426901     2.821993646676
C                    -0.190720647370     3.026056412600     3.986820306130
C                    -1.136800825823     1.083345952845     3.018037160606
C                     0.377824066875    -0.967033278199     0.820096509818
C                     1.269731924471    -0.296984177992    -0.255319981822
C                     1.175760481938     4.762076328822     4.323287507083
C                    -0.556046511632     0.278876792198     0.678782492722
N                     0.128680604414     0.590704713748    -0.597586626330
O                     1.294994601087     4.379555824786     2.942022806957
O                     0.062652533828     4.043088486248     4.882249806312
Br                   -2.288325346062    -0.447408240067     3.225003453092
H                     1.034840177979     2.561739447205     0.845775521896
H                    -1.623835628169     1.786761766434     5.025279876310
H                    -0.101476582991    -1.883645551621     0.471560369513
H                     0.817162338604    -1.130719108560     1.804868898224
H                     2.135813208923     0.218977001178     0.183099685896
H                     1.610621951508    -0.923467568390    -1.086201340156
H                     2.093547444099     4.481375748535     4.857694470291
H                     0.981785357680     5.834401748205     4.386408659081
H                    -1.615984030099     0.049446138645     0.536384800075
H                     0.339465159188     1.567868936184    -0.786150183345
