
  -OEChem-05262117483D

 41 43  0     0  0  0  0  0  0999 V2000
   -4.3908    1.1992   -3.2130 C   0  0  0  0  0  0  0  0  0  0  0  0
   -4.2852    2.1562   -4.2239 C   0  0  0  0  0  0  0  0  0  0  0  0
   -0.5410    0.4651   -1.4594 C   0  0  0  0  0  0  0  0  0  0  0  0
   -0.0304   -0.7767   -1.8281 C   0  0  0  0  0  0  0  0  0  0  0  0
   -0.9213    2.1618   -4.7593 C   0  0  0  0  0  0  0  0  0  0  0  0
   -0.0236   -0.0982   -4.1640 C   0  0  0  0  0  0  0  0  0  0  0  0
   -3.4216    0.4450   -5.6902 C   0  0  0  0  0  0  0  0  0  0  0  0
   -0.5460    1.1576   -3.8007 C   0  0  0  0  0  0  0  0  0  0  0  0
   -1.5523    3.3013   -4.3758 C   0  0  0  0  0  0  0  0  0  0  0  0
   -4.0177   -0.1372   -3.4161 C   0  0  0  0  0  0  0  0  0  0  0  0
   -3.5504   -0.5251   -4.6890 C   0  0  0  0  0  0  0  0  0  0  0  0
   -3.7610    1.7822   -5.4638 C   0  0  0  0  0  0  0  0  0  0  0  0
   -0.8028    1.4197   -2.4443 C   0  0  0  0  0  0  0  0  0  0  0  0
    0.2188   -1.0472   -3.1825 C   0  0  0  0  0  0  0  0  0  0  0  0
   -1.7809    3.5707   -2.9475 C   0  0  0  0  0  0  0  0  0  0  0  0
   -2.1091    4.2725   -5.3614 C   0  0  0  0  0  0  0  0  0  0  0  0
   -4.0878   -1.1325   -2.2833 C   0  0  0  0  0  0  0  0  0  0  0  0
   -3.1294   -1.9498   -4.9564 C   0  0  0  0  0  0  0  0  0  0  0  0
   -1.6096    5.6951   -5.2947 C   0  0  0  0  0  0  0  0  0  0  0  0
   -2.9618    3.9956   -6.2931 N   0  0  0  0  0  0  0  0  0  0  0  0
   -3.4837    2.7373   -6.5035 N   0  0  0  0  0  0  0  0  0  0  0  0
   -2.3378    4.5464   -2.4885 O   0  0  0  0  0  0  0  0  0  0  0  0
   -1.3303    2.6126   -2.0436 O   0  0  0  0  0  0  0  0  0  0  0  0
    0.8728   -2.7779   -3.6837 Br  0  0  0  0  0  0  0  0  0  0  0  0
   -4.7591    1.5046   -2.2364 H   0  0  0  0  0  0  0  0  0  0  0  0
   -4.5536    3.1906   -4.0314 H   0  0  0  0  0  0  0  0  0  0  0  0
   -0.7544    0.6999   -0.4213 H   0  0  0  0  0  0  0  0  0  0  0  0
    0.1657   -1.5326   -1.0751 H   0  0  0  0  0  0  0  0  0  0  0  0
   -0.7672    1.9624   -5.8163 H   0  0  0  0  0  0  0  0  0  0  0  0
    0.1555   -0.3220   -5.2108 H   0  0  0  0  0  0  0  0  0  0  0  0
   -3.0023    0.1743   -6.6566 H   0  0  0  0  0  0  0  0  0  0  0  0
   -4.7296   -1.9860   -2.5308 H   0  0  0  0  0  0  0  0  0  0  0  0
   -3.0951   -1.5357   -2.0510 H   0  0  0  0  0  0  0  0  0  0  0  0
   -4.4807   -0.6687   -1.3750 H   0  0  0  0  0  0  0  0  0  0  0  0
   -2.3049   -2.2532   -4.3018 H   0  0  0  0  0  0  0  0  0  0  0  0
   -3.9520   -2.6521   -4.7782 H   0  0  0  0  0  0  0  0  0  0  0  0
   -2.7981   -2.0779   -5.9901 H   0  0  0  0  0  0  0  0  0  0  0  0
   -0.5173    5.7254   -5.3928 H   0  0  0  0  0  0  0  0  0  0  0  0
   -2.0571    6.2781   -6.1020 H   0  0  0  0  0  0  0  0  0  0  0  0
   -1.8654    6.1482   -4.3327 H   0  0  0  0  0  0  0  0  0  0  0  0
   -4.2174    2.8106   -7.1984 H   0  0  0  0  0  0  0  0  0  0  0  0
  1  2  1  0  0  0  0
  1 10  2  0  0  0  0
  1 25  1  0  0  0  0
  2 12  2  0  0  0  0
  2 26  1  0  0  0  0
  3  4  2  0  0  0  0
  3 13  1  0  0  0  0
  3 27  1  0  0  0  0
  4 14  1  0  0  0  0
  4 28  1  0  0  0  0
  5  8  1  0  0  0  0
  5  9  2  0  0  0  0
  5 29  1  0  0  0  0
  6  8  1  0  0  0  0
  6 14  2  0  0  0  0
  6 30  1  0  0  0  0
  7 11  2  0  0  0  0
  7 12  1  0  0  0  0
  7 31  1  0  0  0  0
  8 13  2  0  0  0  0
  9 15  1  0  0  0  0
  9 16  1  0  0  0  0
 10 11  1  0  0  0  0
 10 17  1  0  0  0  0
 11 18  1  0  0  0  0
 12 21  1  0  0  0  0
 13 23  1  0  0  0  0
 14 24  1  0  0  0  0
 15 22  2  0  0  0  0
 15 23  1  0  0  0  0
 16 19  1  0  0  0  0
 16 20  2  0  0  0  0
 17 32  1  0  0  0  0
 17 33  1  0  0  0  0
 17 34  1  0  0  0  0
 18 35  1  0  0  0  0
 18 36  1  0  0  0  0
 18 37  1  0  0  0  0
 19 38  1  0  0  0  0
 19 39  1  0  0  0  0
 19 40  1  0  0  0  0
 20 21  1  0  0  0  0
 21 41  1  0  0  0  0
M  END
$$$$
