
  -OEChem-05262117483D

 37 39  0     0  0  0  0  0  0999 V2000
   -2.4244   -1.4991    0.8575 C   0  0  0  0  0  0  0  0  0  0  0  0
    0.8330    4.2933    0.4662 C   0  0  0  0  0  0  0  0  0  0  0  0
   -0.1336    5.1496    1.0079 C   0  0  0  0  0  0  0  0  0  0  0  0
    0.6794    2.9174    0.6062 C   0  0  0  0  0  0  0  0  0  0  0  0
   -1.2433    4.6400    1.6877 C   0  0  0  0  0  0  0  0  0  0  0  0
   -1.1074   -2.0296    0.9660 C   0  0  0  0  0  0  0  0  0  0  0  0
   -0.4257    2.3740    1.2850 C   0  0  0  0  0  0  0  0  0  0  0  0
   -0.8486   -3.4473    0.9957 C   0  0  0  0  0  0  0  0  0  0  0  0
   -1.3940    3.2541    1.8330 C   0  0  0  0  0  0  0  0  0  0  0  0
    0.4903   -3.7343    1.0477 C   0  0  0  0  0  0  0  0  0  0  0  0
    0.0536   -1.2535    1.0050 C   0  0  0  0  0  0  0  0  0  0  0  0
   -0.5973    0.9326    1.4229 C   0  0  0  0  0  0  0  0  0  0  0  0
   -1.9062   -4.5214    0.9559 C   0  0  0  0  0  0  0  0  0  0  0  0
    1.0769   -5.1179    1.1102 C   0  0  0  0  0  0  0  0  0  0  0  0
   -1.3290   -5.8828    1.3760 C   0  0  0  0  0  0  0  0  0  0  0  0
    0.0191   -6.1560    0.6941 C   0  0  0  0  0  0  0  0  0  0  0  0
   -3.4904    3.4973    2.9748 C   0  0  0  0  0  0  0  0  0  0  0  0
   -3.5198   -1.1028    0.7708 N   0  0  0  0  0  0  0  0  0  0  0  0
    0.2710    0.1007    0.9438 N   0  0  0  0  0  0  0  0  0  0  0  0
   -2.4372    2.6690    2.4864 O   0  0  0  0  0  0  0  0  0  0  0  0
    1.4646   -2.2868    1.0435 S   0  0  0  0  0  0  0  0  0  0  0  0
    1.6913    4.6997   -0.0608 H   0  0  0  0  0  0  0  0  0  0  0  0
   -0.0272    6.2263    0.9025 H   0  0  0  0  0  0  0  0  0  0  0  0
    1.4068    2.2259    0.1926 H   0  0  0  0  0  0  0  0  0  0  0  0
   -1.9765    5.3241    2.0986 H   0  0  0  0  0  0  0  0  0  0  0  0
   -1.4875    0.5979    1.9581 H   0  0  0  0  0  0  0  0  0  0  0  0
   -2.7461   -4.2442    1.6023 H   0  0  0  0  0  0  0  0  0  0  0  0
   -2.3163   -4.5843   -0.0610 H   0  0  0  0  0  0  0  0  0  0  0  0
    1.9583   -5.1945    0.4635 H   0  0  0  0  0  0  0  0  0  0  0  0
    1.4223   -5.3278    2.1318 H   0  0  0  0  0  0  0  0  0  0  0  0
   -1.1905   -5.8978    2.4647 H   0  0  0  0  0  0  0  0  0  0  0  0
   -2.0444   -6.6762    1.1354 H   0  0  0  0  0  0  0  0  0  0  0  0
   -0.1121   -6.1207   -0.3946 H   0  0  0  0  0  0  0  0  0  0  0  0
    0.3773   -7.1609    0.9419 H   0  0  0  0  0  0  0  0  0  0  0  0
   -4.2241    2.8157    3.4056 H   0  0  0  0  0  0  0  0  0  0  0  0
   -3.9549    4.0667    2.1616 H   0  0  0  0  0  0  0  0  0  0  0  0
   -3.1293    4.1841    3.7495 H   0  0  0  0  0  0  0  0  0  0  0  0
  1  6  1  0  0  0  0
  1 18  3  0  0  0  0
  2  3  1  0  0  0  0
  2  4  2  0  0  0  0
  2 22  1  0  0  0  0
  3  5  2  0  0  0  0
  3 23  1  0  0  0  0
  4  7  1  0  0  0  0
  4 24  1  0  0  0  0
  5  9  1  0  0  0  0
  5 25  1  0  0  0  0
  6  8  1  0  0  0  0
  6 11  2  0  0  0  0
  7  9  2  0  0  0  0
  7 12  1  0  0  0  0
  8 10  2  0  0  0  0
  8 13  1  0  0  0  0
  9 20  1  0  0  0  0
 10 14  1  0  0  0  0
 10 21  1  0  0  0  0
 11 19  1  0  0  0  0
 11 21  1  0  0  0  0
 12 19  2  0  0  0  0
 12 26  1  0  0  0  0
 13 15  1  0  0  0  0
 13 27  1  0  0  0  0
 13 28  1  0  0  0  0
 14 16  1  0  0  0  0
 14 29  1  0  0  0  0
 14 30  1  0  0  0  0
 15 16  1  0  0  0  0
 15 31  1  0  0  0  0
 15 32  1  0  0  0  0
 16 33  1  0  0  0  0
 16 34  1  0  0  0  0
 17 20  1  0  0  0  0
 17 35  1  0  0  0  0
 17 36  1  0  0  0  0
 17 37  1  0  0  0  0
M  END
$$$$
