
  -OEChem-05262117483D

 41 43  0     0  0  0  0  0  0999 V2000
   -7.2426    7.6700   -3.7570 C   0  0  0  0  0  0  0  0  0  0  0  0
   -6.3994    6.5676   -3.6155 C   0  0  0  0  0  0  0  0  0  0  0  0
   -2.6237   -0.6941   -2.0078 C   0  0  0  0  0  0  0  0  0  0  0  0
   -2.0255   -1.8449   -2.5152 C   0  0  0  0  0  0  0  0  0  0  0  0
   -1.9895    1.7769   -4.7241 C   0  0  0  0  0  0  0  0  0  0  0  0
   -1.3649   -0.6422   -4.5261 C   0  0  0  0  0  0  0  0  0  0  0  0
   -5.1656    7.3065   -5.5633 C   0  0  0  0  0  0  0  0  0  0  0  0
   -1.9704    0.5292   -4.0218 C   0  0  0  0  0  0  0  0  0  0  0  0
   -2.6115    2.9017   -4.2359 C   0  0  0  0  0  0  0  0  0  0  0  0
   -7.0728    8.6039   -4.7861 C   0  0  0  0  0  0  0  0  0  0  0  0
   -6.0118    8.4101   -5.6994 C   0  0  0  0  0  0  0  0  0  0  0  0
   -5.3499    6.3811   -4.5250 C   0  0  0  0  0  0  0  0  0  0  0  0
   -2.5942    0.4770   -2.7656 C   0  0  0  0  0  0  0  0  0  0  0  0
   -1.4017   -1.8059   -3.7737 C   0  0  0  0  0  0  0  0  0  0  0  0
   -3.2213    2.8118   -2.8942 C   0  0  0  0  0  0  0  0  0  0  0  0
   -2.5671    4.1576   -5.0254 C   0  0  0  0  0  0  0  0  0  0  0  0
   -8.0033    9.7874   -4.9126 C   0  0  0  0  0  0  0  0  0  0  0  0
   -5.7856    9.3912   -6.8266 C   0  0  0  0  0  0  0  0  0  0  0  0
   -1.4212    4.2841   -6.0150 C   0  0  0  0  0  0  0  0  0  0  0  0
   -3.4091    5.1508   -5.0858 N   0  0  0  0  0  0  0  0  0  0  0  0
   -4.5349    5.2472   -4.3793 N   0  0  0  0  0  0  0  0  0  0  0  0
   -3.7435    3.7214   -2.2700 O   0  0  0  0  0  0  0  0  0  0  0  0
   -3.1886    1.5911   -2.2470 O   0  0  0  0  0  0  0  0  0  0  0  0
   -0.5887   -3.3991   -4.4580 Br  0  0  0  0  0  0  0  0  0  0  0  0
   -8.0525    7.8064   -3.0437 H   0  0  0  0  0  0  0  0  0  0  0  0
   -6.5506    5.8596   -2.8038 H   0  0  0  0  0  0  0  0  0  0  0  0
   -3.1128   -0.6928   -1.0388 H   0  0  0  0  0  0  0  0  0  0  0  0
   -2.0410   -2.7663   -1.9431 H   0  0  0  0  0  0  0  0  0  0  0  0
   -1.4938    1.8132   -5.6881 H   0  0  0  0  0  0  0  0  0  0  0  0
   -0.8786   -0.6226   -5.4965 H   0  0  0  0  0  0  0  0  0  0  0  0
   -4.3488    7.1522   -6.2599 H   0  0  0  0  0  0  0  0  0  0  0  0
   -7.4625   10.7392   -4.8442 H   0  0  0  0  0  0  0  0  0  0  0  0
   -8.5284    9.7908   -5.8756 H   0  0  0  0  0  0  0  0  0  0  0  0
   -8.7594    9.7781   -4.1227 H   0  0  0  0  0  0  0  0  0  0  0  0
   -6.6627    9.4593   -7.4810 H   0  0  0  0  0  0  0  0  0  0  0  0
   -5.5957   10.4018   -6.4459 H   0  0  0  0  0  0  0  0  0  0  0  0
   -4.9304    9.0983   -7.4411 H   0  0  0  0  0  0  0  0  0  0  0  0
   -1.5448    3.6220   -6.8821 H   0  0  0  0  0  0  0  0  0  0  0  0
   -1.3939    5.3082   -6.3882 H   0  0  0  0  0  0  0  0  0  0  0  0
   -0.4554    4.0491   -5.5538 H   0  0  0  0  0  0  0  0  0  0  0  0
   -4.6140    4.7217   -3.5072 H   0  0  0  0  0  0  0  0  0  0  0  0
  1  2  1  0  0  0  0
  1 10  2  0  0  0  0
  1 25  1  0  0  0  0
  2 12  2  0  0  0  0
  2 26  1  0  0  0  0
  3  4  2  0  0  0  0
  3 13  1  0  0  0  0
  3 27  1  0  0  0  0
  4 14  1  0  0  0  0
  4 28  1  0  0  0  0
  5  8  1  0  0  0  0
  5  9  2  0  0  0  0
  5 29  1  0  0  0  0
  6  8  1  0  0  0  0
  6 14  2  0  0  0  0
  6 30  1  0  0  0  0
  7 11  2  0  0  0  0
  7 12  1  0  0  0  0
  7 31  1  0  0  0  0
  8 13  2  0  0  0  0
  9 15  1  0  0  0  0
  9 16  1  0  0  0  0
 10 11  1  0  0  0  0
 10 17  1  0  0  0  0
 11 18  1  0  0  0  0
 12 21  1  0  0  0  0
 13 23  1  0  0  0  0
 14 24  1  0  0  0  0
 15 22  2  0  0  0  0
 15 23  1  0  0  0  0
 16 19  1  0  0  0  0
 16 20  2  0  0  0  0
 17 32  1  0  0  0  0
 17 33  1  0  0  0  0
 17 34  1  0  0  0  0
 18 35  1  0  0  0  0
 18 36  1  0  0  0  0
 18 37  1  0  0  0  0
 19 38  1  0  0  0  0
 19 39  1  0  0  0  0
 19 40  1  0  0  0  0
 20 21  1  0  0  0  0
 21 41  1  0  0  0  0
M  END
$$$$
