
  -OEChem-05262117483D

 16 16  0     0  0  0  0  0  0999 V2000
    1.7953   -1.2069   -0.0749 C   0  0  0  0  0  0  0  0  0  0  0  0
    0.7488   -0.5554    0.5650 C   0  0  0  0  0  0  0  0  0  0  0  0
    1.8400   -0.9957    2.7012 C   0  0  0  0  0  0  0  0  0  0  0  0
    2.8720   -1.7599    0.6419 C   0  0  0  0  0  0  0  0  0  0  0  0
    2.9020   -1.6565    2.0551 C   0  0  0  0  0  0  0  0  0  0  0  0
    0.7922   -0.4613    1.9596 C   0  0  0  0  0  0  0  0  0  0  0  0
    3.9631   -2.4442   -0.0823 C   0  0  0  0  0  0  0  0  0  0  0  0
    4.9383   -2.9553    0.4450 O   0  0  0  0  0  0  0  0  0  0  0  0
    3.7924   -2.4634   -1.4337 O   0  0  0  0  0  0  0  0  0  0  0  0
    4.2365   -2.3364    3.0095 S   0  0  0  0  0  0  0  0  0  0  0  0
   -0.6303    0.4285    2.8805 Br  0  0  0  0  0  0  0  0  0  0  0  0
    1.7918   -1.2970   -1.1553 H   0  0  0  0  0  0  0  0  0  0  0  0
   -0.0766   -0.1324    0.0034 H   0  0  0  0  0  0  0  0  0  0  0  0
    1.8299   -0.8981    3.7816 H   0  0  0  0  0  0  0  0  0  0  0  0
    4.5681   -2.9366   -1.7901 H   0  0  0  0  0  0  0  0  0  0  0  0
    3.7136   -1.9366    4.1919 H   0  0  0  0  0  0  0  0  0  0  0  0
  1  2  1  0  0  0  0
  1  4  2  0  0  0  0
  1 12  1  0  0  0  0
  2  6  2  0  0  0  0
  2 13  1  0  0  0  0
  3  5  2  0  0  0  0
  3  6  1  0  0  0  0
  3 14  1  0  0  0  0
  4  5  1  0  0  0  0
  4  7  1  0  0  0  0
  5 10  1  0  0  0  0
  6 11  1  0  0  0  0
  7  8  2  0  0  0  0
  7  9  1  0  0  0  0
  9 15  1  0  0  0  0
 10 16  1  0  0  0  0
M  END
$$$$
