24
0 1 C9H11NO3
C                     2.221700511752    -0.786884877109     0.072434422193
C                     1.655644719016    -1.219444595148     2.751023897042
C                     0.952838596949    -0.441307837557     0.568302583921
C                     2.913545971465    -1.577066856330     2.272540815384
C                     0.671918836753    -0.655851725445     1.925656761039
C                     3.188067645803    -1.346119416846     0.904378093194
C                    -0.018170289090     0.129989339032    -0.444864548717
C                     3.966611954515    -2.185991787037     3.159998155052
C                     4.773435789704    -1.503508064859    -0.882301365017
N                    -0.632513544634    -0.294665662129     2.459608473092
O                     0.316748433509     0.336362058733    -1.597725728255
O                    -1.266418714204     0.387513698485    -0.022949637736
O                     4.439487821532    -1.710663146606     0.490204065828
H                     2.400962784436    -0.602015903085    -0.979344252624
H                     1.427822033918    -1.380074241905     3.803235258897
H                     4.269395359100    -3.170351898770     2.787809529131
H                     4.869893386149    -1.567165442708     3.175997007792
H                     3.601058946228    -2.297120583518     4.183997846823
H                     5.799409106092    -1.855853233309    -0.994353491062
H                     4.719306522705    -0.441413778834    -1.147844304409
H                     4.113939641977    -2.078883202744    -1.542225421313
H                    -0.557958709358     0.510404278697     3.081208616190
H                    -1.025382659368    -1.060166435237     3.005133428329
H                    -1.322241173649     0.155666324362     0.949686923318
