
  -OEChem-05262117483D

 21 22  0     0  0  0  0  0  0999 V2000
    0.6109    0.4892    1.9281 C   0  0  0  0  0  0  0  0  0  0  0  0
    0.2723   -0.3410    0.8540 C   0  0  0  0  0  0  0  0  0  0  0  0
    0.8366   -0.0856    3.1759 C   0  0  0  0  0  0  0  0  0  0  0  0
    0.1746   -1.7179    1.0800 C   0  0  0  0  0  0  0  0  0  0  0  0
    1.3714   -3.5581    7.1523 C   0  0  0  0  0  0  0  0  0  0  0  0
    0.7136   -1.4796    3.2999 C   0  0  0  0  0  0  0  0  0  0  0  0
    1.7930   -1.5759    7.9728 C   0  0  0  0  0  0  0  0  0  0  0  0
    0.9324   -2.1779    4.5753 C   0  0  0  0  0  0  0  0  0  0  0  0
    0.3881   -2.2869    2.2719 N   0  0  0  0  0  0  0  0  0  0  0  0
    1.6512   -3.7027    8.4202 N   0  0  0  0  0  0  0  0  0  0  0  0
    1.9221   -2.4412    8.9519 N   0  0  0  0  0  0  0  0  0  0  0  0
    1.2505   -1.5233    5.6335 N   0  0  0  0  0  0  0  0  0  0  0  0
    1.4448   -2.2161    6.8015 N   0  0  0  0  0  0  0  0  0  0  0  0
    2.0104    0.1653    8.0403 S   0  0  0  0  0  0  0  0  0  0  0  0
    0.6965    1.5640    1.7923 H   0  0  0  0  0  0  0  0  0  0  0  0
    0.0875    0.0642   -0.1365 H   0  0  0  0  0  0  0  0  0  0  0  0
    1.1018    0.5095    4.0435 H   0  0  0  0  0  0  0  0  0  0  0  0
   -0.0868   -2.3935    0.2674 H   0  0  0  0  0  0  0  0  0  0  0  0
    1.1186   -4.3562    6.4702 H   0  0  0  0  0  0  0  0  0  0  0  0
    0.8038   -3.2619    4.5362 H   0  0  0  0  0  0  0  0  0  0  0  0
    2.3133    0.1289    9.3541 H   0  0  0  0  0  0  0  0  0  0  0  0
  1  2  1  0  0  0  0
  1  3  2  0  0  0  0
  1 15  1  0  0  0  0
  2  4  2  0  0  0  0
  2 16  1  0  0  0  0
  3  6  1  0  0  0  0
  3 17  1  0  0  0  0
  4  9  1  0  0  0  0
  4 18  1  0  0  0  0
  5 10  2  0  0  0  0
  5 13  1  0  0  0  0
  5 19  1  0  0  0  0
  6  8  1  0  0  0  0
  6  9  2  0  0  0  0
  7 11  2  0  0  0  0
  7 13  1  0  0  0  0
  7 14  1  0  0  0  0
  8 12  2  0  0  0  0
  8 20  1  0  0  0  0
 10 11  1  0  0  0  0
 12 13  1  0  0  0  0
 14 21  1  0  0  0  0
M  END
$$$$
