
  -OEChem-05262117483D

 37 39  0     0  0  0  0  0  0999 V2000
   -0.6979   -1.9375   -1.9645 C   0  0  0  0  0  0  0  0  0  0  0  0
    1.5521    4.1787   -0.6046 C   0  0  0  0  0  0  0  0  0  0  0  0
    1.9064    4.5957   -1.8937 C   0  0  0  0  0  0  0  0  0  0  0  0
    1.2806    2.8335   -0.3743 C   0  0  0  0  0  0  0  0  0  0  0  0
    1.9939    3.6795   -2.9454 C   0  0  0  0  0  0  0  0  0  0  0  0
   -0.2639   -2.2009   -0.6341 C   0  0  0  0  0  0  0  0  0  0  0  0
    1.3605    1.8873   -1.4114 C   0  0  0  0  0  0  0  0  0  0  0  0
   -0.5055   -3.4632    0.0189 C   0  0  0  0  0  0  0  0  0  0  0  0
    1.7257    2.3239   -2.7108 C   0  0  0  0  0  0  0  0  0  0  0  0
   -0.0488   -3.4805    1.3106 C   0  0  0  0  0  0  0  0  0  0  0  0
    0.3760   -1.2671    0.1848 C   0  0  0  0  0  0  0  0  0  0  0  0
    1.0640    0.4789   -1.1776 C   0  0  0  0  0  0  0  0  0  0  0  0
   -1.1763   -4.6534   -0.6194 C   0  0  0  0  0  0  0  0  0  0  0  0
   -0.1438   -4.6543    2.2463 C   0  0  0  0  0  0  0  0  0  0  0  0
   -1.5918   -5.6892    0.4375 C   0  0  0  0  0  0  0  0  0  0  0  0
   -0.4683   -5.9339    1.4550 C   0  0  0  0  0  0  0  0  0  0  0  0
    2.0652    1.7512   -5.0162 C   0  0  0  0  0  0  0  0  0  0  0  0
   -1.0693   -1.7600   -3.0577 N   0  0  0  0  0  0  0  0  0  0  0  0
    0.7362    0.0443   -0.0032 N   0  0  0  0  0  0  0  0  0  0  0  0
    1.7940    1.3599   -3.6719 O   0  0  0  0  0  0  0  0  0  0  0  0
    0.6536   -1.9508    1.7709 S   0  0  0  0  0  0  0  0  0  0  0  0
    1.4865    4.8992    0.2055 H   0  0  0  0  0  0  0  0  0  0  0  0
    2.1175    5.6442   -2.0876 H   0  0  0  0  0  0  0  0  0  0  0  0
    0.9969    2.4783    0.6115 H   0  0  0  0  0  0  0  0  0  0  0  0
    2.2709    4.0276   -3.9336 H   0  0  0  0  0  0  0  0  0  0  0  0
    1.1436   -0.1843   -2.0406 H   0  0  0  0  0  0  0  0  0  0  0  0
   -2.0462   -4.3253   -1.1989 H   0  0  0  0  0  0  0  0  0  0  0  0
   -0.4870   -5.1098   -1.3425 H   0  0  0  0  0  0  0  0  0  0  0  0
    0.7911   -4.7801    2.8044 H   0  0  0  0  0  0  0  0  0  0  0  0
   -0.9279   -4.4693    2.9932 H   0  0  0  0  0  0  0  0  0  0  0  0
   -2.4836   -5.3300    0.9668 H   0  0  0  0  0  0  0  0  0  0  0  0
   -1.8701   -6.6270   -0.0549 H   0  0  0  0  0  0  0  0  0  0  0  0
    0.4325   -6.2694    0.9260 H   0  0  0  0  0  0  0  0  0  0  0  0
   -0.7481   -6.7321    2.1507 H   0  0  0  0  0  0  0  0  0  0  0  0
    2.0224    0.8337   -5.6033 H   0  0  0  0  0  0  0  0  0  0  0  0
    3.0625    2.1979   -5.1067 H   0  0  0  0  0  0  0  0  0  0  0  0
    1.3091    2.4548   -5.3832 H   0  0  0  0  0  0  0  0  0  0  0  0
  1  6  1  0  0  0  0
  1 18  3  0  0  0  0
  2  3  1  0  0  0  0
  2  4  2  0  0  0  0
  2 22  1  0  0  0  0
  3  5  2  0  0  0  0
  3 23  1  0  0  0  0
  4  7  1  0  0  0  0
  4 24  1  0  0  0  0
  5  9  1  0  0  0  0
  5 25  1  0  0  0  0
  6  8  1  0  0  0  0
  6 11  2  0  0  0  0
  7  9  2  0  0  0  0
  7 12  1  0  0  0  0
  8 10  2  0  0  0  0
  8 13  1  0  0  0  0
  9 20  1  0  0  0  0
 10 14  1  0  0  0  0
 10 21  1  0  0  0  0
 11 19  1  0  0  0  0
 11 21  1  0  0  0  0
 12 19  2  0  0  0  0
 12 26  1  0  0  0  0
 13 15  1  0  0  0  0
 13 27  1  0  0  0  0
 13 28  1  0  0  0  0
 14 16  1  0  0  0  0
 14 29  1  0  0  0  0
 14 30  1  0  0  0  0
 15 16  1  0  0  0  0
 15 31  1  0  0  0  0
 15 32  1  0  0  0  0
 16 33  1  0  0  0  0
 16 34  1  0  0  0  0
 17 20  1  0  0  0  0
 17 35  1  0  0  0  0
 17 36  1  0  0  0  0
 17 37  1  0  0  0  0
M  END
$$$$
