19   
torsion grid (-45,)
C        1.9956591097   -0.9320780070   -0.1302110315
C        0.8716208653   -0.3788171584    0.4962456578
C        2.9719731704   -1.5688388202    0.6329160229
C        0.7561872735   -0.4770481697    1.8868623842
C        2.8767653683   -1.6535316187    2.0401230937
C        1.7340338105   -1.0993922796    2.6769227914
C        3.9332096063   -2.3644840964    2.7591404713
C        1.5454966941   -1.1601831689    4.1739769399
N        5.0145850153   -2.9309875652    2.1588786658
N        4.2842483409   -2.1505445067    4.0893972665
N        5.4690694906   -3.7094971102    3.1775036381
N        5.4251047520   -2.9275347698    4.2566561870
H        2.1049756460   -0.8743603404   -1.2120681539
H        0.0952422061    0.1138642521   -0.0861868890
H        3.8391305401   -2.0235327842    0.1633601201
H       -0.1189636669   -0.0552219117    2.3801437908
H        1.6569540186   -2.1827222530    4.5483128597
H        2.3162517604   -0.5824869263    4.6913566776
H        0.5546038753   -0.7810995445    4.4512052261
19   
torsion grid (-30,)
C        1.9883319915   -0.9395734127   -0.1222872364
C        0.8660674755   -0.3895130031    0.5093458800
C        2.9755632343   -1.5620236082    0.6387412554
C        0.7634817761   -0.4786572048    1.9009952389
C        2.8909010019   -1.6433988916    2.0465942805
C        1.7503924581   -1.0914490597    2.6885569626
C        3.9688800650   -2.3331137139    2.7619782178
C        1.5645234374   -1.1450511557    4.1866742103
N        5.0165747637   -2.9234797504    2.1296727534
N        4.2598615602   -2.2027000904    4.0920112529
N        5.6145976307   -3.6072374382    3.1247960242
N        5.3925207072   -2.9355718518    4.2599815542
H        2.0899045464   -0.8880968311   -1.2051917790
H        0.0821423522    0.0952852136   -0.0696385545
H        3.8446843573   -2.0081006909    0.1652280513
H       -0.1100227381   -0.0584680371    2.3984096409
H        1.6566836302   -2.1686213119    4.5628272228
H        2.3459503185   -0.5814720699    4.7032047153
H        0.5813422925   -0.7461823626    4.4636399738
19   
torsion grid (-15,)
C        1.9975342939   -0.9493948024   -0.1276645732
C        0.8717284084   -0.3970040397    0.4949941185
C        2.9871918202   -1.5555877872    0.6432370818
C        0.7677277204   -0.4689468270    1.8870697585
C        2.8989397663   -1.6264240503    2.0514175501
C        1.7550843969   -1.0705788224    2.6837730883
C        3.9909032533   -2.2924178665    2.7721554723
C        1.5601459660   -1.1039210595    4.1812149048
N        5.0445377807   -2.8650785771    2.1427267634
N        4.1876315789   -2.2863071653    4.1159872833
N        5.7444216343   -3.4482309885    3.1256660775
N        5.3345587803   -2.9725196502    4.3022777963
H        2.1016605651   -0.9099115332   -1.2107948660
H        0.0869907826    0.0781812027   -0.0908658990
H        3.8630356114   -1.9961801710    0.1772705330
H       -0.1077040634   -0.0453473492    2.3780735461
H        1.6384622121   -2.1228319451    4.5708156851
H        2.3454475728   -0.5438825761    4.6963533944
H        0.5811055847   -0.6868937943    4.4461410748
19   
torsion grid (0,)
C        1.9502191473   -0.9514714234   -0.1144914799
C        0.8369247996   -0.4016516638    0.5320693695
C        2.9551068296   -1.5592158108    0.6352577468
C        0.7614617665   -0.4771881109    1.9256998572
C        2.8914466447   -1.6424966332    2.0440752760
C        1.7622307652   -1.0847952475    2.7011502825
C        4.0039743029   -2.3043721619    2.7398375414
C        1.5950965513   -1.1202079343    4.2020414475
N        5.0649526164   -2.8266068460    2.0800791459
N        4.1252834275   -2.4804197367    4.0759033280
N        5.8514586318   -3.3331527762    3.0395892379
N        5.2919994082   -3.1275343922    4.2337271003
H        2.0344688785   -0.9064846037   -1.1991318805
H        0.0415846551    0.0773005050   -0.0361791097
H        3.8254527895   -1.9908780108    0.1512258657
H       -0.1020197595   -0.0513205504    2.4354805065
H        1.6020301697   -2.1466620309    4.5792383122
H        2.4307910529   -0.6286553802    4.7076836935
H        0.6562588624   -0.6324965289    4.4907237183
19   
torsion grid (15,)
C        1.9591842789   -0.9721211432   -0.1220876490
C        0.8438724162   -0.4176019617    0.5172861581
C        2.9661754260   -1.5667583920    0.6353058572
C        0.7682284595   -0.4750608284    1.9118745102
C        2.8980922651   -1.6394127090    2.0444788780
C        1.7686034909   -1.0739981518    2.6941700648
C        4.0154976101   -2.2773592172    2.7531268237
C        1.6055306044   -1.0897151669    4.1958458679
N        5.1137959977   -2.7436772399    2.1096889691
N        4.0386565913   -2.6301601857    4.0621932869
N        5.9329056832   -3.1399636145    3.0965688343
N        5.2343170221   -3.2253790490    4.2322214980
H        2.0444205337   -0.9383925766   -1.2070755986
H        0.0484527288    0.0536221322   -0.0572539247
H        3.8421389024   -1.9938837885    0.1573301858
H       -0.0949228896   -0.0422407152    2.4163978155
H        1.5714405622   -2.1119469770    4.5815636295
H        2.4632398962   -0.6279787191    4.6940562185
H        0.6904929412   -0.5586583571    4.4843184888
19   
torsion grid (30,)
C        1.9616162473   -0.9885118678   -0.1262873849
C        0.8444997643   -0.4290518802    0.5062147885
C        2.9680106209   -1.5756889710    0.6376669319
C        0.7655806291   -0.4747035311    1.9015085807
C        2.8913079725   -1.6425423052    2.0467385704
C        1.7619001434   -1.0702073342    2.6904812332
C        4.0066932555   -2.2634318565    2.7678112376
C        1.6003252139   -1.0791553667    4.1923448430
N        5.1167741284   -2.7388052148    2.1451347528
N        3.9643707926   -2.7473397758    4.0463665056
N        5.9448634157   -2.9986713072    3.1757477851
N        5.1838841135   -3.3201616654    4.2277064281
H        2.0498447443   -0.9615246580   -1.2112464422
H        0.0514687572    0.0390313495   -0.0741216818
H        3.8488182380   -2.0001926121    0.1659191104
H       -0.0977069988   -0.0357266111    2.4005316369
H        1.5221670110   -2.0997105003    4.5762785269
H        2.4780883271   -0.6549943444    4.6896411440
H        0.7101020915   -0.5090020903    4.4836864221
19   
torsion grid (45,)
C        1.9603031466   -0.9977586359   -0.1365553232
C        0.8391990632   -0.4383879607    0.4897421831
C        2.9727759747   -1.5669083558    0.6328696397
C        0.7607575964   -0.4674692352    1.8861080201
C        2.8929119640   -1.6222418255    2.0425074296
C        1.7601737542   -1.0490966887    2.6801879789
C        4.0140571814   -2.2127060812    2.7723557388
C        1.6028713170   -1.0511932647    4.1820673210
N        5.1205405389   -2.7338838640    2.1766628950
N        3.9350031165   -2.7897172996    4.0371476502
N        5.9471926533   -2.8243112152    3.2529325087
N        5.1957366317   -3.3449713129    4.2239864876
H        2.0478218599   -0.9814208976   -1.2218118234
H        0.0437097365    0.0185066165   -0.0960717055
H        3.8599136395   -1.9852312597    0.1668637074
H       -0.1050067245   -0.0278801482    2.3804368559
H        1.5060435712   -2.0703676957    4.5660639679
H        2.4906849327   -0.6441037579    4.6762116017
H        0.7252734571   -0.4632981697    4.4763777526
