57
0 1 C27H25NO4
C                    -1.042552152642     1.620996555391     1.620371702941
C                    -0.892630480828     0.437790841146     0.856542441888
C                    -7.435280070860    -2.707316775208    -0.557991909936
C                    -2.095718689945     1.761612968754     2.514177909695
C                    -4.861084437712     1.223556243866     5.771226207373
C                    -5.034739781509     2.827113182184     3.981526078641
C                    -6.453117219325    -2.991125223837     0.402325474447
C                    -1.780819259820    -0.625344823295     0.978081625216
C                    -7.236074442632    -1.709807721062    -1.506300961633
C                    -5.326778618548     2.175953295351     6.682958091052
C                    -5.492943204924     3.785236190386     4.876742156363
C                    -5.047844892174    -1.261284044228    -0.555500951095
C                    -3.021191353121     0.706545981459     2.641464142742
C                    -4.715615855626     1.520455203160     4.407644498211
C                    -4.199822060499     0.528666512328     3.442431489073
C                    -5.257954068658    -2.272103487462     0.398779346831
C                    -2.843340919943    -0.487289564130     1.888205852653
C                    -5.645978798867     3.467452739170     6.237998644986
C                    -6.036524852106    -0.976876096028    -1.501868060014
C                    -4.690688624444    -0.742830720859     3.153334559820
C                    -5.883331785608    -1.437805771639     3.692745248103
C                    -7.646093693338     5.324590740662    10.337013113616
C                    -8.268268290049     5.773462944191     9.032475050248
C                    -6.792462980259     5.454266145314     9.092469775660
C                    -4.737913573498     0.780673040461    -2.473374113335
C                    -4.186355447715    -2.558951133106     1.434207096726
C                    -6.277885123235     4.205495644547     8.435748199299
N                    -3.848545290254    -1.370917602873     2.229389763545
O                    -6.042431782136    -2.644381687208     3.654201303021
O                    -6.842148195875    -0.655733110373     4.250992216162
O                    -5.925815947158    -0.005088488681    -2.461733389474
O                    -6.109492499715     4.471773425873     7.034320609173
H                    -0.320155355768     2.424028909951     1.502667747323
H                    -0.059715684977     0.354869571292     0.163364614502
H                    -8.369220871182    -3.263300272417    -0.555509576683
H                    -2.210078028629     2.665703432967     3.105888314148
H                    -4.603416560107     0.230738811368     6.129647589644
H                    -4.934464044487     3.080764329587     2.929647108868
H                    -6.628844995708    -3.744403717912     1.164062014260
H                    -1.643484538929    -1.526922045014     0.389019419320
H                    -7.990513676336    -1.473162159583    -2.250966128210
H                    -5.427186718666     1.899642240026     7.725981973426
H                    -5.748057056346     4.787653982298     4.545652417182
H                    -4.121223464651    -0.699792997612    -0.536683917493
H                    -7.508427019583     6.059162254121    11.124455034407
H                    -7.879187115748     4.324959511273    10.694184965614
H                    -8.911466790417     5.072938676591     8.507301933028
H                    -8.559870587639     6.814332662560     8.932086572021
H                    -6.107848848840     6.297817503643     9.054969177533
H                    -4.860054463064     1.494936902201    -3.288839078993
H                    -3.850668412724     0.163143772977    -2.661434327570
H                    -4.606717874470     1.323486242957    -1.529139445696
H                    -4.511992783046    -3.346969518383     2.108765448239
H                    -3.261540943404    -2.887117295200     0.954262708075
H                    -6.989451228971     3.379809340601     8.571303434817
H                    -5.313862519399     3.905131521750     8.867747613925
H                    -6.574881731600     0.283093265629     4.232208192636
