56
-1 1 C27H24NO4
C                    -1.310219786161     2.196972669251     1.476125075703
C                    -1.291950244594     1.122513692023     0.562648690557
C                    -1.918426565184    -4.784281715854     1.531443747860
C                    -2.282051511012     2.278347408123     2.475360205367
C                    -5.239794627701     1.321748430289     5.817468167424
C                    -4.722260813237     3.263992658463     4.498815148645
C                    -2.739584112352    -3.780301009634     0.996840740371
C                    -2.245229751995     0.103821785261     0.640678410321
C                    -1.918013595289    -5.048681256755     2.899029836227
C                    -5.622899904305     2.144891545603     6.882243513911
C                    -5.093286418776     4.092940900696     5.555100196044
C                    -3.577317849888    -3.301553847380     3.220113098942
C                    -3.265756506650     1.275367767600     2.570065659024
C                    -4.777517603411     1.857532921153     4.602647543909
C                    -4.357170956720     1.001767618332     3.481508971786
C                    -3.570523293880    -3.040182565401     1.841755502616
C                    -3.222938444863     0.196934018632     1.635803552883
C                    -5.544293799432     3.537301649137     6.759027516173
C                    -2.753194894175    -4.298989128931     3.746690361432
C                    -4.929508866129    -0.200209249850     3.074076773211
C                    -6.088990306578    -1.029764468927     3.638853200664
C                    -7.702034619685     4.857167600292    10.995181608640
C                    -7.990257332311     5.753737360945     9.807200837375
C                    -6.659900379454     5.047473774904     9.913571182417
C                    -3.529460020766    -3.826275105472     5.954925593926
C                    -4.481602998396    -1.950476468704     1.301971183472
C                    -6.351592761672     3.901337040686     8.987743600087
N                    -4.260754445594    -0.661926690407     1.943891308117
O                    -5.880696742396    -1.525953883556     4.785144115954
O                    -7.072486689976    -1.172577914942     2.873678771142
O                    -2.707075576235    -4.611519908944     5.080495120781
O                    -5.894703168853     4.436775645449     7.750635392444
H                    -0.545808424885     2.968431115192     1.407858611975
H                    -0.518815397000     1.076093859637    -0.201114910187
H                    -1.267734095288    -5.359501132761     0.875899670170
H                    -2.259577545379     3.098229532378     3.187629693451
H                    -5.315508477487     0.242466008078     5.913014742966
H                    -4.413712615620     3.716402274059     3.560986033555
H                    -2.725704947722    -3.573567052402    -0.071454407166
H                    -2.210751279627    -0.743025891998    -0.039128336643
H                    -1.284184775406    -5.819359034016     3.329710715872
H                    -5.978657985301     1.679662246947     7.795649761910
H                    -5.054247015655     5.175256550803     5.459841884495
H                    -4.232130387710    -2.725201477940     3.865882469202
H                    -7.526745615878     5.320565839965    11.962030304536
H                    -8.213925642923     3.899469061007    11.044151784134
H                    -8.685105422895     5.393552416243     9.053782106047
H                    -8.014773715599     6.827846287448     9.966963056849
H                    -5.801636598184     5.665553794154    10.166515518404
H                    -3.353388189235    -4.225092674774     6.956089346976
H                    -4.590152653945    -3.907620914227     5.697744649316
H                    -3.250189605392    -2.767991784382     5.919815474472
H                    -4.329148615659    -1.830706224248     0.224767586307
H                    -5.532036372449    -2.205890612318     1.462058047872
H                    -7.252611870770     3.290440051726     8.829364120665
H                    -5.579558957225     3.251788471999     9.425305662049
