50
0 1 C21H24N2O3
C                    -5.359352238170    -1.843571368923     6.154034731981
C                    -5.917927481312    -2.517855733644     7.232800878322
C                    -3.712854617121    -2.243305510196     4.127113550971
C                    -4.750599009592    -4.583609451820     6.673426159542
C                    -4.478783065959    -2.545311093074     5.309326883317
C                    -5.627440514653    -3.878239471460     7.501155897162
C                    -4.197893564115    -3.894836601371     5.597550379126
C                    -3.046154769441    -3.391671276412     3.791736645576
C                    -2.085388013062    -3.722290894558     2.705506867436
C                    -5.816815400876    -4.031570568542    10.055669598893
C                    -6.572516436471    -4.066720545623    12.524107801212
C                    -5.354437753539    -4.926021678271    12.428859263566
C                    -0.708356047983    -4.254715501725    -1.607394621411
C                    -3.086521984019    -3.661696701327    -1.093190802715
C                    -0.576930336789    -2.878697228511    -2.331378394281
C                    -2.854889561678    -2.303210180229    -1.823833249469
C                    -1.094514751178    -1.696050240732    -0.311705554612
C                    -6.293933544004    -4.822810568802    11.226762589664
C                    -1.748439874693    -4.110934582183    -0.481918658864
C                    -1.233097435977    -3.026878272434     0.490840904142
C                    -6.257136407603    -4.561347538079     8.687293210821
N                    -1.453038867913    -1.860439569860    -1.724496754370
N                    -2.094276105243    -2.841407105328     1.655755338220
O                    -1.332230361894    -4.692647612019     2.768921437614
O                    -5.136416462279    -3.024774697770    10.189219850752
O                    -3.325171338507    -4.409646105719     4.676464266937
H                    -5.596636971634    -0.798955578621     5.971837235020
H                    -6.587829835386    -1.987578596391     7.903521340364
H                    -3.641278007062    -1.288146095461     3.622600422239
H                    -4.501981385233    -5.625122829598     6.856412749684
H                    -7.412572838620    -4.411855447032    13.118903308803
H                    -6.430816326390    -2.991794045621    12.477525950639
H                    -4.397013285715    -4.427530030561    12.317068238849
H                    -5.338146387512    -5.875384956807    12.955018761816
H                    -1.027720199153    -5.037012772258    -2.304499086578
H                     0.252676249520    -4.574034958587    -1.188995045224
H                    -3.849960585287    -3.570965728362    -0.312802538969
H                    -3.444534942027    -4.426939818051    -1.790171625627
H                     0.451302973754    -2.505260151840    -2.287529675208
H                    -0.843767775933    -2.960262878646    -3.389754501303
H                    -3.107397093628    -2.376814787863    -2.886289243992
H                    -3.485336584636    -1.512295840916    -1.402020390313
H                    -1.741028329808    -0.919983703765     0.115510997630
H                    -0.069137431208    -1.318573012476    -0.255825965195
H                    -6.916258125411    -5.686264610115    11.010198303185
H                    -1.861393141902    -5.051536162515     0.061866361704
H                    -0.263644516149    -3.349000653979     0.878499401387
H                    -7.352197227328    -4.463320714242     8.659549846693
H                    -6.061519119457    -5.639547724101     8.666242716009
H                    -2.868221165481    -2.194423971884     1.580930818362
