
  -OEChem-05262117483D

 51 55  0     1  0  0  0  0  0999 V2000
    0.7079   -8.7520    2.1154 C   0  0  0  0  0  0  0  0  0  0  0  0
   -0.5834   -9.2523    2.0502 C   0  0  0  0  0  0  0  0  0  0  0  0
    2.0223   -6.4833    1.8451 C   0  0  0  0  0  0  0  0  0  0  0  0
   -1.5210   -7.0709    1.4862 C   0  0  0  0  0  0  0  0  0  0  0  0
    0.8996   -7.3779    1.8678 C   0  0  0  0  0  0  0  0  0  0  0  0
   -1.6985   -8.4317    1.7384 C   0  0  0  0  0  0  0  0  0  0  0  0
   -0.2204   -6.5802    1.5565 C   0  0  0  0  0  0  0  0  0  0  0  0
    1.5232   -5.2427    1.5314 C   0  0  0  0  0  0  0  0  0  0  0  0
    2.1638   -3.9352    1.3469 C   0  0  0  0  0  0  0  0  0  0  0  0
   -3.6370   -9.3121    3.1321 C   0  0  0  0  0  0  0  0  0  0  0  0
   -5.9031   -9.4846    4.3494 C   0  0  0  0  0  0  0  0  0  0  0  0
   -5.3360  -10.8632    4.2947 C   0  0  0  0  0  0  0  0  0  0  0  0
    4.1852   -0.1519    2.4656 C   0  0  0  0  0  0  0  0  0  0  0  0
    4.2617   -1.9309    4.2337 C   0  0  0  0  0  0  0  0  0  0  0  0
    5.7032   -0.2451    2.1960 C   0  0  0  0  0  0  0  0  0  0  0  0
    5.7952   -1.7591    4.1750 C   0  0  0  0  0  0  0  0  0  0  0  0
    5.6468   -2.7199    1.8831 C   0  0  0  0  0  0  0  0  0  0  0  0
   -5.0118   -9.8776    3.1697 C   0  0  0  0  0  0  0  0  0  0  0  0
    3.6634   -1.5412    2.8724 C   0  0  0  0  0  0  0  0  0  0  0  0
    4.1139   -2.5511    1.7900 C   0  0  2  0  0  0  0  0  0  0  0  0
   -3.0779   -9.0339    1.7291 C   0  0  0  0  0  0  0  0  0  0  0  0
    3.4721   -3.8482    1.8422 N   0  0  0  0  0  0  0  0  0  0  0  0
    6.2007   -1.5835    2.7205 N   0  3  0  0  0  0  0  0  0  0  0  0
    1.6335   -2.9781    0.7924 O   0  0  0  0  0  0  0  0  0  0  0  0
   -2.9900   -9.0872    4.1452 O   0  0  0  0  0  0  0  0  0  0  0  0
    0.1608   -5.2805    1.3453 O   0  0  0  0  0  0  0  0  0  0  0  0
    1.5443   -9.4014    2.3578 H   0  0  0  0  0  0  0  0  0  0  0  0
   -0.7570  -10.3052    2.2543 H   0  0  0  0  0  0  0  0  0  0  0  0
    3.0627   -6.7408    2.0002 H   0  0  0  0  0  0  0  0  0  0  0  0
   -2.3557   -6.4175    1.2504 H   0  0  0  0  0  0  0  0  0  0  0  0
   -6.9571   -9.3410    4.1338 H   0  0  0  0  0  0  0  0  0  0  0  0
   -5.4625   -8.7889    5.0562 H   0  0  0  0  0  0  0  0  0  0  0  0
   -4.5144  -11.0946    4.9646 H   0  0  0  0  0  0  0  0  0  0  0  0
   -5.9903  -11.6908    4.0397 H   0  0  0  0  0  0  0  0  0  0  0  0
    3.9839    0.5743    3.2571 H   0  0  0  0  0  0  0  0  0  0  0  0
    3.6745    0.1966    1.5654 H   0  0  0  0  0  0  0  0  0  0  0  0
    4.0014   -2.9620    4.4873 H   0  0  0  0  0  0  0  0  0  0  0  0
    3.8550   -1.3004    5.0274 H   0  0  0  0  0  0  0  0  0  0  0  0
    5.9495   -0.2195    1.1328 H   0  0  0  0  0  0  0  0  0  0  0  0
    6.2791    0.5297    2.7048 H   0  0  0  0  0  0  0  0  0  0  0  0
    6.1435   -0.8687    4.7016 H   0  0  0  0  0  0  0  0  0  0  0  0
    6.3415   -2.6230    4.5579 H   0  0  0  0  0  0  0  0  0  0  0  0
    5.9357   -3.6469    2.3833 H   0  0  0  0  0  0  0  0  0  0  0  0
    6.1340   -2.6865    0.9073 H   0  0  0  0  0  0  0  0  0  0  0  0
   -5.4977  -10.0401    2.2121 H   0  0  0  0  0  0  0  0  0  0  0  0
    2.5739   -1.5365    2.9119 H   0  0  0  0  0  0  0  0  0  0  0  0
    3.8487   -2.1284    0.8193 H   0  0  0  0  0  0  0  0  0  0  0  0
   -3.7916   -8.3845    1.2089 H   0  0  0  0  0  0  0  0  0  0  0  0
   -3.0880   -9.9857    1.1820 H   0  0  0  0  0  0  0  0  0  0  0  0
    3.7155   -4.4789    2.5969 H   0  0  0  0  0  0  0  0  0  0  0  0
    7.2221   -1.5995    2.6600 H   0  0  0  0  0  0  0  0  0  0  0  0
  1  2  1  0  0  0  0
  1  5  2  0  0  0  0
  1 27  1  0  0  0  0
  2  6  2  0  0  0  0
  2 28  1  0  0  0  0
  3  5  1  0  0  0  0
  3  8  2  0  0  0  0
  3 29  1  0  0  0  0
  4  6  1  0  0  0  0
  4  7  2  0  0  0  0
  4 30  1  0  0  0  0
  5  7  1  0  0  0  0
  6 21  1  0  0  0  0
  7 26  1  0  0  0  0
  8  9  1  0  0  0  0
  8 26  1  0  0  0  0
  9 22  1  0  0  0  0
  9 24  2  0  0  0  0
 10 18  1  0  0  0  0
 10 21  1  0  0  0  0
 10 25  2  0  0  0  0
 11 12  1  0  0  0  0
 11 18  1  0  0  0  0
 11 31  1  0  0  0  0
 11 32  1  0  0  0  0
 12 18  1  0  0  0  0
 12 33  1  0  0  0  0
 12 34  1  0  0  0  0
 13 15  1  0  0  0  0
 13 19  1  0  0  0  0
 13 35  1  0  0  0  0
 13 36  1  0  0  0  0
 14 16  1  0  0  0  0
 14 19  1  0  0  0  0
 14 37  1  0  0  0  0
 14 38  1  0  0  0  0
 15 23  1  0  0  0  0
 15 39  1  0  0  0  0
 15 40  1  0  0  0  0
 16 23  1  0  0  0  0
 16 41  1  0  0  0  0
 16 42  1  0  0  0  0
 17 20  1  0  0  0  0
 17 23  1  0  0  0  0
 17 43  1  0  0  0  0
 17 44  1  0  0  0  0
 18 45  1  0  0  0  0
 19 20  1  0  0  0  0
 19 46  1  0  0  0  0
 20 22  1  0  0  0  0
 20 47  1  0  0  0  0
 21 48  1  0  0  0  0
 21 49  1  0  0  0  0
 22 50  1  0  0  0  0
 23 51  1  0  0  0  0
M  CHG  1  23   1
M  END
$$$$
