
  -OEChem-05262117483D

 50 54  0     1  0  0  0  0  0999 V2000
   -5.3594   -1.8436    6.1540 C   0  0  0  0  0  0  0  0  0  0  0  0
   -5.9179   -2.5179    7.2328 C   0  0  0  0  0  0  0  0  0  0  0  0
   -3.7129   -2.2433    4.1271 C   0  0  0  0  0  0  0  0  0  0  0  0
   -4.7506   -4.5836    6.6734 C   0  0  0  0  0  0  0  0  0  0  0  0
   -4.4788   -2.5453    5.3093 C   0  0  0  0  0  0  0  0  0  0  0  0
   -5.6274   -3.8782    7.5012 C   0  0  0  0  0  0  0  0  0  0  0  0
   -4.1979   -3.8948    5.5976 C   0  0  0  0  0  0  0  0  0  0  0  0
   -3.0462   -3.3917    3.7917 C   0  0  0  0  0  0  0  0  0  0  0  0
   -2.0854   -3.7223    2.7055 C   0  0  0  0  0  0  0  0  0  0  0  0
   -5.8168   -4.0316   10.0557 C   0  0  0  0  0  0  0  0  0  0  0  0
   -6.5725   -4.0667   12.5241 C   0  0  0  0  0  0  0  0  0  0  0  0
   -5.3544   -4.9260   12.4289 C   0  0  0  0  0  0  0  0  0  0  0  0
   -0.7084   -4.2547   -1.6074 C   0  0  0  0  0  0  0  0  0  0  0  0
   -3.0865   -3.6617   -1.0932 C   0  0  0  0  0  0  0  0  0  0  0  0
   -0.5769   -2.8787   -2.3314 C   0  0  0  0  0  0  0  0  0  0  0  0
   -2.8549   -2.3032   -1.8238 C   0  0  0  0  0  0  0  0  0  0  0  0
   -1.0945   -1.6961   -0.3117 C   0  0  0  0  0  0  0  0  0  0  0  0
   -6.2939   -4.8228   11.2268 C   0  0  0  0  0  0  0  0  0  0  0  0
   -1.7484   -4.1109   -0.4819 C   0  0  0  0  0  0  0  0  0  0  0  0
   -1.2331   -3.0269    0.4908 C   0  0  2  0  0  0  0  0  0  0  0  0
   -6.2571   -4.5613    8.6873 C   0  0  0  0  0  0  0  0  0  0  0  0
   -1.4530   -1.8604   -1.7245 N   0  0  0  0  0  0  0  0  0  0  0  0
   -2.0943   -2.8414    1.6558 N   0  0  0  0  0  0  0  0  0  0  0  0
   -1.3322   -4.6926    2.7689 O   0  0  0  0  0  0  0  0  0  0  0  0
   -5.1364   -3.0248   10.1892 O   0  0  0  0  0  0  0  0  0  0  0  0
   -3.3252   -4.4096    4.6765 O   0  0  0  0  0  0  0  0  0  0  0  0
   -5.5966   -0.7990    5.9718 H   0  0  0  0  0  0  0  0  0  0  0  0
   -6.5878   -1.9876    7.9035 H   0  0  0  0  0  0  0  0  0  0  0  0
   -3.6413   -1.2881    3.6226 H   0  0  0  0  0  0  0  0  0  0  0  0
   -4.5020   -5.6251    6.8564 H   0  0  0  0  0  0  0  0  0  0  0  0
   -7.4126   -4.4119   13.1189 H   0  0  0  0  0  0  0  0  0  0  0  0
   -6.4308   -2.9918   12.4775 H   0  0  0  0  0  0  0  0  0  0  0  0
   -4.3970   -4.4275   12.3171 H   0  0  0  0  0  0  0  0  0  0  0  0
   -5.3381   -5.8754   12.9550 H   0  0  0  0  0  0  0  0  0  0  0  0
   -1.0277   -5.0370   -2.3045 H   0  0  0  0  0  0  0  0  0  0  0  0
    0.2527   -4.5740   -1.1890 H   0  0  0  0  0  0  0  0  0  0  0  0
   -3.8500   -3.5710   -0.3128 H   0  0  0  0  0  0  0  0  0  0  0  0
   -3.4445   -4.4269   -1.7902 H   0  0  0  0  0  0  0  0  0  0  0  0
    0.4513   -2.5053   -2.2875 H   0  0  0  0  0  0  0  0  0  0  0  0
   -0.8438   -2.9603   -3.3898 H   0  0  0  0  0  0  0  0  0  0  0  0
   -3.1074   -2.3768   -2.8863 H   0  0  0  0  0  0  0  0  0  0  0  0
   -3.4853   -1.5123   -1.4020 H   0  0  0  0  0  0  0  0  0  0  0  0
   -1.7410   -0.9200    0.1155 H   0  0  0  0  0  0  0  0  0  0  0  0
   -0.0691   -1.3186   -0.2558 H   0  0  0  0  0  0  0  0  0  0  0  0
   -6.9163   -5.6863   11.0102 H   0  0  0  0  0  0  0  0  0  0  0  0
   -1.8614   -5.0515    0.0619 H   0  0  0  0  0  0  0  0  0  0  0  0
   -0.2636   -3.3490    0.8785 H   0  0  0  0  0  0  0  0  0  0  0  0
   -7.3522   -4.4633    8.6595 H   0  0  0  0  0  0  0  0  0  0  0  0
   -6.0615   -5.6395    8.6662 H   0  0  0  0  0  0  0  0  0  0  0  0
   -2.8682   -2.1944    1.5809 H   0  0  0  0  0  0  0  0  0  0  0  0
  1  2  1  0  0  0  0
  1  5  2  0  0  0  0
  1 27  1  0  0  0  0
  2  6  2  0  0  0  0
  2 28  1  0  0  0  0
  3  5  1  0  0  0  0
  3  8  2  0  0  0  0
  3 29  1  0  0  0  0
  4  6  1  0  0  0  0
  4  7  2  0  0  0  0
  4 30  1  0  0  0  0
  5  7  1  0  0  0  0
  6 21  1  0  0  0  0
  7 26  1  0  0  0  0
  8  9  1  0  0  0  0
  8 26  1  0  0  0  0
  9 23  1  0  0  0  0
  9 24  2  0  0  0  0
 10 18  1  0  0  0  0
 10 21  1  0  0  0  0
 10 25  2  0  0  0  0
 11 12  1  0  0  0  0
 11 18  1  0  0  0  0
 11 31  1  0  0  0  0
 11 32  1  0  0  0  0
 12 18  1  0  0  0  0
 12 33  1  0  0  0  0
 12 34  1  0  0  0  0
 13 15  1  0  0  0  0
 13 19  1  0  0  0  0
 13 35  1  0  0  0  0
 13 36  1  0  0  0  0
 14 16  1  0  0  0  0
 14 19  1  0  0  0  0
 14 37  1  0  0  0  0
 14 38  1  0  0  0  0
 15 22  1  0  0  0  0
 15 39  1  0  0  0  0
 15 40  1  0  0  0  0
 16 22  1  0  0  0  0
 16 41  1  0  0  0  0
 16 42  1  0  0  0  0
 17 20  1  0  0  0  0
 17 22  1  0  0  0  0
 17 43  1  0  0  0  0
 17 44  1  0  0  0  0
 18 45  1  0  0  0  0
 19 20  1  0  0  0  0
 19 46  1  0  0  0  0
 20 23  1  0  0  0  0
 20 47  1  0  0  0  0
 21 48  1  0  0  0  0
 21 49  1  0  0  0  0
 23 50  1  0  0  0  0
M  END
$$$$
