
  -OEChem-05262117483D

 51 55  0     1  0  0  0  0  0999 V2000
    2.3731   -8.3984    2.6290 C   0  0  0  0  0  0  0  0  0  0  0  0
    1.3104   -9.2582    2.3763 C   0  0  0  0  0  0  0  0  0  0  0  0
    3.0186   -5.8537    2.4439 C   0  0  0  0  0  0  0  0  0  0  0  0
   -0.0914   -7.4532    1.5202 C   0  0  0  0  0  0  0  0  0  0  0  0
    2.2067   -7.0343    2.3286 C   0  0  0  0  0  0  0  0  0  0  0  0
    0.0850   -8.8078    1.8262 C   0  0  0  0  0  0  0  0  0  0  0  0
    0.9764   -6.6079    1.7847 C   0  0  0  0  0  0  0  0  0  0  0  0
    2.2566   -4.8173    1.9841 C   0  0  0  0  0  0  0  0  0  0  0  0
    2.5543   -3.3916    1.8672 C   0  0  0  0  0  0  0  0  0  0  0  0
   -2.3341   -9.4901    2.3525 C   0  0  0  0  0  0  0  0  0  0  0  0
   -4.7973  -10.2534    2.4497 C   0  0  0  0  0  0  0  0  0  0  0  0
   -4.1380  -10.7478    3.6925 C   0  0  0  0  0  0  0  0  0  0  0  0
    0.9592    0.8577   -0.0456 C   0  0  0  0  0  0  0  0  0  0  0  0
   -0.4143   -0.2891    1.7183 C   0  0  0  0  0  0  0  0  0  0  0  0
    1.7551    1.6468    1.0183 C   0  0  0  0  0  0  0  0  0  0  0  0
    0.2464    0.6633    2.7392 C   0  0  0  0  0  0  0  0  0  0  0  0
    2.4161   -0.4443    2.2073 C   0  0  0  0  0  0  0  0  0  0  0  0
   -3.3108  -10.6089    2.4097 C   0  0  0  0  0  0  0  0  0  0  0  0
    0.5466   -0.5059    0.5354 C   0  0  0  0  0  0  0  0  0  0  0  0
    1.8144   -1.2351    1.0151 C   0  0  2  0  0  0  0  0  0  0  0  0
   -1.0325   -9.7910    1.5939 C   0  0  0  0  0  0  0  0  0  0  0  0
    1.5109   -2.5984    1.4178 N   0  0  0  0  0  0  0  0  0  0  0  0
    1.6878    0.8861    2.3263 N   0  3  0  0  0  0  0  0  0  0  0  0
    3.6443   -2.8963    2.1711 O   0  0  0  0  0  0  0  0  0  0  0  0
   -2.5619   -8.3957    2.8508 O   0  0  0  0  0  0  0  0  0  0  0  0
    1.0004   -5.2463    1.5704 O   0  0  0  0  0  0  0  0  0  0  0  0
    3.3027   -8.7706    3.0493 H   0  0  0  0  0  0  0  0  0  0  0  0
    1.4192  -10.3143    2.6088 H   0  0  0  0  0  0  0  0  0  0  0  0
    4.0305   -5.7649    2.8165 H   0  0  0  0  0  0  0  0  0  0  0  0
   -1.0270   -7.0792    1.1203 H   0  0  0  0  0  0  0  0  0  0  0  0
   -5.4673  -10.9166    1.9120 H   0  0  0  0  0  0  0  0  0  0  0  0
   -5.0260   -9.1943    2.3909 H   0  0  0  0  0  0  0  0  0  0  0  0
   -3.9202  -10.0223    4.4694 H   0  0  0  0  0  0  0  0  0  0  0  0
   -4.3404  -11.7593    4.0295 H   0  0  0  0  0  0  0  0  0  0  0  0
    0.0687    1.4166   -0.3430 H   0  0  0  0  0  0  0  0  0  0  0  0
    1.5730    0.7249   -0.9394 H   0  0  0  0  0  0  0  0  0  0  0  0
   -0.6491   -1.2421    2.1957 H   0  0  0  0  0  0  0  0  0  0  0  0
   -1.3532    0.1434    1.3657 H   0  0  0  0  0  0  0  0  0  0  0  0
    2.8132    1.7438    0.7691 H   0  0  0  0  0  0  0  0  0  0  0  0
    1.3488    2.6429    1.2020 H   0  0  0  0  0  0  0  0  0  0  0  0
   -0.2263    1.6468    2.7727 H   0  0  0  0  0  0  0  0  0  0  0  0
    0.2659    0.2514    3.7493 H   0  0  0  0  0  0  0  0  0  0  0  0
    2.2757   -0.9690    3.1509 H   0  0  0  0  0  0  0  0  0  0  0  0
    3.4765   -0.2345    2.0768 H   0  0  0  0  0  0  0  0  0  0  0  0
   -3.0312  -11.5271    1.9022 H   0  0  0  0  0  0  0  0  0  0  0  0
    0.0550   -1.0967   -0.2421 H   0  0  0  0  0  0  0  0  0  0  0  0
    2.5528   -1.2410    0.2037 H   0  0  0  0  0  0  0  0  0  0  0  0
   -1.3098   -9.8220    0.5303 H   0  0  0  0  0  0  0  0  0  0  0  0
   -0.7107  -10.8070    1.8420 H   0  0  0  0  0  0  0  0  0  0  0  0
    0.7395   -3.0741    0.9606 H   0  0  0  0  0  0  0  0  0  0  0  0
    2.1533    1.4392    3.0505 H   0  0  0  0  0  0  0  0  0  0  0  0
  1  2  1  0  0  0  0
  1  5  2  0  0  0  0
  1 27  1  0  0  0  0
  2  6  2  0  0  0  0
  2 28  1  0  0  0  0
  3  5  1  0  0  0  0
  3  8  2  0  0  0  0
  3 29  1  0  0  0  0
  4  6  1  0  0  0  0
  4  7  2  0  0  0  0
  4 30  1  0  0  0  0
  5  7  1  0  0  0  0
  6 21  1  0  0  0  0
  7 26  1  0  0  0  0
  8  9  1  0  0  0  0
  8 26  1  0  0  0  0
  9 22  1  0  0  0  0
  9 24  2  0  0  0  0
 10 18  1  0  0  0  0
 10 21  1  0  0  0  0
 10 25  2  0  0  0  0
 11 12  1  0  0  0  0
 11 18  1  0  0  0  0
 11 31  1  0  0  0  0
 11 32  1  0  0  0  0
 12 18  1  0  0  0  0
 12 33  1  0  0  0  0
 12 34  1  0  0  0  0
 13 15  1  0  0  0  0
 13 19  1  0  0  0  0
 13 35  1  0  0  0  0
 13 36  1  0  0  0  0
 14 16  1  0  0  0  0
 14 19  1  0  0  0  0
 14 37  1  0  0  0  0
 14 38  1  0  0  0  0
 15 23  1  0  0  0  0
 15 39  1  0  0  0  0
 15 40  1  0  0  0  0
 16 23  1  0  0  0  0
 16 41  1  0  0  0  0
 16 42  1  0  0  0  0
 17 20  1  0  0  0  0
 17 23  1  0  0  0  0
 17 43  1  0  0  0  0
 17 44  1  0  0  0  0
 18 45  1  0  0  0  0
 19 20  1  0  0  0  0
 19 46  1  0  0  0  0
 20 22  1  0  0  0  0
 20 47  1  0  0  0  0
 21 48  1  0  0  0  0
 21 49  1  0  0  0  0
 22 50  1  0  0  0  0
 23 51  1  0  0  0  0
M  CHG  1  23   1
M  END
$$$$
