57
0 1 C27H25NO4
C                    -0.662917040265     1.189527175244     1.297646874309
C                    -0.725312298716     0.018793998517     0.502883014209
C                    -7.690596306107    -2.314041845053    -0.278657622872
C                    -1.597674593861     1.419880205842     2.298087951209
C                    -4.011843228427     1.106990394967     5.825145491563
C                    -4.272611147842     2.747054104860     4.079200946715
C                    -6.659612776931    -2.736547100838     0.573391331899
C                    -1.710946266998    -0.942758924693     0.697583222373
C                    -7.464097336635    -1.333483554073    -1.238519084046
C                    -4.262059576516     2.081607290605     6.783256476858
C                    -4.522089574186     3.739059303257     5.032323949957
C                    -5.150830910824    -1.182190905816    -0.518381275891
C                    -2.617823383693     0.469754425279     2.503185856550
C                    -4.020775152357     1.417027411499     4.449116862351
C                    -3.720818157338     0.400395104776     3.419464203277
C                    -5.389151027127    -2.174400292532     0.448748376061
C                    -2.653946956882    -0.714226570622     1.714881953709
C                    -4.518034886104     3.408470382680     6.396170649899
C                    -6.186647494841    -0.758792875159    -1.355998361603
C                    -4.379704317204    -0.799413983671     3.161447714310
C                    -5.580820325191    -1.371411986683     3.814041946557
C                    -4.948551752564     7.900042868055     8.374002955675
C                    -4.071123347642     6.925900369203     9.130282127956
C                    -5.259055826194     6.417819929892     8.346801140921
C                    -4.779076681184     0.833647055400    -2.452133659780
C                    -4.262321413400    -2.610054506605     1.366996621997
C                    -5.034446617335     5.655800497234     7.072235426053
N                    -3.713385614701    -1.489856769228     2.143198437826
O                    -5.888531666092    -2.548306670012     3.760213035251
O                    -6.368797730986    -0.505683303589     4.500803860104
O                    -6.051147029165     0.207240168151    -2.318739509906
O                    -4.743561847000     4.290966527245     7.410182772706
H                     0.129958884884     1.910703065041     1.119138282267
H                     0.018939527542    -0.136266232726    -0.273754039292
H                    -8.682587894066    -2.747532814440    -0.181654545267
H                    -1.550126259323     2.313800492619     2.914015319900
H                    -3.803763372461     0.088130289229     6.139911595491
H                    -4.287711642891     3.008715259531     3.024499271616
H                    -6.850951624995    -3.474723962135     1.345978491663
H                    -1.735927643592    -1.837065087492     0.082504939684
H                    -8.254443546004    -0.990851327489    -1.900099046961
H                    -4.257243005544     1.841060274889     7.842208005887
H                    -4.720255030521     4.751482836077     4.700142295936
H                    -4.163109079150    -0.742976085839    -0.593762770639
H                    -5.611893425790     8.546331334699     8.940457245309
H                    -4.545221280633     8.353750063214     7.472473338738
H                    -3.081978203899     6.716389702727     8.732783490519
H                    -4.132808143354     6.911349054264    10.214001748705
H                    -6.119713843295     6.087615869317     8.922812429190
H                    -4.890991946127     1.571011793723    -3.248305893275
H                    -4.003615840453     0.110257315699    -2.733738672713
H                    -4.481567935115     1.339403845828    -1.525196329337
H                    -4.609520830903    -3.373836845514     2.058347851363
H                    -3.432900478332    -3.027646939375     0.791699495416
H                    -4.192126971881     6.085238688868     6.512741817028
H                    -5.927103329477     5.690831335358     6.433336268267
H                    -5.995339280847     0.396094211704     4.475733952162
