
  -OEChem-05262117483D

 51 55  0     1  0  0  0  0  0999 V2000
    3.5802   -8.9970    2.6256 C   0  0  0  0  0  0  0  0  0  0  0  0
    2.4761   -9.8419    2.6599 C   0  0  0  0  0  0  0  0  0  0  0  0
    4.2020   -6.4775    2.1827 C   0  0  0  0  0  0  0  0  0  0  0  0
    0.9423   -8.0422    2.0589 C   0  0  0  0  0  0  0  0  0  0  0  0
    3.3689   -7.6436    2.3072 C   0  0  0  0  0  0  0  0  0  0  0  0
    1.1646   -9.3869    2.3799 C   0  0  0  0  0  0  0  0  0  0  0  0
    2.0533   -7.2120    2.0369 C   0  0  0  0  0  0  0  0  0  0  0  0
    3.3708   -5.4445    1.8589 C   0  0  0  0  0  0  0  0  0  0  0  0
    3.6493   -4.0241    1.6396 C   0  0  0  0  0  0  0  0  0  0  0  0
   -1.1027   -9.9821    3.4360 C   0  0  0  0  0  0  0  0  0  0  0  0
   -3.5189  -10.6558    4.0419 C   0  0  0  0  0  0  0  0  0  0  0  0
   -2.6431  -11.1305    5.1515 C   0  0  0  0  0  0  0  0  0  0  0  0
    3.6732    0.1660    0.1123 C   0  0  0  0  0  0  0  0  0  0  0  0
    2.3443   -1.5256   -1.1928 C   0  0  0  0  0  0  0  0  0  0  0  0
    2.4015    0.9322    0.5379 C   0  0  0  0  0  0  0  0  0  0  0  0
    1.1372   -0.5854   -0.9874 C   0  0  0  0  0  0  0  0  0  0  0  0
    1.3157   -1.1235    1.4386 C   0  0  0  0  0  0  0  0  0  0  0  0
   -2.0790  -11.0641    3.7285 C   0  0  0  0  0  0  0  0  0  0  0  0
    3.3354   -1.3263   -0.0373 C   0  0  0  0  0  0  0  0  0  0  0  0
    2.6914   -1.8099    1.2830 C   0  0  2  0  0  0  0  0  0  0  0  0
    0.0107  -10.3535    2.4458 C   0  0  0  0  0  0  0  0  0  0  0  0
    2.5379   -3.2499    1.3410 N   0  0  0  0  0  0  0  0  0  0  0  0
    1.2132   -0.0093    0.4184 N   0  3  0  0  0  0  0  0  0  0  0  0
    4.7768   -3.5332    1.7034 O   0  0  0  0  0  0  0  0  0  0  0  0
   -1.1965   -8.8655    3.9284 O   0  0  0  0  0  0  0  0  0  0  0  0
    2.0466   -5.8606    1.7606 O   0  0  0  0  0  0  0  0  0  0  0  0
    4.5756   -9.3729    2.8429 H   0  0  0  0  0  0  0  0  0  0  0  0
    2.6209  -10.8892    2.9115 H   0  0  0  0  0  0  0  0  0  0  0  0
    5.2722   -6.3954    2.3188 H   0  0  0  0  0  0  0  0  0  0  0  0
   -0.0546   -7.6635    1.8641 H   0  0  0  0  0  0  0  0  0  0  0  0
   -4.2994  -11.3129    3.6717 H   0  0  0  0  0  0  0  0  0  0  0  0
   -3.7254   -9.5919    3.9866 H   0  0  0  0  0  0  0  0  0  0  0  0
   -2.2579  -10.3871    5.8417 H   0  0  0  0  0  0  0  0  0  0  0  0
   -2.8039  -12.1222    5.5618 H   0  0  0  0  0  0  0  0  0  0  0  0
    4.0545    0.5608   -0.8325 H   0  0  0  0  0  0  0  0  0  0  0  0
    4.4546    0.3056    0.8626 H   0  0  0  0  0  0  0  0  0  0  0  0
    2.0185   -2.5677   -1.2225 H   0  0  0  0  0  0  0  0  0  0  0  0
    2.8199   -1.3051   -2.1509 H   0  0  0  0  0  0  0  0  0  0  0  0
    2.4301    1.2630    1.5779 H   0  0  0  0  0  0  0  0  0  0  0  0
    2.1857    1.7948   -0.0947 H   0  0  0  0  0  0  0  0  0  0  0  0
    1.1381    0.2680   -1.6680 H   0  0  0  0  0  0  0  0  0  0  0  0
    0.1750   -1.0942   -1.0711 H   0  0  0  0  0  0  0  0  0  0  0  0
    0.4829   -1.8015    1.2377 H   0  0  0  0  0  0  0  0  0  0  0  0
    1.1739   -0.6809    2.4259 H   0  0  0  0  0  0  0  0  0  0  0  0
   -1.9298  -12.0081    3.2130 H   0  0  0  0  0  0  0  0  0  0  0  0
    4.2451   -1.9028   -0.2028 H   0  0  0  0  0  0  0  0  0  0  0  0
    3.3509   -1.5029    2.1016 H   0  0  0  0  0  0  0  0  0  0  0  0
   -0.4807  -10.4412    1.4657 H   0  0  0  0  0  0  0  0  0  0  0  0
    0.3648  -11.3612    2.6845 H   0  0  0  0  0  0  0  0  0  0  0  0
    1.6273   -3.6806    1.4490 H   0  0  0  0  0  0  0  0  0  0  0  0
    0.3576    0.5211    0.6019 H   0  0  0  0  0  0  0  0  0  0  0  0
  1  2  1  0  0  0  0
  1  5  2  0  0  0  0
  1 27  1  0  0  0  0
  2  6  2  0  0  0  0
  2 28  1  0  0  0  0
  3  5  1  0  0  0  0
  3  8  2  0  0  0  0
  3 29  1  0  0  0  0
  4  6  1  0  0  0  0
  4  7  2  0  0  0  0
  4 30  1  0  0  0  0
  5  7  1  0  0  0  0
  6 21  1  0  0  0  0
  7 26  1  0  0  0  0
  8  9  1  0  0  0  0
  8 26  1  0  0  0  0
  9 22  1  0  0  0  0
  9 24  2  0  0  0  0
 10 18  1  0  0  0  0
 10 21  1  0  0  0  0
 10 25  2  0  0  0  0
 11 12  1  0  0  0  0
 11 18  1  0  0  0  0
 11 31  1  0  0  0  0
 11 32  1  0  0  0  0
 12 18  1  0  0  0  0
 12 33  1  0  0  0  0
 12 34  1  0  0  0  0
 13 15  1  0  0  0  0
 13 19  1  0  0  0  0
 13 35  1  0  0  0  0
 13 36  1  0  0  0  0
 14 16  1  0  0  0  0
 14 19  1  0  0  0  0
 14 37  1  0  0  0  0
 14 38  1  0  0  0  0
 15 23  1  0  0  0  0
 15 39  1  0  0  0  0
 15 40  1  0  0  0  0
 16 23  1  0  0  0  0
 16 41  1  0  0  0  0
 16 42  1  0  0  0  0
 17 20  1  0  0  0  0
 17 23  1  0  0  0  0
 17 43  1  0  0  0  0
 17 44  1  0  0  0  0
 18 45  1  0  0  0  0
 19 20  1  0  0  0  0
 19 46  1  0  0  0  0
 20 22  1  0  0  0  0
 20 47  1  0  0  0  0
 21 48  1  0  0  0  0
 21 49  1  0  0  0  0
 22 50  1  0  0  0  0
 23 51  1  0  0  0  0
M  CHG  1  23   1
M  END
$$$$
