
  -OEChem-05262117483D

 45 47  0     1  0  0  0  0  0999 V2000
    1.3477    4.5789    1.8108 C   0  0  0  0  0  0  0  0  0  0  0  0
    3.2076    3.1426    2.4004 C   0  0  0  0  0  0  0  0  0  0  0  0
    1.5500    5.3146    2.9835 C   0  0  0  0  0  0  0  0  0  0  0  0
    3.4185    3.8761    3.5674 C   0  0  0  0  0  0  0  0  0  0  0  0
   -0.6841    0.5308   -3.6460 C   0  0  0  0  0  0  0  0  0  0  0  0
   -1.9252    1.7988   -2.5165 C   0  0  0  0  0  0  0  0  0  0  0  0
    2.1644    3.4771    1.5253 C   0  0  0  0  0  0  0  0  0  0  0  0
    2.5737    4.9464    3.8461 C   0  0  0  0  0  0  0  0  0  0  0  0
   -0.7381    2.3118    2.5176 C   0  0  0  0  0  0  0  0  0  0  0  0
    1.1621    0.5698    2.7447 C   0  0  0  0  0  0  0  0  0  0  0  0
   -0.1301   -0.1738    2.6645 C   0  0  0  0  0  0  0  0  0  0  0  0
    0.0251    1.1693    1.9300 C   0  0  0  0  0  0  0  0  0  0  0  0
   -0.6067    3.6880    5.8798 C   0  0  0  0  0  0  0  0  0  0  0  0
   -1.2705    0.9409   -0.2122 C   0  0  0  0  0  0  0  0  0  0  0  0
   -1.2224    3.5368    4.5018 C   0  0  0  0  0  0  0  0  0  0  0  0
    0.7700    2.4397   -0.1668 C   0  0  0  0  0  0  0  0  0  0  0  0
    0.1387    1.1429    0.3967 C   0  0  1  0  0  0  0  0  0  0  0  0
   -1.5919    1.5376   -3.7762 N   0  0  0  0  0  0  0  0  0  0  0  0
   -0.4455    0.1565   -2.3913 N   0  0  0  0  0  0  0  0  0  0  0  0
   -1.2574    0.9841   -1.6703 N   0  0  0  0  0  0  0  0  0  0  0  0
   -1.4826    3.0525    1.8856 O   0  0  0  0  0  0  0  0  0  0  0  0
    0.9631    0.0260    0.0734 O   0  0  0  0  0  0  0  0  0  0  0  0
    2.0565    2.7045    0.3925 O   0  0  0  0  0  0  0  0  0  0  0  0
   -0.5373    2.4399    3.8425 O   0  0  0  0  0  0  0  0  0  0  0  0
    2.7540    5.6508    4.9993 F   0  0  0  0  0  0  0  0  0  0  0  0
    0.5453    4.8700    1.1438 H   0  0  0  0  0  0  0  0  0  0  0  0
    3.8363    2.2924    2.1556 H   0  0  0  0  0  0  0  0  0  0  0  0
    0.9229    6.1682    3.2225 H   0  0  0  0  0  0  0  0  0  0  0  0
    4.2156    3.6203    4.2588 H   0  0  0  0  0  0  0  0  0  0  0  0
   -0.1877    0.0592   -4.4841 H   0  0  0  0  0  0  0  0  0  0  0  0
   -2.6297    2.5478   -2.1780 H   0  0  0  0  0  0  0  0  0  0  0  0
    1.4134    1.0796    3.6656 H   0  0  0  0  0  0  0  0  0  0  0  0
    1.9892    0.1907    2.1583 H   0  0  0  0  0  0  0  0  0  0  0  0
   -0.1667   -1.0517    2.0292 H   0  0  0  0  0  0  0  0  0  0  0  0
   -0.7818   -0.1792    3.5317 H   0  0  0  0  0  0  0  0  0  0  0  0
   -0.7160    2.7691    6.4634 H   0  0  0  0  0  0  0  0  0  0  0  0
    0.4566    3.9303    5.8027 H   0  0  0  0  0  0  0  0  0  0  0  0
   -1.1070    4.4996    6.4182 H   0  0  0  0  0  0  0  0  0  0  0  0
   -1.6450   -0.0343    0.1092 H   0  0  0  0  0  0  0  0  0  0  0  0
   -1.9481    1.7199    0.1326 H   0  0  0  0  0  0  0  0  0  0  0  0
   -1.0982    4.4366    3.8969 H   0  0  0  0  0  0  0  0  0  0  0  0
   -2.2900    3.2994    4.5463 H   0  0  0  0  0  0  0  0  0  0  0  0
    0.9464    2.3039   -1.2360 H   0  0  0  0  0  0  0  0  0  0  0  0
    0.0860    3.2796   -0.0359 H   0  0  0  0  0  0  0  0  0  0  0  0
    0.8210   -0.1813   -0.8731 H   0  0  0  0  0  0  0  0  0  0  0  0
  1  3  1  0  0  0  0
  1  7  2  0  0  0  0
  1 26  1  0  0  0  0
  2  4  2  0  0  0  0
  2  7  1  0  0  0  0
  2 27  1  0  0  0  0
  3  8  2  0  0  0  0
  3 28  1  0  0  0  0
  4  8  1  0  0  0  0
  4 29  1  0  0  0  0
  5 18  1  0  0  0  0
  5 19  2  0  0  0  0
  5 30  1  0  0  0  0
  6 18  2  0  0  0  0
  6 20  1  0  0  0  0
  6 31  1  0  0  0  0
  7 23  1  0  0  0  0
  8 25  1  0  0  0  0
  9 12  1  0  0  0  0
  9 21  2  0  0  0  0
  9 24  1  0  0  0  0
 10 11  1  0  0  0  0
 10 12  1  0  0  0  0
 10 32  1  0  0  0  0
 10 33  1  0  0  0  0
 11 12  1  0  0  0  0
 11 34  1  0  0  0  0
 11 35  1  0  0  0  0
 12 17  1  0  0  0  0
 13 15  1  0  0  0  0
 13 36  1  0  0  0  0
 13 37  1  0  0  0  0
 13 38  1  0  0  0  0
 14 17  1  0  0  0  0
 14 20  1  0  0  0  0
 14 39  1  0  0  0  0
 14 40  1  0  0  0  0
 15 24  1  0  0  0  0
 15 41  1  0  0  0  0
 15 42  1  0  0  0  0
 16 17  1  0  0  0  0
 16 23  1  0  0  0  0
 16 43  1  0  0  0  0
 16 44  1  0  0  0  0
 17 22  1  0  0  0  0
 19 20  1  0  0  0  0
 22 45  1  0  0  0  0
M  END
$$$$
