
  -OEChem-05262117483D

 57 61  0     0  0  0  0  0  0999 V2000
   -1.5758    1.7325    1.7440 C   0  0  0  0  0  0  0  0  0  0  0  0
   -1.4586    0.6148    0.8820 C   0  0  0  0  0  0  0  0  0  0  0  0
   -1.1897   -4.4855    3.7435 C   0  0  0  0  0  0  0  0  0  0  0  0
   -2.5049    1.7395    2.7751 C   0  0  0  0  0  0  0  0  0  0  0  0
   -6.1564    1.6615    5.0218 C   0  0  0  0  0  0  0  0  0  0  0  0
   -3.9299    1.6549    5.9440 C   0  0  0  0  0  0  0  0  0  0  0  0
   -1.9162   -3.6778    2.8605 C   0  0  0  0  0  0  0  0  0  0  0  0
   -2.2669   -0.5068    1.0278 C   0  0  0  0  0  0  0  0  0  0  0  0
   -1.8428   -5.3408    4.6280 C   0  0  0  0  0  0  0  0  0  0  0  0
   -6.5717    2.5342    6.0198 C   0  0  0  0  0  0  0  0  0  0  0  0
   -4.3329    2.5359    6.9520 C   0  0  0  0  0  0  0  0  0  0  0  0
   -3.9795   -4.5959    3.7464 C   0  0  0  0  0  0  0  0  0  0  0  0
   -3.3246    0.6074    2.9545 C   0  0  0  0  0  0  0  0  0  0  0  0
   -4.8266    1.1942    4.9676 C   0  0  0  0  0  0  0  0  0  0  0  0
   -4.3613    0.2913    3.8947 C   0  0  0  0  0  0  0  0  0  0  0  0
   -3.3144   -3.7328    2.8632 C   0  0  0  0  0  0  0  0  0  0  0  0
   -3.2131   -0.4993    2.0673 C   0  0  0  0  0  0  0  0  0  0  0  0
   -5.6632    2.9807    6.9951 C   0  0  0  0  0  0  0  0  0  0  0  0
   -3.2455   -5.3945    4.6331 C   0  0  0  0  0  0  0  0  0  0  0  0
   -4.8391   -0.9726    3.5535 C   0  0  0  0  0  0  0  0  0  0  0  0
   -5.9118   -1.7659    4.1924 C   0  0  0  0  0  0  0  0  0  0  0  0
   -5.6233    5.4316   11.2694 C   0  0  0  0  0  0  0  0  0  0  0  0
   -6.9034    4.6934   10.9424 C   0  0  0  0  0  0  0  0  0  0  0  0
   -6.0590    5.2667    9.8282 C   0  0  0  0  0  0  0  0  0  0  0  0
   -5.2359   -6.2869    5.6148 C   0  0  0  0  0  0  0  0  0  0  0  0
   -4.1270   -2.8341    1.9490 C   0  0  0  0  0  0  0  0  0  0  0  0
   -5.2795    4.3412    8.9386 C   0  0  0  0  0  0  0  0  0  0  0  0
   -4.1579   -1.4413    2.4243 N   0  0  0  0  0  0  0  0  0  0  0  0
   -6.5052   -2.6808    3.6466 O   0  0  0  0  0  0  0  0  0  0  0  0
   -6.2270   -1.4435    5.4726 O   0  0  0  0  0  0  0  0  0  0  0  0
   -3.8110   -6.2504    5.5385 O   0  0  0  0  0  0  0  0  0  0  0  0
   -6.1679    3.8324    7.9319 O   0  0  0  0  0  0  0  0  0  0  0  0
   -0.9300    2.5925    1.5892 H   0  0  0  0  0  0  0  0  0  0  0  0
   -0.7224    0.6359    0.0828 H   0  0  0  0  0  0  0  0  0  0  0  0
   -0.1033   -4.4473    3.7427 H   0  0  0  0  0  0  0  0  0  0  0  0
   -2.6038    2.5975    3.4344 H   0  0  0  0  0  0  0  0  0  0  0  0
   -6.8668    1.3340    4.2677 H   0  0  0  0  0  0  0  0  0  0  0  0
   -2.9008    1.3062    5.9234 H   0  0  0  0  0  0  0  0  0  0  0  0
   -1.3953   -3.0052    2.1853 H   0  0  0  0  0  0  0  0  0  0  0  0
   -2.1668   -1.3474    0.3484 H   0  0  0  0  0  0  0  0  0  0  0  0
   -1.2920   -5.9705    5.3208 H   0  0  0  0  0  0  0  0  0  0  0  0
   -7.5964    2.8910    6.0621 H   0  0  0  0  0  0  0  0  0  0  0  0
   -3.6085    2.8581    7.6910 H   0  0  0  0  0  0  0  0  0  0  0  0
   -5.0620   -4.6136    3.7409 H   0  0  0  0  0  0  0  0  0  0  0  0
   -5.6947    6.4211   11.7102 H   0  0  0  0  0  0  0  0  0  0  0  0
   -4.7742    4.8484   11.6159 H   0  0  0  0  0  0  0  0  0  0  0  0
   -6.9130    3.6134   11.0590 H   0  0  0  0  0  0  0  0  0  0  0  0
   -7.8489    5.1783   11.1649 H   0  0  0  0  0  0  0  0  0  0  0  0
   -6.4440    6.1523    9.3291 H   0  0  0  0  0  0  0  0  0  0  0  0
   -5.4719   -6.9912    6.4137 H   0  0  0  0  0  0  0  0  0  0  0  0
   -5.6765   -6.6419    4.6753 H   0  0  0  0  0  0  0  0  0  0  0  0
   -5.6490   -5.3014    5.8593 H   0  0  0  0  0  0  0  0  0  0  0  0
   -3.6971   -2.8122    0.9461 H   0  0  0  0  0  0  0  0  0  0  0  0
   -5.1524   -3.1873    1.8684 H   0  0  0  0  0  0  0  0  0  0  0  0
   -4.8660    3.5071    9.5219 H   0  0  0  0  0  0  0  0  0  0  0  0
   -4.4471    4.8712    8.4563 H   0  0  0  0  0  0  0  0  0  0  0  0
   -5.6953   -0.6833    5.7779 H   0  0  0  0  0  0  0  0  0  0  0  0
  1  2  1  0  0  0  0
  1  4  2  0  0  0  0
  1 33  1  0  0  0  0
  2  8  2  0  0  0  0
  2 34  1  0  0  0  0
  3  7  2  0  0  0  0
  3  9  1  0  0  0  0
  3 35  1  0  0  0  0
  4 13  1  0  0  0  0
  4 36  1  0  0  0  0
  5 10  2  0  0  0  0
  5 14  1  0  0  0  0
  5 37  1  0  0  0  0
  6 11  1  0  0  0  0
  6 14  2  0  0  0  0
  6 38  1  0  0  0  0
  7 16  1  0  0  0  0
  7 39  1  0  0  0  0
  8 17  1  0  0  0  0
  8 40  1  0  0  0  0
  9 19  2  0  0  0  0
  9 41  1  0  0  0  0
 10 18  1  0  0  0  0
 10 42  1  0  0  0  0
 11 18  2  0  0  0  0
 11 43  1  0  0  0  0
 12 16  2  0  0  0  0
 12 19  1  0  0  0  0
 12 44  1  0  0  0  0
 13 15  1  0  0  0  0
 13 17  2  0  0  0  0
 14 15  1  0  0  0  0
 15 20  2  0  0  0  0
 16 26  1  0  0  0  0
 17 28  1  0  0  0  0
 18 32  1  0  0  0  0
 19 31  1  0  0  0  0
 20 21  1  0  0  0  0
 20 28  1  0  0  0  0
 21 29  2  0  0  0  0
 21 30  1  0  0  0  0
 22 23  1  0  0  0  0
 22 24  1  0  0  0  0
 22 45  1  0  0  0  0
 22 46  1  0  0  0  0
 23 24  1  0  0  0  0
 23 47  1  0  0  0  0
 23 48  1  0  0  0  0
 24 27  1  0  0  0  0
 24 49  1  0  0  0  0
 25 31  1  0  0  0  0
 25 50  1  0  0  0  0
 25 51  1  0  0  0  0
 25 52  1  0  0  0  0
 26 28  1  0  0  0  0
 26 53  1  0  0  0  0
 26 54  1  0  0  0  0
 27 32  1  0  0  0  0
 27 55  1  0  0  0  0
 27 56  1  0  0  0  0
 30 57  1  0  0  0  0
M  END
$$$$
