
  -OEChem-05262117483D

 45 47  0     1  0  0  0  0  0999 V2000
    1.2183    4.2554    0.1934 C   0  0  0  0  0  0  0  0  0  0  0  0
   -1.0658    4.5118    0.9720 C   0  0  0  0  0  0  0  0  0  0  0  0
    1.4079    5.6380    0.3163 C   0  0  0  0  0  0  0  0  0  0  0  0
   -0.8805    5.8869    1.0951 C   0  0  0  0  0  0  0  0  0  0  0  0
   -0.2533    0.7273   -4.0660 C   0  0  0  0  0  0  0  0  0  0  0  0
   -1.5972    1.5629   -2.6792 C   0  0  0  0  0  0  0  0  0  0  0  0
   -0.0198    3.6919    0.5230 C   0  0  0  0  0  0  0  0  0  0  0  0
    0.3597    6.4293    0.7639 C   0  0  0  0  0  0  0  0  0  0  0  0
   -0.8533    0.3555    2.3998 C   0  0  0  0  0  0  0  0  0  0  0  0
    1.1730   -1.1440    2.1062 C   0  0  0  0  0  0  0  0  0  0  0  0
   -0.0336   -1.9606    1.7228 C   0  0  0  0  0  0  0  0  0  0  0  0
   -0.0063   -0.4603    1.4542 C   0  0  0  0  0  0  0  0  0  0  0  0
   -4.1856    1.7442    1.9168 C   0  0  0  0  0  0  0  0  0  0  0  0
   -1.1654   -0.0709   -0.7786 C   0  0  0  0  0  0  0  0  0  0  0  0
   -2.9496    1.4223    2.7368 C   0  0  0  0  0  0  0  0  0  0  0  0
    0.7133    1.4663   -0.0200 C   0  0  0  0  0  0  0  0  0  0  0  0
    0.1614    0.0301    0.0047 C   0  0  1  0  0  0  0  0  0  0  0  0
   -1.1358    1.7528   -3.9110 N   0  0  0  0  0  0  0  0  0  0  0  0
   -0.1501   -0.0803   -3.0128 N   0  0  0  0  0  0  0  0  0  0  0  0
   -1.0325    0.4677   -2.1257 N   0  0  0  0  0  0  0  0  0  0  0  0
   -0.4923    0.7373    3.4968 O   0  0  0  0  0  0  0  0  0  0  0  0
    1.1502   -0.8011   -0.6007 O   0  0  0  0  0  0  0  0  0  0  0  0
   -0.3092    2.3529    0.4337 O   0  0  0  0  0  0  0  0  0  0  0  0
   -2.1053    0.5666    1.9264 O   0  0  0  0  0  0  0  0  0  0  0  0
    0.5443    7.7719    0.8827 F   0  0  0  0  0  0  0  0  0  0  0  0
    2.0388    3.6408   -0.1574 H   0  0  0  0  0  0  0  0  0  0  0  0
   -2.0194    4.0563    1.2208 H   0  0  0  0  0  0  0  0  0  0  0  0
    2.3601    6.0955    0.0664 H   0  0  0  0  0  0  0  0  0  0  0  0
   -1.6787    6.5358    1.4420 H   0  0  0  0  0  0  0  0  0  0  0  0
    0.3240    0.5639   -4.9668 H   0  0  0  0  0  0  0  0  0  0  0  0
   -2.3180    2.1790   -2.1578 H   0  0  0  0  0  0  0  0  0  0  0  0
    1.3308   -0.9196    3.1549 H   0  0  0  0  0  0  0  0  0  0  0  0
    2.0618   -1.2661    1.4998 H   0  0  0  0  0  0  0  0  0  0  0  0
    0.0545   -2.6072    0.8560 H   0  0  0  0  0  0  0  0  0  0  0  0
   -0.6937   -2.3158    2.5087 H   0  0  0  0  0  0  0  0  0  0  0  0
   -3.9168    2.2746    0.9975 H   0  0  0  0  0  0  0  0  0  0  0  0
   -4.7265    0.8329    1.6446 H   0  0  0  0  0  0  0  0  0  0  0  0
   -4.8595    2.3830    2.4964 H   0  0  0  0  0  0  0  0  0  0  0  0
   -1.4567   -1.1218   -0.8425 H   0  0  0  0  0  0  0  0  0  0  0  0
   -1.9498    0.4865   -0.2760 H   0  0  0  0  0  0  0  0  0  0  0  0
   -3.1963    0.8947    3.6628 H   0  0  0  0  0  0  0  0  0  0  0  0
   -2.3839    2.3187    3.0023 H   0  0  0  0  0  0  0  0  0  0  0  0
    1.5916    1.5143    0.6330 H   0  0  0  0  0  0  0  0  0  0  0  0
    1.0145    1.7267   -1.0417 H   0  0  0  0  0  0  0  0  0  0  0  0
    1.0216   -0.7633   -1.5724 H   0  0  0  0  0  0  0  0  0  0  0  0
  1  3  1  0  0  0  0
  1  7  2  0  0  0  0
  1 26  1  0  0  0  0
  2  4  2  0  0  0  0
  2  7  1  0  0  0  0
  2 27  1  0  0  0  0
  3  8  2  0  0  0  0
  3 28  1  0  0  0  0
  4  8  1  0  0  0  0
  4 29  1  0  0  0  0
  5 18  1  0  0  0  0
  5 19  2  0  0  0  0
  5 30  1  0  0  0  0
  6 18  2  0  0  0  0
  6 20  1  0  0  0  0
  6 31  1  0  0  0  0
  7 23  1  0  0  0  0
  8 25  1  0  0  0  0
  9 12  1  0  0  0  0
  9 21  2  0  0  0  0
  9 24  1  0  0  0  0
 10 11  1  0  0  0  0
 10 12  1  0  0  0  0
 10 32  1  0  0  0  0
 10 33  1  0  0  0  0
 11 12  1  0  0  0  0
 11 34  1  0  0  0  0
 11 35  1  0  0  0  0
 12 17  1  0  0  0  0
 13 15  1  0  0  0  0
 13 36  1  0  0  0  0
 13 37  1  0  0  0  0
 13 38  1  0  0  0  0
 14 17  1  0  0  0  0
 14 20  1  0  0  0  0
 14 39  1  0  0  0  0
 14 40  1  0  0  0  0
 15 24  1  0  0  0  0
 15 41  1  0  0  0  0
 15 42  1  0  0  0  0
 16 17  1  0  0  0  0
 16 23  1  0  0  0  0
 16 43  1  0  0  0  0
 16 44  1  0  0  0  0
 17 22  1  0  0  0  0
 19 20  1  0  0  0  0
 22 45  1  0  0  0  0
M  END
$$$$
