
  -OEChem-05262117483D

 25 26  0     0  0  0  0  0  0999 V2000
    2.8910   -0.2499    0.8551 C   0  0  0  0  0  0  0  0  0  0  0  0
    1.9749    0.3502    1.7115 C   0  0  0  0  0  0  0  0  0  0  0  0
    0.8000   -1.7674    1.8627 C   0  0  0  0  0  0  0  0  0  0  0  0
    6.0686   -6.3857   -3.4446 C   0  0  0  0  0  0  0  0  0  0  0  0
    2.8077   -1.6057    0.4703 C   0  0  0  0  0  0  0  0  0  0  0  0
    0.9269   -0.4239    2.2121 C   0  0  0  0  0  0  0  0  0  0  0  0
    1.7300   -2.3546    1.0006 C   0  0  0  0  0  0  0  0  0  0  0  0
    5.1336   -4.8095   -2.2551 C   0  0  0  0  0  0  0  0  0  0  0  0
    3.8504   -2.0842   -0.4373 C   0  0  0  0  0  0  0  0  0  0  0  0
    5.0213   -6.8963   -2.8583 N   0  0  0  0  0  0  0  0  0  0  0  0
    4.4127   -5.8967   -2.0929 N   0  0  0  0  0  0  0  0  0  0  0  0
    3.9342   -3.2860   -0.8928 N   0  0  0  0  0  0  0  0  0  0  0  0
    6.1972   -5.0486   -3.0986 N   0  0  0  0  0  0  0  0  0  0  0  0
    7.1414   -4.0767   -3.4628 N   0  0  0  0  0  0  0  0  0  0  0  0
    4.9642   -3.5540   -1.7220 N   0  0  0  0  0  0  0  0  0  0  0  0
   -0.2482    0.2964    3.2944 Cl  0  0  0  0  0  0  0  0  0  0  0  0
    1.4870   -4.0388    0.6232 Cl  0  0  0  0  0  0  0  0  0  0  0  0
    3.7091    0.3495    0.4627 H   0  0  0  0  0  0  0  0  0  0  0  0
    2.0692    1.3954    1.9865 H   0  0  0  0  0  0  0  0  0  0  0  0
   -0.0171   -2.3621    2.2560 H   0  0  0  0  0  0  0  0  0  0  0  0
    6.7556   -6.8973   -4.1063 H   0  0  0  0  0  0  0  0  0  0  0  0
    4.5931   -1.3246   -0.7220 H   0  0  0  0  0  0  0  0  0  0  0  0
    7.1312   -3.9557   -4.4748 H   0  0  0  0  0  0  0  0  0  0  0  0
    8.0704   -4.3807   -3.1736 H   0  0  0  0  0  0  0  0  0  0  0  0
    5.6512   -2.8446   -1.9823 H   0  0  0  0  0  0  0  0  0  0  0  0
  1  2  1  0  0  0  0
  1  5  2  0  0  0  0
  1 18  1  0  0  0  0
  2  6  2  0  0  0  0
  2 19  1  0  0  0  0
  3  6  1  0  0  0  0
  3  7  2  0  0  0  0
  3 20  1  0  0  0  0
  4 10  2  0  0  0  0
  4 13  1  0  0  0  0
  4 21  1  0  0  0  0
  5  7  1  0  0  0  0
  5  9  1  0  0  0  0
  6 16  1  0  0  0  0
  7 17  1  0  0  0  0
  8 11  2  0  0  0  0
  8 13  1  0  0  0  0
  8 15  1  0  0  0  0
  9 12  2  0  0  0  0
  9 22  1  0  0  0  0
 10 11  1  0  0  0  0
 12 15  1  0  0  0  0
 13 14  1  0  0  0  0
 14 23  1  0  0  0  0
 14 24  1  0  0  0  0
 15 25  1  0  0  0  0
M  END
$$$$
