50
0 1 C19H27N3O
C                     1.777970688311    -4.468116218669     1.722764191140
C                     1.185636913104    -5.688911242308     1.377384174847
C                     1.845062717305    -3.432482640006     0.789683504872
C                     0.666756115093    -5.860702696967     0.093861823473
C                    -1.211928611849    -5.077837635163    -3.839761689405
C                     1.321594217466    -3.586512616138    -0.502038542633
C                     0.733948947054    -4.815493953017    -0.832619308588
C                     0.137129304881    -5.231034987996    -4.261299699209
C                    -1.159285549629    -4.929344112096    -2.462530272143
C                     1.132398457730     1.288046165637    -1.070583611427
C                     1.425523288115    -0.045393974738    -1.758737790215
C                    -0.355540874918    -1.102049292722    -0.522108323904
C                    -0.720354527390     0.198125519331     0.202518404569
C                    -0.338468152281     1.432778291798    -0.640971839084
C                     0.663422663798    -5.433077376497    -5.651098905887
C                    -2.236895539017    -4.695403191217    -1.450921386471
C                    -2.187417136437     0.181468227263     0.645230196891
C                    -1.258850400570     1.651891540232    -1.849927173523
C                     1.401124900762    -2.445745099111    -1.495957060611
N                     0.972012079028    -5.177887445266    -3.220754186549
N                     0.166030175364    -5.005819024547    -2.128831477644
N                     1.062389138275    -1.159729873274    -0.883768302455
O                    -0.464587861793     2.559427022171     0.254124332373
H                     2.186081165068    -4.325028399562     2.720125774180
H                     1.134191865756    -6.500030842842     2.098659920384
H                     2.281536404623    -2.474132191440     1.056063851325
H                     0.213506462426    -6.801289359793    -0.206334777695
H                    -2.103000046653    -5.074899383992    -4.454474220681
H                     1.752045656456     1.367097329712    -0.171322159142
H                     1.408634846150     2.113905769828    -1.739623909366
H                     0.895636175634    -0.102169048413    -2.729488945786
H                     2.496144942092    -0.115088518421    -1.980459427206
H                    -0.573674817422    -1.943076385797     0.143093571263
H                    -0.998391430686    -1.232541937491    -1.416041665483
H                    -0.092480686828     0.255582337299     1.099607129312
H                     0.356829495510    -4.616499953339    -6.314157908522
H                     1.755006455868    -5.474494113529    -5.633294743925
H                     0.289478418396    -6.366691954944    -6.085997592489
H                    -2.298203766934    -5.511438064855    -0.723469746003
H                    -2.062879105857    -3.771099798006    -0.889971180132
H                    -3.203240966219    -4.613379585832    -1.953428833030
H                    -2.864809877510    -0.007148094011    -0.194932554002
H                    -2.464602143801     1.134684894871     1.102227387313
H                    -2.351792220115    -0.610968740097     1.383764649688
H                    -2.278631031233     1.864239855998    -1.520707493687
H                    -1.285033025308     0.785805016926    -2.516870908396
H                    -0.908735057883     2.507920156341    -2.440071948988
H                     2.429430740334    -2.382452536030    -1.870525163610
H                     0.767885303829    -2.661773757709    -2.370737690317
H                    -0.223749899154     3.358959753209    -0.241334579575
