20
0 1 C10F3H4NOS
C                     2.225693042679    -0.788362720888    -0.089858338577
C                     1.538182639718    -1.329085218310     2.575938393623
C                    -3.568730605535    -0.816598193363    -1.268205449305
C                    -3.367424725876    -2.093840444229    -0.796180737373
C                     0.902993490439    -0.577235201072     0.335251151723
C                     3.172488986227    -1.288182042469     0.786827429631
C                     0.597146170970    -0.841237954317     1.673698255737
C                     2.827802980554    -1.560192247057     2.115157898360
C                    -1.435088055071    -0.613060974494    -0.738863389351
C                    -0.073012834051    -0.010762771243    -0.657747788558
N                    -2.475220190368     0.002612124547    -1.242967469390
O                     0.270569487881     0.873890447802    -1.425805170232
F                     4.435742225858    -1.514808845280     0.378054301296
F                    -0.643165596129    -0.578234636903     2.144691595994
F                     3.761821495841    -2.039342129043     2.952314843321
S                    -1.739228074229    -2.282359037056    -0.273302127246
H                     2.504867920399    -0.559136451450    -1.113338627041
H                     1.277355960465    -1.512150915153     3.612754349970
H                    -4.511910363696    -0.438703364912    -1.648051502302
H                    -4.077211446782    -2.909233193073    -0.740170049594
