25
0 1 C9Cl2H8N6
C                     2.931943822631    -1.017825283827     2.105956088762
C                     1.992003211094    -0.136609885698     2.627240626626
C                     0.628928263196    -0.491764768175     0.652802505813
C                     4.774862604926    -5.529103846976    -4.004386539434
C                     2.768726171224    -1.668294700237     0.863135360212
C                     0.835396880391     0.119806445468     1.889011673125
C                     1.586030911899    -1.373586820350     0.147657317238
C                     5.127229570186    -4.624863017059    -2.065323179598
C                     3.852053290652    -2.567870520827     0.463544805884
N                     6.067698411706    -5.361424490835    -3.883249493745
N                     6.297730628620    -4.768145303498    -2.641611031752
N                     3.850274599044    -3.304782278166    -0.590964518591
N                     4.121014111562    -5.090504497137    -2.873999426072
N                     2.735514416803    -5.189578007037    -2.643688327476
N                     4.924274393331    -4.132065289677    -0.780035170251
Cl                   -0.371483534330     1.222016174138     2.511672710695
Cl                    1.226864511617    -2.061699792109    -1.424155386193
H                     3.832940494615    -1.219698573751     2.679656052685
H                     2.150850022786     0.343251279252     3.587089133542
H                    -0.268537267472    -0.283768469291     0.080953307434
H                     4.247231988739    -5.941570267109    -4.853396043185
H                     4.706782628538    -2.589892817836     1.152413622621
H                     2.426833120534    -4.289797643580    -2.274740964889
H                     2.591865738647    -5.878085236986    -1.903587917603
H                     5.801340714038    -3.902305408522    -0.308498857134
