
  -OEChem-05262117483D

 20 21  0     0  0  0  0  0  0999 V2000
    1.8299   -0.9630   -0.0492 C   0  0  0  0  0  0  0  0  0  0  0  0
    1.8627   -1.1651    2.7465 C   0  0  0  0  0  0  0  0  0  0  0  0
   -1.5255    3.0652    1.4859 C   0  0  0  0  0  0  0  0  0  0  0  0
   -2.6675    3.0469    0.7160 C   0  0  0  0  0  0  0  0  0  0  0  0
    0.7063   -0.5483    0.6842 C   0  0  0  0  0  0  0  0  0  0  0  0
    2.9558   -1.4371    0.6019 C   0  0  0  0  0  0  0  0  0  0  0  0
    0.7459   -0.6749    2.0763 C   0  0  0  0  0  0  0  0  0  0  0  0
    2.9725   -1.5332    1.9963 C   0  0  0  0  0  0  0  0  0  0  0  0
   -1.1590    1.1771    0.4042 C   0  0  0  0  0  0  0  0  0  0  0  0
   -0.4749   -0.0424   -0.0835 C   0  0  0  0  0  0  0  0  0  0  0  0
   -0.6819    2.0056    1.3029 N   0  0  0  0  0  0  0  0  0  0  0  0
   -0.8309   -0.5823   -1.1262 O   0  0  0  0  0  0  0  0  0  0  0  0
    4.0457   -1.8137   -0.0967 F   0  0  0  0  0  0  0  0  0  0  0  0
   -0.3445   -0.3834    2.8152 F   0  0  0  0  0  0  0  0  0  0  0  0
    4.0720   -2.0002    2.6119 F   0  0  0  0  0  0  0  0  0  0  0  0
   -2.6921    1.6545   -0.2962 S   0  0  0  0  0  0  0  0  0  0  0  0
    1.8188   -0.9045   -1.1328 H   0  0  0  0  0  0  0  0  0  0  0  0
    1.8647   -1.2685    3.8262 H   0  0  0  0  0  0  0  0  0  0  0  0
   -1.2675    3.8404    2.1992 H   0  0  0  0  0  0  0  0  0  0  0  0
   -3.4729    3.7702    0.7011 H   0  0  0  0  0  0  0  0  0  0  0  0
  1  5  1  0  0  0  0
  1  6  2  0  0  0  0
  1 17  1  0  0  0  0
  2  7  1  0  0  0  0
  2  8  2  0  0  0  0
  2 18  1  0  0  0  0
  3  4  2  0  0  0  0
  3 11  1  0  0  0  0
  3 19  1  0  0  0  0
  4 16  1  0  0  0  0
  4 20  1  0  0  0  0
  5  7  2  0  0  0  0
  5 10  1  0  0  0  0
  6  8  1  0  0  0  0
  6 13  1  0  0  0  0
  7 14  1  0  0  0  0
  8 15  1  0  0  0  0
  9 10  1  0  0  0  0
  9 11  2  0  0  0  0
  9 16  1  0  0  0  0
 10 12  2  0  0  0  0
M  END
$$$$
