50
0 1 C19H27N3O
C                     3.729626613641    -4.281322807050     2.023497817216
C                     5.026965840195    -3.931468115889     2.417560639319
C                     2.827599527792    -3.289143260637     1.637718285368
C                     5.407515249081    -2.589726116431     2.419321920997
C                     5.393205228367     1.796166732456     2.790246824112
C                     3.189637894507    -1.935033723003     1.637583657394
C                     4.493244457814    -1.601266325969     2.037980519038
C                     5.282551707106     1.751238470706     1.373926732040
C                     5.139366551144     0.506171734154     3.228392293366
C                     1.467876319553     0.878604686485     3.788424715918
C                     1.268210174858    -0.620021538685     3.513812927993
C                    -0.145690212085    -0.141894535080     1.621589064530
C                    -0.068881769822     1.393417318270     1.835090976032
C                     0.256628224306     1.709934263208     3.321381101444
C                     5.455656632520     2.866910679286     0.387203441886
C                     5.089562254779    -0.063643656284     4.611063361305
C                     0.866982415033     2.099604803336     0.837092258338
C                     0.489972672509     3.198356835193     3.568239941841
C                     2.172317784412    -0.884720011793     1.243312307719
N                     4.977724175624     0.520143488921     0.958609247973
N                     4.899978629314    -0.233514335255     2.099293890557
N                     0.986033931001    -0.935214577494     2.109825130895
O                    -0.896102618886     1.396465532465     4.140685634065
H                     3.425405953168    -5.324820461781     2.016680130872
H                     5.738502391384    -4.698061666396     2.712244960236
H                     1.811527206976    -3.549565235743     1.353535994207
H                     6.413449910401    -2.296264099619     2.705459114485
H                     5.621657904225     2.652860492568     3.411245747813
H                     1.613425696415     1.045856816697     4.861918637958
H                     2.373843389032     1.230444670619     3.284045304976
H                     2.145000069266    -1.190365926414     3.830557016957
H                     0.433349313939    -1.003219844643     4.118021196386
H                    -1.045528139439    -0.523596306719     2.126382318510
H                    -0.288105304078    -0.357473546510     0.557169817264
H                    -1.081913840560     1.779689334181     1.661826424313
H                     6.469153998195     3.280790939215     0.428557963553
H                     5.273450626389     2.499873418883    -0.625450420607
H                     4.757773848219     3.686771154901     0.590510918470
H                     4.205224139596    -0.690746808448     4.755670241804
H                     5.966694775556    -0.681772672052     4.830787068570
H                     5.057262547865     0.748101447588     5.341198480576
H                     1.924978916783     1.987500844383     1.086761717655
H                     0.653809752300     3.171625734151     0.795485075720
H                     0.726364435305     1.698450673228    -0.172521200616
H                    -0.354098057377     3.787348803397     3.194913659003
H                     1.404941977694     3.545711730252     3.082553610031
H                     0.579721651324     3.376139681857     4.644121447955
H                     2.658431231024     0.091310411427     1.212347032269
H                     1.835046345226    -1.089687453784     0.220762291625
H                    -1.111719561739     0.458599872397     4.025732463299
