
  -OEChem-05262117483D

 50 52  0     1  0  0  0  0  0999 V2000
   -0.8428   -6.2021    0.1133 C   0  0  0  0  0  0  0  0  0  0  0  0
   -0.2101   -6.0816    1.3538 C   0  0  0  0  0  0  0  0  0  0  0  0
   -0.4626   -5.3721   -0.9441 C   0  0  0  0  0  0  0  0  0  0  0  0
    0.8093   -5.1419    1.5138 C   0  0  0  0  0  0  0  0  0  0  0  0
    4.0581   -2.1560    0.5918 C   0  0  0  0  0  0  0  0  0  0  0  0
    0.5550   -4.4188   -0.8033 C   0  0  0  0  0  0  0  0  0  0  0  0
    1.1981   -4.3282    0.4461 C   0  0  0  0  0  0  0  0  0  0  0  0
    3.0785   -1.5503    1.4212 C   0  0  0  0  0  0  0  0  0  0  0  0
    3.4841   -3.3309    0.1289 C   0  0  0  0  0  0  0  0  0  0  0  0
    2.1389    0.0173   -2.0878 C   0  0  0  0  0  0  0  0  0  0  0  0
    1.7819   -1.3614   -2.6443 C   0  0  0  0  0  0  0  0  0  0  0  0
   -0.1305   -1.4894   -1.1697 C   0  0  0  0  0  0  0  0  0  0  0  0
    0.1439   -0.1023   -0.5769 C   0  0  1  0  0  0  0  0  0  0  0  0
    0.9153    0.7933   -1.5685 C   0  0  2  0  0  0  0  0  0  0  0  0
    3.1434   -0.2349    2.1383 C   0  0  0  0  0  0  0  0  0  0  0  0
    4.0324   -4.3997   -0.7646 C   0  0  0  0  0  0  0  0  0  0  0  0
   -1.1475    0.5286   -0.0467 C   0  0  0  0  0  0  0  0  0  0  0  0
    0.0473    1.3086   -2.7245 C   0  0  0  0  0  0  0  0  0  0  0  0
    0.9102   -3.5309   -1.9838 C   0  0  0  0  0  0  0  0  0  0  0  0
    1.9747   -2.2997    1.4781 N   0  0  0  0  0  0  0  0  0  0  0  0
    2.2364   -3.3799    0.6829 N   0  0  0  0  0  0  0  0  0  0  0  0
    1.0969   -2.1371   -1.6210 N   0  0  1  0  0  0  0  0  0  0  0  0
    1.3725    1.9214   -0.7862 O   0  0  0  0  0  0  0  0  0  0  0  0
   -1.6392   -6.9282   -0.0272 H   0  0  0  0  0  0  0  0  0  0  0  0
   -0.5066   -6.7111    2.1884 H   0  0  0  0  0  0  0  0  0  0  0  0
   -0.9791   -5.4484   -1.8982 H   0  0  0  0  0  0  0  0  0  0  0  0
    1.3167   -5.0205    2.4660 H   0  0  0  0  0  0  0  0  0  0  0  0
    5.0567   -1.7977    0.3756 H   0  0  0  0  0  0  0  0  0  0  0  0
    2.8297   -0.1220   -1.2513 H   0  0  0  0  0  0  0  0  0  0  0  0
    2.6531    0.6063   -2.8596 H   0  0  0  0  0  0  0  0  0  0  0  0
    1.1775   -1.2652   -3.5692 H   0  0  0  0  0  0  0  0  0  0  0  0
    2.7030   -1.8867   -2.9209 H   0  0  0  0  0  0  0  0  0  0  0  0
   -0.5804   -2.1098   -0.3895 H   0  0  0  0  0  0  0  0  0  0  0  0
   -0.8734   -1.4192   -1.9913 H   0  0  0  0  0  0  0  0  0  0  0  0
    0.8186   -0.2587    0.2686 H   0  0  0  0  0  0  0  0  0  0  0  0
    3.0096    0.5993    1.4393 H   0  0  0  0  0  0  0  0  0  0  0  0
    2.3487   -0.1754    2.8861 H   0  0  0  0  0  0  0  0  0  0  0  0
    4.1076   -0.1021    2.6399 H   0  0  0  0  0  0  0  0  0  0  0  0
    3.4655   -5.3293   -0.6694 H   0  0  0  0  0  0  0  0  0  0  0  0
    4.0074   -4.0973   -1.8176 H   0  0  0  0  0  0  0  0  0  0  0  0
    5.0754   -4.6094   -0.5106 H   0  0  0  0  0  0  0  0  0  0  0  0
   -1.9292    0.5742   -0.8134 H   0  0  0  0  0  0  0  0  0  0  0  0
   -0.9620    1.5432    0.3153 H   0  0  0  0  0  0  0  0  0  0  0  0
   -1.5381   -0.0636    0.7878 H   0  0  0  0  0  0  0  0  0  0  0  0
   -0.7543    1.9478   -2.3474 H   0  0  0  0  0  0  0  0  0  0  0  0
   -0.4037    0.4931   -3.2971 H   0  0  0  0  0  0  0  0  0  0  0  0
    0.6544    1.9007   -3.4209 H   0  0  0  0  0  0  0  0  0  0  0  0
    1.8448   -3.8862   -2.4323 H   0  0  0  0  0  0  0  0  0  0  0  0
    0.1311   -3.6633   -2.7597 H   0  0  0  0  0  0  0  0  0  0  0  0
    1.8620    2.5124   -1.3811 H   0  0  0  0  0  0  0  0  0  0  0  0
  1  2  1  0  0  0  0
  1  3  2  0  0  0  0
  1 24  1  0  0  0  0
  2  4  2  0  0  0  0
  2 25  1  0  0  0  0
  3  6  1  0  0  0  0
  3 26  1  0  0  0  0
  4  7  1  0  0  0  0
  4 27  1  0  0  0  0
  5  8  1  0  0  0  0
  5  9  2  0  0  0  0
  5 28  1  0  0  0  0
  6  7  2  0  0  0  0
  6 19  1  0  0  0  0
  7 21  1  0  0  0  0
  8 15  1  0  0  0  0
  8 20  2  0  0  0  0
  9 16  1  0  0  0  0
  9 21  1  0  0  0  0
 10 11  1  0  0  0  0
 10 14  1  0  0  0  0
 10 29  1  0  0  0  0
 10 30  1  0  0  0  0
 11 22  1  0  0  0  0
 11 31  1  0  0  0  0
 11 32  1  0  0  0  0
 12 13  1  0  0  0  0
 12 22  1  0  0  0  0
 12 33  1  0  0  0  0
 12 34  1  0  0  0  0
 13 14  1  0  0  0  0
 13 17  1  0  0  0  0
 13 35  1  0  0  0  0
 14 18  1  0  0  0  0
 14 23  1  0  0  0  0
 15 36  1  0  0  0  0
 15 37  1  0  0  0  0
 15 38  1  0  0  0  0
 16 39  1  0  0  0  0
 16 40  1  0  0  0  0
 16 41  1  0  0  0  0
 17 42  1  0  0  0  0
 17 43  1  0  0  0  0
 17 44  1  0  0  0  0
 18 45  1  0  0  0  0
 18 46  1  0  0  0  0
 18 47  1  0  0  0  0
 19 22  1  0  0  0  0
 19 48  1  0  0  0  0
 19 49  1  0  0  0  0
 20 21  1  0  0  0  0
 23 50  1  0  0  0  0
M  END
$$$$
