
  -OEChem-05262117483D

 20 21  0     0  0  0  0  0  0999 V2000
    1.8552   -1.4584   -0.1110 C   0  0  0  0  0  0  0  0  0  0  0  0
    1.8697   -0.7214    2.5961 C   0  0  0  0  0  0  0  0  0  0  0  0
   -1.1825    3.5114   -1.1299 C   0  0  0  0  0  0  0  0  0  0  0  0
   -0.0090    3.9980   -0.6000 C   0  0  0  0  0  0  0  0  0  0  0  0
    0.9584   -0.4742    0.3383 C   0  0  0  0  0  0  0  0  0  0  0  0
    2.7585   -2.0357    0.7640 C   0  0  0  0  0  0  0  0  0  0  0  0
    0.9804   -0.1413    1.6960 C   0  0  0  0  0  0  0  0  0  0  0  0
    2.7668   -1.6653    2.1131 C   0  0  0  0  0  0  0  0  0  0  0  0
   -0.2296    1.5739   -0.6695 C   0  0  0  0  0  0  0  0  0  0  0  0
   -0.0133    0.0982   -0.6556 C   0  0  0  0  0  0  0  0  0  0  0  0
   -1.2913    2.1500   -1.1755 N   0  0  0  0  0  0  0  0  0  0  0  0
   -0.5553   -0.6250   -1.4764 O   0  0  0  0  0  0  0  0  0  0  0  0
    3.6362   -2.9623    0.3335 F   0  0  0  0  0  0  0  0  0  0  0  0
    0.0824    0.7434    2.1862 F   0  0  0  0  0  0  0  0  0  0  0  0
    3.6469   -2.2408    2.9480 F   0  0  0  0  0  0  0  0  0  0  0  0
    1.0053    2.6966   -0.1126 S   0  0  0  0  0  0  0  0  0  0  0  0
    1.8395   -1.7657   -1.1518 H   0  0  0  0  0  0  0  0  0  0  0  0
    1.8559   -0.4548    3.6474 H   0  0  0  0  0  0  0  0  0  0  0  0
   -1.9950    4.1260   -1.5025 H   0  0  0  0  0  0  0  0  0  0  0  0
    0.2993    5.0292   -0.4840 H   0  0  0  0  0  0  0  0  0  0  0  0
  1  5  1  0  0  0  0
  1  6  2  0  0  0  0
  1 17  1  0  0  0  0
  2  7  1  0  0  0  0
  2  8  2  0  0  0  0
  2 18  1  0  0  0  0
  3  4  2  0  0  0  0
  3 11  1  0  0  0  0
  3 19  1  0  0  0  0
  4 16  1  0  0  0  0
  4 20  1  0  0  0  0
  5  7  2  0  0  0  0
  5 10  1  0  0  0  0
  6  8  1  0  0  0  0
  6 13  1  0  0  0  0
  7 14  1  0  0  0  0
  8 15  1  0  0  0  0
  9 10  1  0  0  0  0
  9 11  2  0  0  0  0
  9 16  1  0  0  0  0
 10 12  2  0  0  0  0
M  END
$$$$
