20
0 1 C8ClF3H6O2
C                     2.400866707021    -0.825765527066     0.221985331286
C                     1.243836521248    -0.211257501615     0.704494340246
C                     2.882552967129    -1.632470382052     2.464348958964
C                     1.723233110941    -1.027947771812     2.964776866088
C                     3.206736134069    -1.525224365145     1.115222444993
C                     0.922706717397    -0.317606457314     2.057598441180
C                     1.375517518111    -1.137103261183     4.436841501553
C                     5.508247470240    -1.504162868739     0.605720439898
O                     1.582852202604     0.080108862316     5.153835314438
O                     4.343916930297    -2.202850669163     0.632014218309
F                     5.439581610012    -0.408606490431    -0.186832126224
F                     6.458230685170    -2.313785696825     0.126265413165
F                     5.886466292731    -1.077146440735     1.832057192500
Cl                   -0.546825810407     0.476219568474     2.625663985461
H                     2.672410224935    -0.764181910037    -0.826591662652
H                     0.595307994553     0.343126239969     0.034112985544
H                     3.537631379457    -2.189716543712     3.127252378208
H                     0.341462506819    -1.487294969433     4.549389805318
H                     2.031574839486    -1.871291909638     4.908094784239
H                     0.905182400220     0.714731336888     4.869681932227
