
  -OEChem-05262117483D

 26 26  0     0  0  0  0  0  0999 V2000
    2.1694   -1.4501    0.5245 C   0  0  0  0  0  0  0  0  0  0  0  0
    0.9538   -1.1975    1.1734 C   0  0  0  0  0  0  0  0  0  0  0  0
    3.3245   -1.2845    2.6216 C   0  0  0  0  0  0  0  0  0  0  0  0
    3.3710   -1.4971    1.2352 C   0  0  0  0  0  0  0  0  0  0  0  0
    0.9197   -0.9865    2.5537 C   0  0  0  0  0  0  0  0  0  0  0  0
    2.1248   -1.0310    3.2895 C   0  0  0  0  0  0  0  0  0  0  0  0
    4.6912   -1.7603    0.5468 C   0  0  0  0  0  0  0  0  0  0  0  0
   -3.9453   -0.3056    2.9373 C   0  0  0  0  0  0  0  0  0  0  0  0
   -2.5621   -0.3844    3.5928 C   0  0  0  0  0  0  0  0  0  0  0  0
   -1.4705   -0.6772    2.5740 C   0  0  0  0  0  0  0  0  0  0  0  0
   -0.2227   -0.7338    3.2710 O   0  0  0  0  0  0  0  0  0  0  0  0
    2.1708   -0.7745    5.0516 S   0  0  0  0  0  0  0  0  0  0  0  0
    2.1693   -1.6116   -0.5507 H   0  0  0  0  0  0  0  0  0  0  0  0
    0.0396   -1.1686    0.5914 H   0  0  0  0  0  0  0  0  0  0  0  0
    4.2482   -1.3179    3.1966 H   0  0  0  0  0  0  0  0  0  0  0  0
    5.3577   -0.8931    0.6194 H   0  0  0  0  0  0  0  0  0  0  0  0
    5.2139   -2.6111    0.9980 H   0  0  0  0  0  0  0  0  0  0  0  0
    4.5475   -1.9812   -0.5145 H   0  0  0  0  0  0  0  0  0  0  0  0
   -3.9863    0.4898    2.1846 H   0  0  0  0  0  0  0  0  0  0  0  0
   -4.2074   -1.2476    2.4424 H   0  0  0  0  0  0  0  0  0  0  0  0
   -4.7183   -0.0966    3.6829 H   0  0  0  0  0  0  0  0  0  0  0  0
   -2.5488   -1.1688    4.3578 H   0  0  0  0  0  0  0  0  0  0  0  0
   -2.3275    0.5589    4.0985 H   0  0  0  0  0  0  0  0  0  0  0  0
   -1.6569   -1.6356    2.0703 H   0  0  0  0  0  0  0  0  0  0  0  0
   -1.4319    0.1106    1.8093 H   0  0  0  0  0  0  0  0  0  0  0  0
    0.8473   -0.5859    5.2075 H   0  0  0  0  0  0  0  0  0  0  0  0
  1  2  1  0  0  0  0
  1  4  2  0  0  0  0
  1 13  1  0  0  0  0
  2  5  2  0  0  0  0
  2 14  1  0  0  0  0
  3  4  1  0  0  0  0
  3  6  2  0  0  0  0
  3 15  1  0  0  0  0
  4  7  1  0  0  0  0
  5  6  1  0  0  0  0
  5 11  1  0  0  0  0
  6 12  1  0  0  0  0
  7 16  1  0  0  0  0
  7 17  1  0  0  0  0
  7 18  1  0  0  0  0
  8  9  1  0  0  0  0
  8 19  1  0  0  0  0
  8 20  1  0  0  0  0
  8 21  1  0  0  0  0
  9 10  1  0  0  0  0
  9 22  1  0  0  0  0
  9 23  1  0  0  0  0
 10 11  1  0  0  0  0
 10 24  1  0  0  0  0
 10 25  1  0  0  0  0
 12 26  1  0  0  0  0
M  END
$$$$
