
  -OEChem-05262117483D

 20 20  0     1  0  0  0  0  0999 V2000
    3.4357    1.3394   -0.1754 C   0  0  0  0  0  0  0  0  0  0  0  0
    4.1266    1.7037    1.0191 C   0  0  0  0  0  0  0  0  0  0  0  0
    2.7667    0.1688    0.0915 C   0  0  0  0  0  0  0  0  0  0  0  0
    3.8213    0.7181    1.9200 C   0  0  0  0  0  0  0  0  0  0  0  0
    2.3880   -2.1548   -0.7384 C   0  0  0  0  0  0  0  0  0  0  0  0
    1.8874   -0.7056   -0.7458 C   0  0  1  0  0  0  0  0  0  0  0  0
    0.5085   -0.6902   -0.2276 N   0  0  0  0  0  0  0  0  0  0  0  0
    4.2312    0.5408    3.2759 N   0  3  0  0  0  0  0  0  0  0  0  0
    4.9722    1.4220    3.7412 O   0  5  0  0  0  0  0  0  0  0  0  0
    3.8311   -0.4594    3.8824 O   0  0  0  0  0  0  0  0  0  0  0  0
    2.9990   -0.2176    1.3816 O   0  0  0  0  0  0  0  0  0  0  0  0
    3.6763   -2.1690   -1.3526 O   0  0  0  0  0  0  0  0  0  0  0  0
    3.4418    1.8638   -1.1217 H   0  0  0  0  0  0  0  0  0  0  0  0
    4.7628    2.5572    1.2039 H   0  0  0  0  0  0  0  0  0  0  0  0
    2.4192   -2.5145    0.2960 H   0  0  0  0  0  0  0  0  0  0  0  0
    1.6763   -2.7768   -1.3015 H   0  0  0  0  0  0  0  0  0  0  0  0
    1.9813   -0.3258   -1.7752 H   0  0  0  0  0  0  0  0  0  0  0  0
   -0.1048   -1.1796   -0.8777 H   0  0  0  0  0  0  0  0  0  0  0  0
    0.1708    0.2683   -0.1648 H   0  0  0  0  0  0  0  0  0  0  0  0
    4.1013   -3.0170   -1.1563 H   0  0  0  0  0  0  0  0  0  0  0  0
  1  2  1  0  0  0  0
  1  3  2  0  0  0  0
  1 13  1  0  0  0  0
  2  4  2  0  0  0  0
  2 14  1  0  0  0  0
  3  6  1  0  0  0  0
  3 11  1  0  0  0  0
  4  8  1  0  0  0  0
  4 11  1  0  0  0  0
  5  6  1  0  0  0  0
  5 12  1  0  0  0  0
  5 15  1  0  0  0  0
  5 16  1  0  0  0  0
  6  7  1  0  0  0  0
  6 17  1  0  0  0  0
  7 18  1  0  0  0  0
  7 19  1  0  0  0  0
  8  9  1  0  0  0  0
  8 10  2  0  0  0  0
 12 20  1  0  0  0  0
M  CHG  2   8   1   9  -1
M  END
$$$$
