20
0 1 C8ClF3H6O2
C                     1.887269981588    -1.047779788471    -0.145998516019
C                     0.835225030091    -0.417435081927     0.521676965101
C                     2.837573481025    -1.678542015834     1.997730130913
C                     1.785948272892    -1.056424871893     2.682673717479
C                     2.874735109398    -1.674667099833     0.606434887342
C                     0.788478578947    -0.427275058075     1.917255638894
C                     1.741354657518    -1.113817654127     4.194737085555
C                     3.867420856146    -3.569354923516    -0.380967554135
O                     0.747038446991    -2.018566758755     4.681546035067
O                     3.977926303040    -2.257996871883    -0.050185134619
F                     2.838942060295    -3.808906609817    -1.227661605958
F                     3.676042912471    -4.364751965315     0.699358855337
F                     5.004029886981    -3.937799218496    -0.980124910720
Cl                   -0.548111430565     0.386515040545     2.705477307597
H                     1.942508785029    -1.049054581663    -1.229653825862
H                     0.053606672753     0.083986847545    -0.039644469635
H                     3.635459661296    -2.167064980915     2.549900435351
H                     2.736302393421    -1.382660447353     4.573761019421
H                     1.473005750675    -0.140579064035     4.609940230302
H                     0.924466586171    -2.893322231376     4.300209057030
