
  -OEChem-05262117483D

 35 36  0     1  0  0  0  0  0999 V2000
   -1.9721    1.2189    2.9904 C   0  0  0  0  0  0  0  0  0  0  0  0
   -3.1976    0.6207    2.6400 C   0  0  0  0  0  0  0  0  0  0  0  0
   -0.7821   -1.9518    0.2159 C   0  0  0  0  0  0  0  0  0  0  0  0
   -0.3945    0.1374   -2.2996 C   0  0  0  0  0  0  0  0  0  0  0  0
    0.2730   -1.1698   -1.8232 C   0  0  0  0  0  0  0  0  0  0  0  0
    1.0697   -0.2445    0.2842 C   0  0  0  0  0  0  0  0  0  0  0  0
    0.9292    1.1662   -0.3727 C   0  0  2  0  0  0  0  0  0  0  0  0
   -0.3573    1.2486   -1.2306 C   0  0  1  0  0  0  0  0  0  0  0  0
    2.2019    1.5580   -1.1398 C   0  0  0  0  0  0  0  0  0  0  0  0
   -0.5447    2.6264   -1.8755 C   0  0  0  0  0  0  0  0  0  0  0  0
   -0.9270   -1.9003    1.7522 C   0  0  0  0  0  0  0  0  0  0  0  0
   -0.9853    0.3516    2.7216 N   0  0  0  0  0  0  0  0  0  0  0  0
   -2.9519   -0.6053    2.1631 N   0  0  0  0  0  0  0  0  0  0  0  0
   -1.6269   -0.7153    2.2341 N   0  0  0  0  0  0  0  0  0  0  0  0
    0.2398   -1.2565   -0.3652 N   0  0  0  0  0  0  0  0  0  0  0  0
   -1.5524   -2.6677   -0.4218 O   0  0  0  0  0  0  0  0  0  0  0  0
   -1.4965    0.9842   -0.3820 O   0  0  0  0  0  0  0  0  0  0  0  0
   -1.7597    2.1854    3.4277 H   0  0  0  0  0  0  0  0  0  0  0  0
   -4.2089    0.9966    2.7130 H   0  0  0  0  0  0  0  0  0  0  0  0
    0.0928    0.4830   -3.2166 H   0  0  0  0  0  0  0  0  0  0  0  0
   -1.4471   -0.0417   -2.5331 H   0  0  0  0  0  0  0  0  0  0  0  0
   -0.2287   -2.0439   -2.2348 H   0  0  0  0  0  0  0  0  0  0  0  0
    1.3253   -1.2026   -2.1285 H   0  0  0  0  0  0  0  0  0  0  0  0
    2.1171   -0.5669    0.2134 H   0  0  0  0  0  0  0  0  0  0  0  0
    0.8178   -0.1756    1.3375 H   0  0  0  0  0  0  0  0  0  0  0  0
    0.8080    1.8895    0.4448 H   0  0  0  0  0  0  0  0  0  0  0  0
    2.3581    0.9266   -2.0210 H   0  0  0  0  0  0  0  0  0  0  0  0
    3.0812    1.4471   -0.4965 H   0  0  0  0  0  0  0  0  0  0  0  0
    2.1714    2.5984   -1.4734 H   0  0  0  0  0  0  0  0  0  0  0  0
   -0.5259    3.4182   -1.1161 H   0  0  0  0  0  0  0  0  0  0  0  0
   -1.5181    2.6574   -2.3735 H   0  0  0  0  0  0  0  0  0  0  0  0
    0.2276    2.8494   -2.6167 H   0  0  0  0  0  0  0  0  0  0  0  0
    0.0289   -1.9450    2.2742 H   0  0  0  0  0  0  0  0  0  0  0  0
   -1.5319   -2.7647    2.0212 H   0  0  0  0  0  0  0  0  0  0  0  0
   -1.4724    1.6037    0.3659 H   0  0  0  0  0  0  0  0  0  0  0  0
  1  2  1  0  0  0  0
  1 12  2  0  0  0  0
  1 18  1  0  0  0  0
  2 13  2  0  0  0  0
  2 19  1  0  0  0  0
  3 11  1  0  0  0  0
  3 15  1  0  0  0  0
  3 16  2  0  0  0  0
  4  5  1  0  0  0  0
  4  8  1  0  0  0  0
  4 20  1  0  0  0  0
  4 21  1  0  0  0  0
  5 15  1  0  0  0  0
  5 22  1  0  0  0  0
  5 23  1  0  0  0  0
  6  7  1  0  0  0  0
  6 15  1  0  0  0  0
  6 24  1  0  0  0  0
  6 25  1  0  0  0  0
  7  8  1  0  0  0  0
  7  9  1  0  0  0  0
  7 26  1  0  0  0  0
  8 10  1  0  0  0  0
  8 17  1  0  0  0  0
  9 27  1  0  0  0  0
  9 28  1  0  0  0  0
  9 29  1  0  0  0  0
 10 30  1  0  0  0  0
 10 31  1  0  0  0  0
 10 32  1  0  0  0  0
 11 14  1  0  0  0  0
 11 33  1  0  0  0  0
 11 34  1  0  0  0  0
 12 14  1  0  0  0  0
 13 14  1  0  0  0  0
 17 35  1  0  0  0  0
M  END
$$$$
