
  -OEChem-05262117483D

 35 36  0     1  0  0  0  0  0999 V2000
   -5.7633   -2.9811   -1.3754 C   0  0  0  0  0  0  0  0  0  0  0  0
   -5.3348   -3.5494   -2.5917 C   0  0  0  0  0  0  0  0  0  0  0  0
   -2.0439   -1.0254   -1.7830 C   0  0  0  0  0  0  0  0  0  0  0  0
    0.4544   -0.3181    0.5389 C   0  0  0  0  0  0  0  0  0  0  0  0
    0.2428   -1.1517   -0.7311 C   0  0  0  0  0  0  0  0  0  0  0  0
   -0.4608    0.8302   -1.9806 C   0  0  0  0  0  0  0  0  0  0  0  0
   -0.3178    1.7385   -0.7448 C   0  0  2  0  0  0  0  0  0  0  0  0
    0.7568    1.1530    0.2123 C   0  0  1  0  0  0  0  0  0  0  0  0
   -1.6813    1.9881   -0.0824 C   0  0  0  0  0  0  0  0  0  0  0  0
    0.9137    1.9709    1.4972 C   0  0  0  0  0  0  0  0  0  0  0  0
   -2.3218   -2.4404   -1.2299 C   0  0  0  0  0  0  0  0  0  0  0  0
   -4.6903   -2.5386   -0.7103 N   0  0  0  0  0  0  0  0  0  0  0  0
   -4.0027   -3.4505   -2.6627 N   0  0  0  0  0  0  0  0  0  0  0  0
   -3.6736   -2.8524   -1.5163 N   0  0  0  0  0  0  0  0  0  0  0  0
   -0.7821   -0.5417   -1.5793 N   0  0  0  0  0  0  0  0  0  0  0  0
   -2.9205   -0.4066   -2.3787 O   0  0  0  0  0  0  0  0  0  0  0  0
    2.0286    1.1152   -0.4788 O   0  0  0  0  0  0  0  0  0  0  0  0
   -6.7569   -2.8802   -0.9604 H   0  0  0  0  0  0  0  0  0  0  0  0
   -5.9020   -4.0138   -3.3869 H   0  0  0  0  0  0  0  0  0  0  0  0
   -0.4387   -0.3731    1.1698 H   0  0  0  0  0  0  0  0  0  0  0  0
    1.2932   -0.7277    1.1117 H   0  0  0  0  0  0  0  0  0  0  0  0
    1.1786   -1.1935   -1.2981 H   0  0  0  0  0  0  0  0  0  0  0  0
   -0.0261   -2.1756   -0.4744 H   0  0  0  0  0  0  0  0  0  0  0  0
   -1.2560    1.1844   -2.6355 H   0  0  0  0  0  0  0  0  0  0  0  0
    0.4795    0.8087   -2.5406 H   0  0  0  0  0  0  0  0  0  0  0  0
    0.0651    2.7073   -1.0994 H   0  0  0  0  0  0  0  0  0  0  0  0
   -2.1136    1.0689    0.3234 H   0  0  0  0  0  0  0  0  0  0  0  0
   -2.3915    2.3744   -0.8187 H   0  0  0  0  0  0  0  0  0  0  0  0
   -1.6096    2.7160    0.7301 H   0  0  0  0  0  0  0  0  0  0  0  0
    1.0908    3.0292    1.2675 H   0  0  0  0  0  0  0  0  0  0  0  0
    1.7703    1.5958    2.0652 H   0  0  0  0  0  0  0  0  0  0  0  0
    0.0265    1.9119    2.1331 H   0  0  0  0  0  0  0  0  0  0  0  0
   -2.1969   -2.4646   -0.1458 H   0  0  0  0  0  0  0  0  0  0  0  0
   -1.6490   -3.1716   -1.6818 H   0  0  0  0  0  0  0  0  0  0  0  0
    2.2779    2.0290   -0.6919 H   0  0  0  0  0  0  0  0  0  0  0  0
  1  2  1  0  0  0  0
  1 12  2  0  0  0  0
  1 18  1  0  0  0  0
  2 13  2  0  0  0  0
  2 19  1  0  0  0  0
  3 11  1  0  0  0  0
  3 15  1  0  0  0  0
  3 16  2  0  0  0  0
  4  5  1  0  0  0  0
  4  8  1  0  0  0  0
  4 20  1  0  0  0  0
  4 21  1  0  0  0  0
  5 15  1  0  0  0  0
  5 22  1  0  0  0  0
  5 23  1  0  0  0  0
  6  7  1  0  0  0  0
  6 15  1  0  0  0  0
  6 24  1  0  0  0  0
  6 25  1  0  0  0  0
  7  8  1  0  0  0  0
  7  9  1  0  0  0  0
  7 26  1  0  0  0  0
  8 10  1  0  0  0  0
  8 17  1  0  0  0  0
  9 27  1  0  0  0  0
  9 28  1  0  0  0  0
  9 29  1  0  0  0  0
 10 30  1  0  0  0  0
 10 31  1  0  0  0  0
 10 32  1  0  0  0  0
 11 14  1  0  0  0  0
 11 33  1  0  0  0  0
 11 34  1  0  0  0  0
 12 14  1  0  0  0  0
 13 14  1  0  0  0  0
 17 35  1  0  0  0  0
M  END
$$$$
