
  -OEChem-05262117483D

 16 16  0     0  0  0  0  0  0999 V2000
    1.1915   -0.7480   -0.6356 C   0  0  0  0  0  0  0  0  0  0  0  0
    0.7437   -0.3882    1.7684 C   0  0  0  0  0  0  0  0  0  0  0  0
    0.3900   -0.2334    0.3987 C   0  0  0  0  0  0  0  0  0  0  0  0
    1.9473   -1.0947    2.0041 C   0  0  0  0  0  0  0  0  0  0  0  0
    2.7348   -1.6016    0.9911 C   0  0  0  0  0  0  0  0  0  0  0  0
    2.3585   -1.4289   -0.3540 C   0  0  0  0  0  0  0  0  0  0  0  0
    0.0516    0.0791    2.8362 N   0  0  0  0  0  0  0  0  0  0  0  0
   -0.8207    0.4624    0.0075 N   0  3  0  0  0  0  0  0  0  0  0  0
   -1.0745    0.5727   -1.1960 O   0  5  0  0  0  0  0  0  0  0  0  0
   -1.5584    0.9199    0.9054 O   0  0  0  0  0  0  0  0  0  0  0  0
    2.3227   -1.2697    3.2930 F   0  0  0  0  0  0  0  0  0  0  0  0
    3.8545   -2.2553    1.3128 F   0  0  0  0  0  0  0  0  0  0  0  0
    3.4576   -2.1336   -1.7359 Br  0  0  0  0  0  0  0  0  0  0  0  0
    0.8680   -0.5963   -1.6576 H   0  0  0  0  0  0  0  0  0  0  0  0
   -0.8311    0.5487    2.6823 H   0  0  0  0  0  0  0  0  0  0  0  0
    0.3784   -0.1320    3.7682 H   0  0  0  0  0  0  0  0  0  0  0  0
  1  3  1  0  0  0  0
  1  6  2  0  0  0  0
  1 14  1  0  0  0  0
  2  3  2  0  0  0  0
  2  4  1  0  0  0  0
  2  7  1  0  0  0  0
  3  8  1  0  0  0  0
  4  5  2  0  0  0  0
  4 11  1  0  0  0  0
  5  6  1  0  0  0  0
  5 12  1  0  0  0  0
  6 13  1  0  0  0  0
  7 15  1  0  0  0  0
  7 16  1  0  0  0  0
  8  9  1  0  0  0  0
  8 10  2  0  0  0  0
M  CHG  2   8   1   9  -1
M  END
$$$$
