14
0 1 C5Cl2H4N2O
C                    -0.267308263983     0.028670138635     1.015320217121
C                     0.485159795194     0.729917939652     1.959170612145
C                    -0.020513861494     0.654727451419     3.267714345910
C                    -1.727607961820    -0.647289696386     2.588274329337
C                     1.703631646210     1.519696431833     1.571076856061
N                    -1.374735103147    -0.667907488284     1.309287497626
N                    -1.109781550748    -0.023907707784     3.591589939180
O                     1.340974528458     2.903954137095     1.531680231864
Cl                    0.799630866951     1.469002519784     4.577445881426
Cl                   -3.163883659888    -1.538081101194     3.015235495366
H                     0.037140646496     0.028271393024    -0.030398484323
H                     2.505007273926     1.341342026155     2.298147028553
H                     2.053213779357     1.180489987384     0.586325221985
H                     2.149584463736     3.434534858022     1.602398548237
