26
0 1 C10H14OS
C                     2.169434070245    -1.450070580644     0.524480133204
C                     0.953769308536    -1.197488593460     1.173392456255
C                     3.324478449743    -1.284530153496     2.621644699334
C                     3.370959121633    -1.497085478095     1.235165719813
C                     0.919713754594    -0.986476566570     2.553698461903
C                     2.124830987891    -1.030965113809     3.289529697587
C                     4.691227030505    -1.760337011372     0.546842701743
C                    -3.945283461747    -0.305615301720     2.937285501440
C                    -2.562143706844    -0.384421001654     3.592818524618
C                    -1.470537472369    -0.677237866778     2.574013384517
O                    -0.222723290074    -0.733823341551     3.270996075425
S                     2.170819821315    -0.774547867165     5.051568950335
H                     2.169348798629    -1.611636923981    -0.550746812450
H                     0.039613867317    -1.168616346173     0.591353114584
H                     4.248212289522    -1.317918145095     3.196550621078
H                     5.357739898710    -0.893086531040     0.619354140387
H                     5.213927530167    -2.611052508365     0.997966205046
H                     4.547486010926    -1.981200296468    -0.514524611213
H                    -3.986260097968     0.489838557836     2.184570258296
H                    -4.207441736074    -1.247605755267     2.442350406137
H                    -4.718259064043    -0.096601299808     3.682941049626
H                    -2.548750168140    -1.168811067511     4.357828131314
H                    -2.327496122717     0.558919906843     4.098535314541
H                    -1.656851925694    -1.635631803128     2.070328185282
H                    -1.431884093439     0.110589474943     1.809315161567
H                     0.847289275642    -0.585917623239     5.207458000093
