16
0 1 BrC6F2H3N2O2
C                     1.191481802398    -0.747971137700    -0.635608114752
C                     0.743671064853    -0.388246857635     1.768418547524
C                     0.390018378892    -0.233403673717     0.398693239116
C                     1.947280344187    -1.094666275780     2.004131629964
C                     2.734821512164    -1.601554769883     0.991098347411
C                     2.358524354380    -1.428897152674    -0.354031074126
N                     0.051642673870     0.079127587848     2.836180480228
N                    -0.820675032804     0.462381743168     0.007473082903
O                    -1.074463665738     0.572669073799    -1.195992662404
O                    -1.558422858385     0.919942173937     0.905384715251
F                     2.322689838950    -1.269681927808     3.292998485954
F                     3.854472456021    -2.255250336325     1.312819644380
Br                    3.457618806226    -2.133585065943    -1.735908127536
H                     0.867979554234    -0.596259396968    -1.657593038378
H                    -0.831077481992     0.548665881279     2.682311781434
H                     0.378373654450    -0.132031936606     3.768194260570
