
  -OEChem-05262117483D

 40 41  0     1  0  0  0  0  0999 V2000
    5.0849   -0.0163    5.7691 C   0  0  0  0  0  0  0  0  0  0  0  0
    5.0133    0.6934    4.5594 C   0  0  0  0  0  0  0  0  0  0  0  0
    3.2917   -1.4483    5.0298 C   0  0  0  0  0  0  0  0  0  0  0  0
    4.2329   -1.0879    6.0098 C   0  0  0  0  0  0  0  0  0  0  0  0
    4.0804    0.3389    3.5866 C   0  0  0  0  0  0  0  0  0  0  0  0
    3.2016   -0.7505    3.8275 C   0  0  0  0  0  0  0  0  0  0  0  0
   -0.5977   -0.4524    3.0519 C   0  0  0  0  0  0  0  0  0  0  0  0
   -0.3457   -0.9226    1.5882 C   0  0  0  0  0  0  0  0  0  0  0  0
    0.1865   -1.4330    3.9560 C   0  0  0  0  0  0  0  0  0  0  0  0
    0.5704   -2.1634    1.7002 C   0  0  0  0  0  0  0  0  0  0  0  0
    1.2830   -1.9979    3.0425 C   0  0  0  0  0  0  0  0  0  0  0  0
    6.5169   -3.0862    6.5619 C   0  0  0  0  0  0  0  0  0  0  0  0
    4.7810    2.0686    2.1026 C   0  0  0  0  0  0  0  0  0  0  0  0
    5.0713   -3.2463    7.0414 C   0  0  0  0  0  0  0  0  0  0  0  0
    4.3437   -1.9093    7.2738 C   0  0  2  0  0  0  0  0  0  0  0  0
    3.0114   -2.1423    7.7658 O   0  0  0  0  0  0  0  0  0  0  0  0
    2.3273   -1.0305    2.8186 O   0  0  0  0  0  0  0  0  0  0  0  0
    3.9224    0.9716    2.3835 O   0  0  0  0  0  0  0  0  0  0  0  0
    5.8137    0.2819    6.5188 H   0  0  0  0  0  0  0  0  0  0  0  0
    5.6859    1.5277    4.3950 H   0  0  0  0  0  0  0  0  0  0  0  0
    2.6152   -2.2661    5.2439 H   0  0  0  0  0  0  0  0  0  0  0  0
   -0.2238    0.5653    3.1909 H   0  0  0  0  0  0  0  0  0  0  0  0
   -1.6615   -0.4412    3.3068 H   0  0  0  0  0  0  0  0  0  0  0  0
   -1.2758   -1.1575    1.0621 H   0  0  0  0  0  0  0  0  0  0  0  0
    0.1580   -0.1365    1.0202 H   0  0  0  0  0  0  0  0  0  0  0  0
    0.5859   -0.9614    4.8564 H   0  0  0  0  0  0  0  0  0  0  0  0
   -0.4516   -2.2646    4.2784 H   0  0  0  0  0  0  0  0  0  0  0  0
   -0.0228   -3.0843    1.7379 H   0  0  0  0  0  0  0  0  0  0  0  0
    1.2829   -2.2547    0.8764 H   0  0  0  0  0  0  0  0  0  0  0  0
    1.7220   -2.9348    3.4039 H   0  0  0  0  0  0  0  0  0  0  0  0
    6.5569   -2.5783    5.5942 H   0  0  0  0  0  0  0  0  0  0  0  0
    7.1080   -2.4965    7.2726 H   0  0  0  0  0  0  0  0  0  0  0  0
    7.0016   -4.0620    6.4551 H   0  0  0  0  0  0  0  0  0  0  0  0
    4.4973    2.4226    1.1103 H   0  0  0  0  0  0  0  0  0  0  0  0
    5.8350    1.7620    2.0908 H   0  0  0  0  0  0  0  0  0  0  0  0
    4.6478    2.8806    2.8292 H   0  0  0  0  0  0  0  0  0  0  0  0
    5.0629   -3.8114    7.9854 H   0  0  0  0  0  0  0  0  0  0  0  0
    4.4931   -3.8298    6.3155 H   0  0  0  0  0  0  0  0  0  0  0  0
    4.9126   -1.3285    8.0157 H   0  0  0  0  0  0  0  0  0  0  0  0
    3.0754   -2.7757    8.4984 H   0  0  0  0  0  0  0  0  0  0  0  0
  1  2  1  0  0  0  0
  1  4  2  0  0  0  0
  1 19  1  0  0  0  0
  2  5  2  0  0  0  0
  2 20  1  0  0  0  0
  3  4  1  0  0  0  0
  3  6  2  0  0  0  0
  3 21  1  0  0  0  0
  4 15  1  0  0  0  0
  5  6  1  0  0  0  0
  5 18  1  0  0  0  0
  6 17  1  0  0  0  0
  7  8  1  0  0  0  0
  7  9  1  0  0  0  0
  7 22  1  0  0  0  0
  7 23  1  0  0  0  0
  8 10  1  0  0  0  0
  8 24  1  0  0  0  0
  8 25  1  0  0  0  0
  9 11  1  0  0  0  0
  9 26  1  0  0  0  0
  9 27  1  0  0  0  0
 10 11  1  0  0  0  0
 10 28  1  0  0  0  0
 10 29  1  0  0  0  0
 11 17  1  0  0  0  0
 11 30  1  0  0  0  0
 12 14  1  0  0  0  0
 12 31  1  0  0  0  0
 12 32  1  0  0  0  0
 12 33  1  0  0  0  0
 13 18  1  0  0  0  0
 13 34  1  0  0  0  0
 13 35  1  0  0  0  0
 13 36  1  0  0  0  0
 14 15  1  0  0  0  0
 14 37  1  0  0  0  0
 14 38  1  0  0  0  0
 15 16  1  0  0  0  0
 15 39  1  0  0  0  0
 16 40  1  0  0  0  0
M  END
$$$$
