
  -OEChem-05262117483D

 24 24  0     1  0  0  0  0  0999 V2000
    0.4637    1.5893   -0.3863 C   0  0  0  0  0  0  0  0  0  0  0  0
    0.7891    0.3084   -0.0482 C   0  0  0  0  0  0  0  0  0  0  0  0
    1.4924    2.5501   -0.7256 C   0  0  0  0  0  0  0  0  0  0  0  0
   -1.6215    0.1223   -0.1907 C   0  0  0  0  0  0  0  0  0  0  0  0
   -0.3645   -0.5675    0.3735 C   0  0  1  0  0  0  0  0  0  0  0  0
   -1.3598   -2.9215    0.4501 C   0  0  0  0  0  0  0  0  0  0  0  0
    2.0299    4.7718   -1.3182 C   0  0  0  0  0  0  0  0  0  0  0  0
   -0.2212   -2.0331   -0.0621 C   0  0  0  0  0  0  0  0  0  0  0  0
    2.6997    2.2625   -0.7660 O   0  0  0  0  0  0  0  0  0  0  0  0
    2.0263   -0.2007   -0.0116 O   0  0  0  0  0  0  0  0  0  0  0  0
    1.0298    3.7861   -0.9863 O   0  0  0  0  0  0  0  0  0  0  0  0
   -1.2859    1.9388   -0.2723 S   0  0  0  0  0  0  0  0  0  0  0  0
   -1.8227   -0.2362   -1.2057 H   0  0  0  0  0  0  0  0  0  0  0  0
   -2.5058   -0.0420    0.4260 H   0  0  0  0  0  0  0  0  0  0  0  0
   -0.3962   -0.5294    1.4743 H   0  0  0  0  0  0  0  0  0  0  0  0
   -1.4217   -2.8917    1.5442 H   0  0  0  0  0  0  0  0  0  0  0  0
   -1.2035   -3.9634    0.1536 H   0  0  0  0  0  0  0  0  0  0  0  0
   -2.3313   -2.6084    0.0528 H   0  0  0  0  0  0  0  0  0  0  0  0
    1.4773    5.6946   -1.4914 H   0  0  0  0  0  0  0  0  0  0  0  0
    2.5744    4.4728   -2.2166 H   0  0  0  0  0  0  0  0  0  0  0  0
    2.7341    4.8920   -0.4918 H   0  0  0  0  0  0  0  0  0  0  0  0
   -0.1763   -2.0748   -1.1575 H   0  0  0  0  0  0  0  0  0  0  0  0
    0.7393   -2.4105    0.3021 H   0  0  0  0  0  0  0  0  0  0  0  0
    2.6380    0.5377   -0.2745 H   0  0  0  0  0  0  0  0  0  0  0  0
  1  2  2  0  0  0  0
  1  3  1  0  0  0  0
  1 12  1  0  0  0  0
  2  5  1  0  0  0  0
  2 10  1  0  0  0  0
  3  9  2  0  0  0  0
  3 11  1  0  0  0  0
  4  5  1  0  0  0  0
  4 12  1  0  0  0  0
  4 13  1  0  0  0  0
  4 14  1  0  0  0  0
  5  8  1  0  0  0  0
  5 15  1  0  0  0  0
  6  8  1  0  0  0  0
  6 16  1  0  0  0  0
  6 17  1  0  0  0  0
  6 18  1  0  0  0  0
  7 11  1  0  0  0  0
  7 19  1  0  0  0  0
  7 20  1  0  0  0  0
  7 21  1  0  0  0  0
  8 22  1  0  0  0  0
  8 23  1  0  0  0  0
 10 24  1  0  0  0  0
M  END
$$$$
