40
0 1 C15H22O3
C                     5.084881094964    -0.016295901075     5.769107577617
C                     5.013344665331     0.693429795115     4.559420962608
C                     3.291668367284    -1.448257116801     5.029783259041
C                     4.232887037037    -1.087924690411     6.009832513295
C                     4.080388293373     0.338878486873     3.586558866226
C                     3.201558246190    -0.750522041736     3.827531911931
C                    -0.597741876340    -0.452421776088     3.051877582844
C                    -0.345733046286    -0.922633960822     1.588162765794
C                     0.186497702102    -1.432961995667     3.955991971159
C                     0.570412852677    -2.163437397051     1.700208785134
C                     1.283000079926    -1.997937975846     3.042462652416
C                     6.516924486619    -3.086178579760     6.561893135174
C                     4.781033086374     2.068568062503     2.102612763020
C                     5.071323791789    -3.246302735278     7.041446276654
C                     4.343694935165    -1.909347196608     7.273837343319
O                     3.011392541669    -2.142340376979     7.765818328010
O                     2.327343603261    -1.030465152472     2.818609235616
O                     3.922390594142     0.971606718701     2.383532819555
H                     5.813654815900     0.281918195882     6.518761752852
H                     5.685901843261     1.527683430476     4.395023695821
H                     2.615210073789    -2.266084149608     5.243881627344
H                    -0.223787147938     0.565331666641     3.190862405281
H                    -1.661456577068    -0.441236467426     3.306840592303
H                    -1.275807032311    -1.157453696879     1.062133942565
H                     0.157950787672    -0.136476040906     1.020205380043
H                     0.585864271592    -0.961401181645     4.856419449552
H                    -0.451635630424    -2.264555922866     4.278350460991
H                    -0.022805606283    -3.084264820961     1.737888171073
H                     1.282895318713    -2.254742659584     0.876363938504
H                     1.722046547465    -2.934839559704     3.403854338121
H                     6.556863602125    -2.578282029529     5.594211493181
H                     7.107979192882    -2.496506311917     7.272563513229
H                     7.001603286188    -4.062003798641     6.455126028934
H                     4.497324509360     2.422616752939     1.110314485117
H                     5.835008000077     1.762027827812     2.090779550948
H                     4.647825953019     2.880570558171     2.829176624049
H                     5.062937438981    -3.811373983230     7.985362480155
H                     4.493117233029    -3.829761832946     6.315481132012
H                     4.912638299770    -1.328481654659     8.015714423343
H                     3.075408939796    -2.775699684381     8.498384011127
