
  -OEChem-05262117483D

 36 38  0     0  0  0  0  0  0999 V2000
   -5.3374   -0.7799   -4.1948 C   0  0  0  0  0  0  0  0  0  0  0  0
   -7.1233   -2.1582   -4.9338 C   0  0  0  0  0  0  0  0  0  0  0  0
   -6.5138   -0.8992   -4.9415 C   0  0  0  0  0  0  0  0  0  0  0  0
   -4.8115   -1.8701   -3.4998 C   0  0  0  0  0  0  0  0  0  0  0  0
   -5.5226   -3.0898   -3.5515 C   0  0  0  0  0  0  0  0  0  0  0  0
   -2.6457   -1.2942   -6.0091 C   0  0  0  0  0  0  0  0  0  0  0  0
   -1.1657   -1.5099   -5.7736 C   0  0  0  0  0  0  0  0  0  0  0  0
   -5.0543   -5.6247   -3.4720 C   0  0  0  0  0  0  0  0  0  0  0  0
   -3.7698   -4.9559   -3.0274 C   0  0  0  0  0  0  0  0  0  0  0  0
   -2.0560   -1.0722   -4.6347 C   0  0  0  0  0  0  0  0  0  0  0  0
   -5.1091   -4.2998   -2.7530 C   0  0  0  0  0  0  0  0  0  0  0  0
   -7.0894    0.2605   -5.7166 C   0  0  0  0  0  0  0  0  0  0  0  0
   -5.6435   -4.2902   -1.3270 C   0  0  0  0  0  0  0  0  0  0  0  0
   -3.4999   -1.7154   -2.7582 C   0  0  0  0  0  0  0  0  0  0  0  0
   -6.6578   -3.2153   -4.2581 N   0  0  0  0  0  0  0  0  0  0  0  0
   -2.3417   -2.0453   -3.6097 N   0  0  0  0  0  0  0  0  0  0  0  0
   -4.8125    0.1738   -4.1633 H   0  0  0  0  0  0  0  0  0  0  0  0
   -8.0422   -2.3210   -5.4986 H   0  0  0  0  0  0  0  0  0  0  0  0
   -2.9593   -0.4244   -6.5794 H   0  0  0  0  0  0  0  0  0  0  0  0
   -3.2684   -2.1740   -6.1288 H   0  0  0  0  0  0  0  0  0  0  0  0
   -0.8104   -2.5356   -5.7465 H   0  0  0  0  0  0  0  0  0  0  0  0
   -0.4636   -0.7882   -6.1805 H   0  0  0  0  0  0  0  0  0  0  0  0
   -5.2921   -5.6266   -4.5308 H   0  0  0  0  0  0  0  0  0  0  0  0
   -5.3936   -6.5045   -2.9316 H   0  0  0  0  0  0  0  0  0  0  0  0
   -3.2366   -5.3781   -2.1782 H   0  0  0  0  0  0  0  0  0  0  0  0
   -3.1335   -4.5032   -3.7800 H   0  0  0  0  0  0  0  0  0  0  0  0
   -1.9601   -0.0281   -4.3157 H   0  0  0  0  0  0  0  0  0  0  0  0
   -6.3861    0.6167   -6.4780 H   0  0  0  0  0  0  0  0  0  0  0  0
   -8.0157   -0.0231   -6.2244 H   0  0  0  0  0  0  0  0  0  0  0  0
   -7.3137    1.1075   -5.0586 H   0  0  0  0  0  0  0  0  0  0  0  0
   -5.3323   -5.1917   -0.7881 H   0  0  0  0  0  0  0  0  0  0  0  0
   -6.7383   -4.2553   -1.3310 H   0  0  0  0  0  0  0  0  0  0  0  0
   -5.2815   -3.4207   -0.7652 H   0  0  0  0  0  0  0  0  0  0  0  0
   -3.4380   -0.6848   -2.3670 H   0  0  0  0  0  0  0  0  0  0  0  0
   -3.4704   -2.3899   -1.9004 H   0  0  0  0  0  0  0  0  0  0  0  0
   -1.5221   -2.1581   -3.0163 H   0  0  0  0  0  0  0  0  0  0  0  0
  1  3  1  0  0  0  0
  1  4  2  0  0  0  0
  1 17  1  0  0  0  0
  2  3  2  0  0  0  0
  2 15  1  0  0  0  0
  2 18  1  0  0  0  0
  3 12  1  0  0  0  0
  4  5  1  0  0  0  0
  4 14  1  0  0  0  0
  5 11  1  0  0  0  0
  5 15  2  0  0  0  0
  6  7  1  0  0  0  0
  6 10  1  0  0  0  0
  6 19  1  0  0  0  0
  6 20  1  0  0  0  0
  7 10  1  0  0  0  0
  7 21  1  0  0  0  0
  7 22  1  0  0  0  0
  8  9  1  0  0  0  0
  8 11  1  0  0  0  0
  8 23  1  0  0  0  0
  8 24  1  0  0  0  0
  9 11  1  0  0  0  0
  9 25  1  0  0  0  0
  9 26  1  0  0  0  0
 10 16  1  0  0  0  0
 10 27  1  0  0  0  0
 11 13  1  0  0  0  0
 12 28  1  0  0  0  0
 12 29  1  0  0  0  0
 12 30  1  0  0  0  0
 13 31  1  0  0  0  0
 13 32  1  0  0  0  0
 13 33  1  0  0  0  0
 14 16  1  0  0  0  0
 14 34  1  0  0  0  0
 14 35  1  0  0  0  0
 16 36  1  0  0  0  0
M  END
$$$$
