37
1 1 C14H21N2
C                    -3.129294330186    -2.893403846378    -1.696093209921
C                    -3.118804122249    -2.726066052959     0.669658244627
C                    -3.651342476058    -3.336522475431    -0.482741577052
C                    -2.124888255449    -1.911952214305    -1.728082004057
C                    -1.597086783816    -1.441347358914    -0.511042820962
C                    -4.141871350857     0.710114593814    -1.896458635842
C                    -4.593074654084     1.246872643743    -3.237665864686
C                     0.775728228684    -1.012330566969     0.340685166664
C                     0.857470084247    -0.809897571601    -1.155222574632
C                    -3.197063250918     0.707532833455    -3.063624364402
C                    -0.430841051003    -0.494381951656    -0.407389446348
C                    -4.696633237184    -4.417702648831    -0.386338067810
C                    -0.808656555790     0.961765509571    -0.176590340528
C                    -1.693928255992    -1.366581090884    -3.059198066915
N                    -2.125122760330    -1.839127777925     0.659991230051
N                    -2.847538004321    -0.586267711006    -3.713640879204
H                    -3.501983922880    -3.329436279279    -2.625197214119
H                    -3.512899007200    -2.988851820330     1.651225549546
H                    -3.920029908146     1.405665976786    -1.094757463597
H                    -4.549627818643    -0.238888738383    -1.563133202323
H                    -5.310709972626     0.657459603941    -3.803008125455
H                    -4.689362797402     2.318325788579    -3.377175302825
H                     0.742028070158    -2.031467734019     0.711353910967
H                     1.298416160387    -0.314724203676     0.987497735709
H                     1.443985852362     0.022937366117    -1.534642724642
H                     0.906669726855    -1.708641451532    -1.765244987123
H                    -2.348997741101     1.382711073737    -3.080492358960
H                    -4.228313596535    -5.390275983792    -0.198974605333
H                    -5.390130925735    -4.226177117631     0.437055284823
H                    -5.276715517485    -4.502876996495    -1.309239892845
H                     0.084318525237     1.569875417413    -0.005968102916
H                    -1.452096567345     1.051119992067     0.704160440010
H                    -1.339672202175     1.390380862393    -1.033713316276
H                    -0.861857921134    -0.670454836249    -2.980464425042
H                    -1.439976747604    -2.154433663774    -3.774666859872
H                    -3.677102838548    -1.191023148635    -3.719134426581
H                    -2.616679307856    -0.408013007606    -4.699054593347
