40
0 1 C15H22O3
C                     4.629387503377    -0.155450118429     5.916759592500
C                     4.446607435225     0.575462124035     4.735278810749
C                     2.372806656792    -0.975667550531     5.769393301560
C                     3.602685054878    -0.938188257079     6.445877799911
C                     3.216602569077     0.539595730970     4.069711598096
C                     2.169782443478    -0.250416747498     4.599432326679
C                    -0.317651770758     2.402567625454     3.231388780488
C                    -1.000458449788     1.233882602663     2.465883943299
C                     0.032059815009     1.843888981085     4.637218108988
C                    -1.310995115443     0.175102706970     3.542977572148
C                    -0.157796469014     0.324507113353     4.532130341335
C                     4.332733918264    -4.100837156031     8.611265204400
C                     3.959874205680     2.024655053691     2.355299707211
C                     4.029179698278    -3.253253890698     7.372124072542
C                     3.815461660220    -1.771128490479     7.694530918589
O                     2.687214655917    -1.697890660861     8.584030294903
O                     0.984049130161    -0.318758518436     3.909478654326
O                     2.925956838672     1.232902905142     2.927432306446
H                     5.590555439583    -0.108522111875     6.424478603776
H                     5.263638484963     1.177296143620     4.353219706907
H                     1.561453350435    -1.585029142397     6.157650451692
H                     0.583522006255     2.731137639720     2.709378497246
H                    -0.981827660106     3.268586170657     3.314527235253
H                    -1.897340377369     1.551090287906     1.925391193456
H                    -0.305397508255     0.810757738574     1.736213796169
H                     1.040186619383     2.107121580401     4.967166910351
H                    -0.663502003337     2.225048996971     5.393966089944
H                    -2.248858849306     0.408109931704     4.061498937123
H                    -1.381623344688    -0.843050068757     3.150865704710
H                    -0.347636062787    -0.150422638588     5.502295459603
H                     5.247352310165    -3.757251272737     9.109263029228
H                     3.514603836252    -4.041892979677     9.333570114943
H                     4.476639628375    -5.151727395228     8.338323171662
H                     3.529152939230     2.473820506063     1.459241893760
H                     4.824979502144     1.411397929080     2.073513763298
H                     4.284083005964     2.819296081176     3.039400785449
H                     3.130344461194    -3.625584203817     6.866507344738
H                     4.849866113683    -3.325048638187     6.649371620957
H                     4.712525291379    -1.396258692968     8.212655480032
H                     2.496085240319    -0.758605932726     8.734708049824
