
  -OEChem-05262117483D

 44 46  0     1  0  0  0  0  0999 V2000
    3.2295   -5.0293    0.6543 C   0  0  0  0  0  0  0  0  0  0  0  0
   -1.6164   -0.6160   -0.6764 C   0  0  0  0  0  0  0  0  0  0  0  0
    2.7616   -3.7193    0.5369 C   0  0  0  0  0  0  0  0  0  0  0  0
   -2.6180    0.3549   -0.7309 C   0  0  0  0  0  0  0  0  0  0  0  0
    2.6769   -5.8960    1.6020 C   0  0  0  0  0  0  0  0  0  0  0  0
   -1.0524    1.9314    0.2433 C   0  0  0  0  0  0  0  0  0  0  0  0
    1.1813   -4.1044    2.3142 C   0  0  0  0  0  0  0  0  0  0  0  0
   -0.3542   -0.3465   -0.1349 C   0  0  0  0  0  0  0  0  0  0  0  0
    1.7396   -3.2366    1.3707 C   0  0  0  0  0  0  0  0  0  0  0  0
   -0.0561    0.9601    0.3180 C   0  0  0  0  0  0  0  0  0  0  0  0
   -2.3333    1.6412   -0.2560 C   0  0  0  0  0  0  0  0  0  0  0  0
    1.6495   -5.4167    2.4140 C   0  0  0  0  0  0  0  0  0  0  0  0
    0.5930   -1.5028   -0.0682 C   0  0  0  0  0  0  0  0  0  0  0  0
    1.3332    1.3787    0.7599 C   0  0  0  0  0  0  0  0  0  0  0  0
    1.9331    0.6126    1.9480 C   0  0  0  0  0  0  0  0  0  0  0  0
    2.3971   -0.8107    1.6294 C   0  0  0  0  0  0  0  0  0  0  0  0
    1.2588   -1.8044    1.2887 C   0  0  2  0  0  0  0  0  0  0  0  0
   -4.5254    2.4488   -0.7705 C   0  0  0  0  0  0  0  0  0  0  0  0
   -0.4331   -7.3030    2.6587 C   0  0  0  0  0  0  0  0  0  0  0  0
    0.7430   -2.2417   -1.0324 O   0  0  0  0  0  0  0  0  0  0  0  0
    1.8653   -7.5723    3.9548 O   0  0  0  0  0  0  0  0  0  0  0  0
    0.2563   -5.7026    4.6581 O   0  0  0  0  0  0  0  0  0  0  0  0
   -3.2182    2.6800   -0.2491 O   0  0  0  0  0  0  0  0  0  0  0  0
    0.8920   -6.5222    3.6128 S   0  0  0  0  0  0  0  0  0  0  0  0
    4.0292   -5.3783    0.0069 H   0  0  0  0  0  0  0  0  0  0  0  0
   -1.8174   -1.6152   -1.0516 H   0  0  0  0  0  0  0  0  0  0  0  0
    3.1922   -3.0655   -0.2144 H   0  0  0  0  0  0  0  0  0  0  0  0
   -3.5894    0.1005   -1.1388 H   0  0  0  0  0  0  0  0  0  0  0  0
    3.0422   -6.9109    1.7265 H   0  0  0  0  0  0  0  0  0  0  0  0
   -0.8520    2.9516    0.5594 H   0  0  0  0  0  0  0  0  0  0  0  0
    0.3999   -3.7656    2.9894 H   0  0  0  0  0  0  0  0  0  0  0  0
    2.0159    1.2885   -0.0962 H   0  0  0  0  0  0  0  0  0  0  0  0
    1.3026    2.4430    1.0106 H   0  0  0  0  0  0  0  0  0  0  0  0
    2.8021    1.1751    2.3088 H   0  0  0  0  0  0  0  0  0  0  0  0
    1.2121    0.5910    2.7747 H   0  0  0  0  0  0  0  0  0  0  0  0
    3.1237   -0.7895    0.8079 H   0  0  0  0  0  0  0  0  0  0  0  0
    2.9255   -1.2133    2.4997 H   0  0  0  0  0  0  0  0  0  0  0  0
    0.4778   -1.6609    2.0451 H   0  0  0  0  0  0  0  0  0  0  0  0
   -5.0564    3.3962   -0.6720 H   0  0  0  0  0  0  0  0  0  0  0  0
   -5.0513    1.6755   -0.1978 H   0  0  0  0  0  0  0  0  0  0  0  0
   -4.4869    2.1608   -1.8278 H   0  0  0  0  0  0  0  0  0  0  0  0
   -0.9361   -7.9913    3.3415 H   0  0  0  0  0  0  0  0  0  0  0  0
   -1.1216   -6.5305    2.3136 H   0  0  0  0  0  0  0  0  0  0  0  0
    0.0071   -7.8446    1.8206 H   0  0  0  0  0  0  0  0  0  0  0  0
  1  3  1  0  0  0  0
  1  5  2  0  0  0  0
  1 25  1  0  0  0  0
  2  4  2  0  0  0  0
  2  8  1  0  0  0  0
  2 26  1  0  0  0  0
  3  9  2  0  0  0  0
  3 27  1  0  0  0  0
  4 11  1  0  0  0  0
  4 28  1  0  0  0  0
  5 12  1  0  0  0  0
  5 29  1  0  0  0  0
  6 10  1  0  0  0  0
  6 11  2  0  0  0  0
  6 30  1  0  0  0  0
  7  9  1  0  0  0  0
  7 12  2  0  0  0  0
  7 31  1  0  0  0  0
  8 10  2  0  0  0  0
  8 13  1  0  0  0  0
  9 17  1  0  0  0  0
 10 14  1  0  0  0  0
 11 23  1  0  0  0  0
 12 24  1  0  0  0  0
 13 17  1  0  0  0  0
 13 20  2  0  0  0  0
 14 15  1  0  0  0  0
 14 32  1  0  0  0  0
 14 33  1  0  0  0  0
 15 16  1  0  0  0  0
 15 34  1  0  0  0  0
 15 35  1  0  0  0  0
 16 17  1  0  0  0  0
 16 36  1  0  0  0  0
 16 37  1  0  0  0  0
 17 38  1  0  0  0  0
 18 23  1  0  0  0  0
 18 39  1  0  0  0  0
 18 40  1  0  0  0  0
 18 41  1  0  0  0  0
 19 24  1  0  0  0  0
 19 42  1  0  0  0  0
 19 43  1  0  0  0  0
 19 44  1  0  0  0  0
 21 24  2  0  0  0  0
 22 24  2  0  0  0  0
M  END
$$$$
