24   
torsion grid (-75,)
C        2.2301985753   -5.4865903420    2.1273092355
C        2.4282651165   -5.4521634859    0.7244822200
C        2.7166965290   -4.4333712718    2.9651419968
C        2.8444788100   -4.2439307704    0.0783250680
C        6.9608558877   -0.3473075948    2.2972288877
C        6.8873483841   -1.9513511022    0.6988657881
C        5.8345883988   -0.8646727739    2.9317596957
C        3.5004865306   -3.5485708503    2.2118466832
C        2.8178270410   -3.2065202047    1.0119483801
C        5.2951696203   -2.0033403666    2.3044359923
C        5.2280968729   -0.2683410127    4.1716861395
N        7.5026022170   -0.8729611649    1.1818147296
N        5.8014995880   -2.5511620468    1.2102377008
O        4.2048642475   -2.5706322220    2.9027166958
F        2.9611848936   -1.9233211351    0.5773324231
H        1.7616586856   -6.3589708450    2.5730058664
H        2.2070471135   -6.3383949555    0.1369386964
H        2.7918817266   -4.5164529462    4.0449390977
H        2.8183248937   -4.0868199258   -0.9946018993
H        7.4518399468    0.5372512752    2.7022139212
H        7.3041018128   -2.3985816140   -0.2014146157
H        4.1860319673    0.0187315862    3.9981077241
H        5.2294505868   -0.9881529361    4.9967062781
H        5.7847433229    0.6185846310    4.4860329506
24   
torsion grid (-60,)
C        2.2812407956   -5.5303381412    2.1372922420
C        2.3312012228   -5.4687765497    0.7292654420
C        2.8283622581   -4.4866385300    2.9186247788
C        2.6937716435   -4.2641439985    0.0819847450
C        6.9915541151   -0.3495343083    2.3503888637
C        6.9359247578   -1.9575526945    0.7555998647
C        5.8374614158   -0.8417371181    2.9533212243
C        3.4960784368   -3.5042169536    2.1749444496
C        2.8424410486   -3.1925162416    0.9652577971
C        5.2950884250   -1.9724819656    2.3135012598
C        5.2062383577   -0.2300514988    4.1732984556
N        7.5569374257   -0.8894787935    1.2532800104
N        5.8232726151   -2.5337010354    1.2365446209
O        4.1743190517   -2.5137773484    2.8774163553
F        2.9998404097   -1.9391867687    0.4672557282
H        1.8681925597   -6.4095641561    2.6227153137
H        2.0515094044   -6.3387669714    0.1423782653
H        2.9738653394   -4.5714486204    3.9911715888
H        2.5962474621   -4.1090121072   -0.9875362104
H        7.4874969382    0.5268238304    2.7669797740
H        7.3703145818   -2.4163367337   -0.1304429271
H        4.1754769990    0.0766835465    3.9684623083
H        5.1688728321   -0.9474088606    4.9996723857
H        5.7705339416    0.6467478282    4.5021164474
24   
torsion grid (-45,)
C        2.3465374151   -5.5601417136    2.1202436492
C        2.2482629154   -5.4565967452    0.7228632355
C        2.9386611768   -4.5274782562    2.8707976866
C        2.5650788234   -4.2473632194    0.0749734897
C        7.0169588472   -0.3602852831    2.3871981221
C        6.9833669134   -1.9888092821    0.8124140776
C        5.8363802948   -0.8239305152    2.9602812859
C        3.4818480782   -3.4651732207    2.1457527401
C        2.8692979125   -3.1804520344    0.9160547677
C        5.2950698125   -1.9542132490    2.3182187483
C        5.1777137400   -0.1853325704    4.1516254478
N        7.6070254461   -0.9249118945    1.3155068758
N        5.8461240468   -2.5390772496    1.2657759083
O        4.1468415189   -2.4673097972    2.8522725165
F        3.0273207261   -1.9430068756    0.3868212473
H        2.0006446375   -6.4596296089    2.6209722613
H        1.8988864312   -6.3047288317    0.1412170111
H        3.1599124878   -4.6370875888    3.9278985974
H        2.3815277414   -4.0848969457   -0.9822256103
H        7.5150183184    0.5131136071    2.8074824481
H        7.4367669688   -2.4669380960   -0.0536673886
H        4.1586670714    0.1341255148    3.9107582133
H        5.1033405759   -0.8902559013    4.9861953890
H        5.7453796949    0.6872404687    4.4858780650
24   
torsion grid (-30,)
C        2.4198002775   -5.5985589477    2.1076861554
C        2.1744909643   -5.4500868724    0.7365161399
C        3.0536942778   -4.5750831730    2.8268006266
C        2.4401526241   -4.2291793520    0.0983408017
C        7.0332950283   -0.3711341532    2.4315254449
C        7.0234567939   -2.0232057743    0.8808247575
C        5.8296098249   -0.8103559916    2.9747708997
C        3.4716886443   -3.4406821142    2.1334815954
C        2.8866771836   -3.1775693846    0.8901071704
C        5.2919014354   -1.9432988391    2.3339081779
C        5.1438227632   -0.1450685865    4.1356892925
N        7.6470092927   -0.9606663449    1.3866149499
N        5.8653478622   -2.5514981876    1.3074044428
O        4.1191153604   -2.4306445569    2.8384497668
F        3.0499236754   -1.9505302885    0.3421785474
H        2.1459400724   -6.5203227685    2.6124244729
H        1.7579279119   -6.2750301703    0.1658689996
H        3.3420823691   -4.7004270120    3.8660011342
H        2.1835056107   -4.0517616402   -0.9413541832
H        7.5307860037    0.5016959895    2.8537162843
H        7.4956463626   -2.5205235536    0.0358498066
H        4.1373130775    0.1846856001    3.8586915986
H        5.0335315655   -0.8364986468    4.9775450480
H        5.7133289286    0.7244421030    4.4747776845
24   
torsion grid (-15,)
C        2.5105040284   -5.6543602574    2.1003042408
C        2.1165468838   -5.4694590520    0.7712866618
C        3.1767144046   -4.6304090475    2.7831094640
C        2.3247336410   -4.2368568078    0.1404905642
C        7.0460174569   -0.3967272933    2.4642427777
C        7.0552133420   -2.0713225052    0.9376766844
C        5.8226440258   -0.8120252563    2.9813714225
C        3.4619885744   -3.4367995189    2.1255273314
C        2.8973758043   -3.2023867996    0.8694300215
C        5.2871246316   -1.9476217244    2.3429377095
C        5.1151236489   -0.1211594646    4.1138719290
N        7.6792714574   -1.0098267558    1.4446096197
N        5.8789809320   -2.5782099091    1.3410300183
O        4.0930633288   -2.4102566533    2.8208909621
F        3.0537375584   -1.9848057143    0.3016424652
H        2.3159434213   -6.5975746217    2.6021259804
H        1.6376146135   -6.2769823971    0.2252332892
H        3.5361690807   -4.7651109871    3.7989817243
H        1.9924120326   -4.0482309837   -0.8758254506
H        7.5440627113    0.4755179463    2.8869954871
H        7.5426783488   -2.5871610536    0.1127007409
H        4.1221132510    0.2204434638    3.8043864020
H        4.9701007159   -0.7999139549    4.9607461206
H        5.6885921672    0.7437640819    4.4579843325
24   
torsion grid (0,)
C        2.5947896173   -5.6817097241    2.0628021708
C        2.0606754255   -5.4541592757    0.7911569622
C        3.2938475840   -4.6650959846    2.7221704804
C        2.2181018507   -4.2083678492    0.1729510980
C        7.0605875395   -0.4164551757    2.4972222858
C        7.0961634902   -2.1187531437    1.0023292742
C        5.8174060395   -0.8078536184    2.9846614171
C        3.4507449214   -3.4245138518    2.1117231328
C        2.9109582046   -3.2086469172    0.8425792916
C        5.2878289870   -1.9491237906    2.3511735294
C        5.0842265340   -0.0878348892    4.0821221446
N        7.7172212328   -1.0553617229    1.5085683077
N        5.9021577160   -2.6045952562    1.3793581038
O        4.0738783985   -2.3891208170    2.8011436471
F        3.0653644532   -1.9951895437    0.2662331163
H        2.4722331868   -6.6483983020    2.5422219728
H        1.5192280893   -6.2424056909    0.2761696083
H        3.7216729925   -4.8185281412    3.7084442918
H        1.8134908064   -4.0023023555   -0.8133094464
H        7.5561314416    0.4576947619    2.9189521398
H        7.6017514239   -2.6551336266    0.2017141740
H        4.1051791647    0.2590141402    3.7361474224
H        4.9054034715   -0.7487839015    4.9365847104
H        5.6572636914    0.7768870981    4.4274674897
24   
torsion grid (15,)
C        2.6562271414   -5.6977057534    2.0265473641
C        1.9956184580   -5.4325953896    0.8225709777
C        3.3902389941   -4.6884123678    2.6592227462
C        2.1156842388   -4.1776363739    0.2138428254
C        7.0619527192   -0.4294145632    2.5242150770
C        7.1224409692   -2.1564084966    1.0589548369
C        5.8029804635   -0.8020386877    2.9850021445
C        3.4318152393   -3.4139854023    2.0993350372
C        2.9250379857   -3.2201084267    0.8129471624
C        5.2802183321   -1.9491303882    2.3563056238
C        5.0475769272   -0.0579062614    4.0508748259
N        7.7389828780   -1.0898827342    1.5638647620
N        5.9145248733   -2.6256767703    1.4123925707
O        4.0501873003   -2.3710147755    2.7811415058
F        3.0879239476   -2.0143980758    0.2226205710
H        2.5931866123   -6.6827363997    2.4793876770
H        1.3928087888   -6.2019006243    0.3487636981
H        3.8793820513   -4.8557786918    3.6142823497
H        1.6483784921   -3.9546582313   -0.7405343863
H        7.5538902419    0.4473532469    2.9447217492
H        7.6440990821   -2.7101568965    0.2807786913
H        4.0811773360    0.2915520105    3.6734158206
H        4.8401841428   -0.7032261826    4.9108042089
H        5.6190857687    0.8073896608    4.3972880904
24   
torsion grid (30,)
C        2.7351956595   -5.7037637435    1.9757196737
C        1.9483675084   -5.4017413488    0.8561335471
C        3.5081198290   -4.7044731406    2.5834178350
C        2.0211090491   -4.1349162912    0.2579588147
C        7.0779121329   -0.4529940282    2.5575035751
C        7.1591700139   -2.2020257944    1.1193189739
C        5.8010976603   -0.8024513490    2.9858303612
C        3.4242123101   -3.4069984324    2.0808440066
C        2.9429272264   -3.2336787725    0.7808141914
C        5.2828899273   -1.9524409783    2.3583268450
C        5.0233117648   -0.0328406531    4.0169101405
N        7.7744643940   -1.1364361754    1.6274546097
N        5.9351488670   -2.6506609514    1.4432282396
O        4.0344878430   -2.3510647091    2.7510031812
F        3.1167318512   -2.0345810092    0.1785946210
H        2.7286930757   -6.7077606821    2.3896986524
H        1.2903109758   -6.1563289297    0.4349133192
H        4.0588499701   -4.8874891142    3.5009968019
H        1.4904441249   -3.8962999503   -0.6584348955
H        7.5687725879    0.4235344678    2.9797365201
H        7.6960751922   -2.7735109784    0.3646803143
H        4.0748710742    0.3253703795    3.6037452044
H        4.7785838349   -0.6632907147    4.8780302125
H        5.5963149298    0.8287353787    4.3700599578
24   
torsion grid (45,)
C        2.7915378876   -5.7118316169    1.9297338778
C        1.8908896802   -5.3768398809    0.9045000753
C        3.6015322504   -4.7198062811    2.5074914269
C        1.9272911069   -4.0986126459    0.3195838291
C        7.0677768243   -0.4654437844    2.5875469663
C        7.1750954187   -2.2397513315    1.1826841890
C        5.7768141836   -0.7985731255    2.9852559401
C        3.3982972593   -3.4058826269    2.0745282908
C        2.9544012810   -3.2603636487    0.7547201481
C        5.2666887450   -1.9555786191    2.3637879401
C        4.9766906298   -0.0060657659    3.9812020612
N        7.7846561254   -1.1703910369    1.6894801675
N        5.9387804340   -2.6736623234    1.4793539108
O        4.0038730261   -2.3371449637    2.7284787579
F        3.1432098330   -2.0690157536    0.1400680015
H        2.8350559462   -6.7312792272    2.3014490929
H        1.1826307863   -6.1159339511    0.5413013249
H        4.2168161577   -4.9135066538    3.3807564043
H        1.3382583126   -3.8370131425   -0.5539021618
H        7.5534430180    0.4145616929    3.0085610047
H        7.7281905924   -2.8280550959    0.4530881836
H        4.0419539624    0.3502048411    3.5363997152
H        4.7049596316   -0.6197364684    4.8463425998
H        5.5455454486    0.8582245051    4.3344007910
24   
torsion grid (60,)
C        2.8733713113   -5.7152432249    1.8680917764
C        1.8418662325   -5.3487771657    0.9775525266
C        3.7360796963   -4.7318118634    2.4031828351
C        1.8071111151   -4.0508589032    0.4150321433
C        7.0749900161   -0.5016861797    2.6357245720
C        7.2149016447   -2.3080333266    1.2752396634
C        5.7641314452   -0.8084765383    2.9862612714
C        3.3835229651   -3.4187838578    2.0633054157
C        2.9369901684   -3.2921092761    0.7357639005
C        5.2634244773   -1.9722480332    2.3690065952
C        4.9342524634    0.0174360401    3.9292169633
N        7.8183281206   -1.2363775930    1.7838639716
N        5.9608710550   -2.7182603991    1.5288933926
O        3.9784499319   -2.3232398092    2.6840631999
F        3.1320328638   -2.1033335540    0.1144765837
H        2.9701097360   -6.7510434460    2.1797744331
H        1.0934334444   -6.0826256113    0.6926099321
H        4.4319376232   -4.9392145403    3.2095834295
H        1.1422676537   -3.7701146753   -0.3954693104
H        7.5555843314    0.3806826718    3.0575516992
H        7.7888274392   -2.9195994976    0.5817334372
H        4.0257376943    0.3779033885    3.4360729014
H        4.6149876606   -0.5731919415    4.7941193527
H        5.5009375431    0.8805268568    4.2887494127
24   
torsion grid (75,)
C        2.9383787670   -5.7042042925    1.8166553523
C        1.7962052391   -5.3050059872    1.0780776500
C        3.8841677363   -4.7376284353    2.2871099129
C        1.6990082487   -3.9844707986    0.5270408371
C        7.0817970185   -0.5151689127    2.6965426777
C        7.2769039003   -2.3387707618    1.3663382227
C        5.7541913660   -0.8117678312    2.9877087176
C        3.3976668135   -3.4472905186    2.0429291141
C        2.9278440921   -3.3452203381    0.7075536165
C        5.2771274242   -1.9809682149    2.3616991409
C        4.8848401708    0.0292165533    3.8803494792
N        7.8610314661   -1.2638618692    1.8901762024
N        6.0099943501   -2.7398065951    1.5647806691
O        3.9734266609   -2.3145149070    2.6137965067
F        3.1638275659   -2.1716863079    0.0660295645
H        3.0549459688   -6.7511052932    2.0809268856
H        1.0146931070   -6.0337401133    0.8828982852
H        4.6493134020   -4.9622084513    3.0220655109
H        0.9690613097   -3.6921150281   -0.2205665367
H        7.5465267428    0.3696934065    3.1306915555
H        7.8796937671   -2.9612408784    0.7079062865
H        4.0043155340    0.3906166948    3.3394515192
H        4.5191277892   -0.5506623432    4.7340275157
H        5.4392641031    0.8921099940    4.2589158797
