24   
torsion grid (-165,)
C        0.3137225673   -2.8388979148    1.7630831702
C        0.6400717702   -0.6303855977    0.7146894410
C       -0.4183570734   -0.0162557676    5.5591040724
C       -0.8934051680   -2.9975649966    4.0501196033
C        0.3302237908   -2.6261153612    4.8937626472
C       -0.5335234830   -3.7063826357    2.7291500446
N        0.0957416579   -4.9976677503    3.0098765923
N       -0.0071067655   -1.5124303773    1.6795765628
O        1.2372864134   -3.3260696573    1.1101822082
S       -0.0609593890   -1.6134918303    6.3681218401
H        0.4835170180    0.4075030794    1.0181644931
H        0.2467618751   -0.7734442549   -0.2988414990
H        1.7099078580   -0.8441581412    0.6978901944
H       -0.5600236325    0.7193375124    6.3545181439
H       -1.3319687632   -0.0534007870    4.9586425034
H        0.4225159821    0.2992560464    4.9342370632
H       -1.5354798486   -3.6693221441    4.6259913211
H       -1.4921719607   -2.1028813808    3.8470979294
H        1.0793151437   -2.0918052762    4.2996468287
H        0.8048520432   -3.5272522292    5.2921984650
H       -1.4763835640   -3.9124895837    2.2051985444
H        1.0378863034   -4.8297525727    3.3623131104
H        0.2514073998   -5.4724550232    2.1211069268
H       -0.8409881078   -1.1841276095    2.1450607869
24   
torsion grid (-150,)
C        0.2225405550   -2.8552832267    1.6861022697
C        0.6664290626   -0.6114363713    0.7668258772
C       -0.4461031790   -0.0092754487    5.4926221970
C       -0.8961431836   -3.0244210464    4.0449209050
C        0.3162955240   -2.6318666969    4.8980250536
C       -0.5296468500   -3.7261165209    2.7250646580
N        0.1824940895   -4.9780930497    3.0008505636
N        0.0883106058   -1.4985642550    1.7701032096
O        0.9158297470   -3.3856068078    0.8159889207
S       -0.0965757509   -1.5863059005    6.3430610238
H        0.7261784684    0.3998181675    1.1763039853
H        0.0708857544   -0.5935849040   -0.1535070973
H        1.6695145389   -0.9603997518    0.5164127134
H       -0.6126770347    0.7417740825    6.2684776976
H       -1.3466981536   -0.0645952557    4.8734115600
H        0.4074802052    0.3021165345    4.8825987812
H       -1.5272175055   -3.7061062954    4.6214290893
H       -1.5187416852   -2.1457167838    3.8408146595
H        1.0772030729   -2.1133151471    4.3049487769
H        0.7826588335   -3.5243985320    5.3243535393
H       -1.4730938016   -3.9993466421    2.2345774184
H        1.1051572817   -4.7563323767    3.3747447987
H        0.3764001443   -5.4254866914    2.1048226774
H       -0.5661114584   -1.1110508569    2.4334334156
24   
torsion grid (-135,)
C        0.1379032167   -2.7642201959    1.9390696143
C        0.5990370723   -0.7652062918    0.5752723360
C       -0.7980212498    0.9151816355    4.8947702009
C       -0.9778513714   -2.4060218009    4.2903808117
C        0.1540627664   -1.7077425702    5.0571356736
C       -0.4977459612   -3.3859019739    3.2064398120
N        0.3821115144   -4.4035941196    3.7986533328
N        0.0951224061   -1.4078660259    1.7840235863
O        0.6899618815   -3.4945128540    1.1130147889
S       -0.4121318510   -0.3523963448    6.1501378531
H        1.5472514416   -1.2260819365    0.2940072029
H        0.7571706549    0.2972350129    0.7755729427
H       -0.0966751765   -0.8747951129   -0.2649014389
H       -1.0734752217    1.8252676257    5.4329918454
H       -1.6431693294    0.6266104739    4.2620058164
H        0.0781336469    1.1310324955    4.2749137579
H       -1.5802311215   -2.9707491478    5.0070846764
H       -1.6585138443   -1.6698319835    3.8467934088
H        0.9218322527   -1.3094832398    4.3851237705
H        0.6447531317   -2.4198300984    5.7261157002
H       -1.3839842211   -3.9147754401    2.8352092942
H        1.2659058210   -3.9676643570    4.0617292126
H        0.6267275233   -5.0640470379    3.0605124079
H       -0.4635589224   -0.8588799853    2.4201985881
24   
torsion grid (-120,)
C        0.0395939751   -2.7831972707    1.8975067147
C        0.6490515489   -0.7939653628    0.5790951799
C       -0.8515518670    0.9227108499    4.8794884467
C       -1.0019405046   -2.4027254030    4.2827848161
C        0.1079833556   -1.6955750325    5.0752767988
C       -0.4998082642   -3.3885558106    3.2130353253
N        0.4779724789   -4.3204797553    3.7997900384
N        0.1888367456   -1.4272654872    1.8102377834
O        0.3840452493   -3.5342580451    0.9821228671
S       -0.4930457262   -0.3395099414    6.1481355027
H        1.4859295522   -1.3656316310    0.1750605562
H        0.9788958687    0.2233710141    0.8032067348
H       -0.1395772008   -0.7591411410   -0.1817601632
H       -1.1632686019    1.8274181672    5.4069378644
H       -1.6659440324    0.6202766073    4.2139979584
H        0.0443302879    1.1563139675    4.2947108581
H       -1.6144925135   -2.9637588192    4.9938149763
H       -1.6765240940   -1.6739915624    3.8180154348
H        0.8974079977   -1.2977007435    4.4282127768
H        0.5814516395   -2.4059919345    5.7578257727
H       -1.3576102666   -3.9924498132    2.8986901852
H        1.3517214063   -3.8255504233    3.9780157118
H        0.7036211035   -5.0195693490    3.0920091829
H       -0.2390021952   -0.8430922448    2.5131885236
24   
torsion grid (-105,)
C        0.0543113687   -2.8502421568    1.5490687625
C        0.9269834125   -0.8003790149    0.5013084302
C       -1.2584712941    0.6114333848    4.7308412159
C       -1.2052963733   -2.6499640993    3.8459161908
C       -0.2414109402   -1.9893448751    4.8440832198
C       -0.5372132365   -3.5511989484    2.7892481329
N        0.4663421508   -4.4268763727    3.4218379176
N        0.3833002721   -1.5247438805    1.6455528786
O        0.3101240860   -3.5097643755    0.5394434903
S       -1.0359486266   -0.7475909699    5.9287832587
H        1.7019503169   -1.4069630656    0.0303666185
H        1.3635535918    0.1389141164    0.8493136745
H        0.1581683322   -0.5859833108   -0.2504942291
H       -1.6860339202    1.4545408612    5.2787617047
H       -1.9479449769    0.3428209863    3.9251587949
H       -0.2968263297    0.9260866643    4.3115755008
H       -1.8993900112   -3.2664364720    4.4236731183
H       -1.8204079027   -1.8975051344    3.3389025060
H        0.6210571454   -1.5173864538    4.3599854359
H        0.1566291711   -2.7479599662    5.5225374899
H       -1.3109076359   -4.2061863997    2.3788445894
H        1.2928191074   -3.8812519275    3.6645267448
H        0.7767462140   -5.1066690871    2.7279284559
H       -0.0080265585   -0.9835737195    2.4025122999
24   
torsion grid (-90,)
C       -0.0924481914   -2.8456751103    1.5195950364
C        0.9522519776   -0.8777264703    0.4725185842
C       -1.4123568784    0.5999280006    4.8343120919
C       -1.2622028714   -2.6230505304    3.8522605929
C       -0.3109440180   -1.9701435442    4.8666025140
C       -0.5934276737   -3.5372349898    2.8017193974
N        0.4718931111   -4.3484357232    3.4211818684
N        0.4653041774   -1.5990742044    1.6442077009
O       -0.0919564388   -3.4501858230    0.4458795168
S       -1.1337627068   -0.7842605351    5.9912667097
H        1.5685394776   -1.5473105920   -0.1293990833
H        1.5569311811   -0.0298411249    0.8031864232
H        0.1308187137   -0.5143184939   -0.1564019352
H       -1.8572366190    1.4138821046    5.4116931973
H       -2.1015598331    0.3319880486    4.0289568960
H       -0.4658807734    0.9538529983    4.4120228409
H       -1.9691337352   -3.2296991921    4.4249595260
H       -1.8599990331   -1.8642617809    3.3348018280
H        0.5401298336   -1.4574318677    4.4028587900
H        0.1100701555   -2.7402697893    5.5174262007
H       -1.3529854867   -4.2345948515    2.4409937651
H        1.2984721242   -3.7727753289    3.5777043741
H        0.7541031989   -5.0725816096    2.7613883872
H        0.2519698740   -1.0600283582    2.4709904127
24   
torsion grid (-75,)
C       -0.1289327088   -2.7968131830    1.4532064706
C        1.2190864870   -1.0594090522    0.3363281915
C       -1.7550942940    0.5176935008    5.1154524702
C       -1.1799647621   -2.4904075432    3.8287173480
C       -0.1923406438   -1.7857700889    4.7656845199
C       -0.5742577792   -3.4480071098    2.7757514842
N        0.4730836566   -4.2982312682    3.3735356622
N        0.7461098522   -1.7453374640    1.5334544721
O       -0.4833474246   -3.2601485343    0.3679734025
S       -0.9962246110   -0.8213564867    6.0984493278
H        1.4914907836   -1.8000655532   -0.4173624819
H        2.0982270994   -0.4624308633    0.5906174653
H        0.4495691557   -0.4059408159   -0.0918567708
H       -2.1507423269    1.2465992012    5.8267342709
H       -2.5767119943    0.1562291773    4.4925092600
H       -1.0065767696    1.0133697523    4.4892621843
H       -1.8417006012   -3.0880527655    4.4623126778
H       -1.8112965894   -1.7573909949    3.3147362415
H        0.4938202590   -1.1041682804    4.2483459054
H        0.4161676304   -2.5287466088    5.2880389281
H       -1.3797029923   -4.1160590001    2.4633732531
H        1.3464385993   -3.7787891099    3.4530590675
H        0.6658139221   -5.0753227572    2.7427874814
H        0.8832307434   -1.2955778220    2.4267530321
24   
torsion grid (-60,)
C        0.7506626802   -2.3478176285    1.3421823816
C        2.4660997825   -0.7340711952    0.6010248748
C       -1.5296744157    0.3818158789    4.9861745235
C       -0.5129398153   -2.4702264466    3.5909777239
C        0.3607608847   -1.6374796208    4.5338912506
C        0.2230963895   -3.2465068675    2.4804630930
N        1.1957076169   -4.1952635887    3.0430385409
N        1.8088964593   -1.5252692007    1.6357054800
O        0.2137019379   -2.3444711235    0.2343363536
S       -0.5675819746   -0.8643592852    5.9122483038
H        3.1458586824   -1.3387381937   -0.0122021339
H        3.0297122702    0.0754098688    1.0715615086
H        1.7037534317   -0.3101416901   -0.0536170873
H       -2.0331421944    1.0069007079    5.7275419832
H       -2.2859752593   -0.0774404121    4.3452378400
H       -0.8696233528    1.0134485338    4.3842111487
H       -1.0585342209   -3.2062366946    4.1892469458
H       -1.2564223491   -1.8257629567    3.1108120390
H        0.8904173224   -0.8430515701    4.0000604604
H        1.1030194547   -2.2678367176    5.0351173041
H       -0.5381688145   -3.8482706321    1.9773502148
H        1.9717441090   -3.7240370376    3.5034549209
H        1.5927515978   -4.7699580447    2.3020552022
H        2.3259295531   -1.7050625529    2.4853276358
24   
torsion grid (-45,)
C        0.6640556299   -2.3085155425    1.3897274216
C        2.4204198858   -0.7697665430    0.5851067755
C       -1.5264733925    0.4040747933    4.8551051236
C       -0.5296815085   -2.5526529000    3.6267114972
C        0.3400930206   -1.6586148030    4.5158517596
C        0.2142087615   -3.2875573903    2.4935190330
N        1.2264675124   -4.2080680348    3.0255721957
N        1.8567550745   -1.6641434802    1.5895301687
O       -0.0612999897   -2.0667688337    0.4249923791
S       -0.5929214965   -0.8122427269    5.8474040433
H        2.9349784729   -1.3177251220   -0.2139607295
H        3.1265317300   -0.0872709822    1.0649604994
H        1.6097990765   -0.1942791565    0.1364681668
H       -2.0456615352    1.0557138403    5.5620101148
H       -2.2685935875   -0.0741018380    4.2114038608
H       -0.8491520866    1.0120728563    4.2482140537
H       -1.0134298721   -3.3095361389    4.2514196111
H       -1.3215550169   -1.9560437952    3.1644008348
H        0.8664337317   -0.8994084495    3.9298474881
H        1.0908042227   -2.2483389752    5.0527736107
H       -0.5345249343   -3.9039862053    1.9876805994
H        1.9202987224   -3.7408270859    3.6047481111
H        1.7160334506   -4.6890322721    2.2743625381
H        2.4802224442   -2.0436309454    2.2891576604
24   
torsion grid (-30,)
C        0.6240200193   -2.1927798839    1.4643945854
C        2.4302557212   -0.7663388692    0.5659428812
C       -1.5608109705    0.3968114324    4.8441263329
C       -0.5344934585   -2.5701987097    3.6736103467
C        0.3287659004   -1.6480272488    4.5403225379
C        0.2183079596   -3.2498503647    2.5123406634
N        1.2557258706   -4.1580123135    3.0103771224
N        1.9115704850   -1.7360386160    1.5221689074
O       -0.2075095992   -1.7380470507    0.6781049406
S       -0.6067255288   -0.7850916736    5.8584351534
H        2.7751619887   -1.2446907386   -0.3589595540
H        3.2614277350   -0.2190392669    1.0181278483
H        1.6320717535   -0.0676351535    0.3118980158
H       -2.0904394693    1.0529392127    5.5390179104
H       -2.2944978006   -0.1057326575    4.2095566706
H       -0.8939091348    1.0035947104    4.2247902865
H       -0.9687714594   -3.3531213231    4.3022348227
H       -1.3587052122   -2.0022986250    3.2347918507
H        0.8446301682   -0.8963585028    3.9344542803
H        1.0915725173   -2.2163682546    5.0831253316
H       -0.5179599117   -3.8661839541    1.9870659514
H        1.9292169593   -3.6986344221    3.6183297134
H        1.7582208592   -4.6117538929    2.2515026011
H        2.5681787015   -2.2580755154    2.0860422578
24   
torsion grid (-15,)
C        0.6371210406   -2.0970698282    1.5606393466
C        2.4668252243   -0.8055558156    0.5186952606
C       -1.6147400742    0.3674422387    4.8616935386
C       -0.5424147854   -2.5931171695    3.7200242606
C        0.2937827400   -1.6629284580    4.6041190338
C        0.2478258475   -3.2152871751    2.5520238040
N        1.3012417458   -4.1061766417    3.0454515129
N        1.9669171418   -1.8085858827    1.4494628272
O       -0.2329648800   -1.4735902791    0.9506577844
S       -0.6752641582   -0.8051860114    5.9003820370
H        2.6503643660   -1.2268726655   -0.4771887054
H        3.3968265158   -0.3798905882    0.9046574225
H        1.7187730739   -0.0172841929    0.4241461604
H       -2.1712969418    1.0157946385    5.5426961195
H       -2.3233660160   -0.1429434240    4.2054713150
H       -0.9380700197    0.9821334598    4.2613214574
H       -0.9551550751   -3.4019374882    4.3294407514
H       -1.3768801706   -2.0396386641    3.2845173707
H        0.8132403141   -0.9062074285    4.0062759169
H        1.0524299651   -2.2234322947    5.1604307794
H       -0.4589859813   -3.8373373743    1.9928066936
H        1.9809385575   -3.6302018855    3.6330358647
H        1.7899385397   -4.5811929489    2.2908743980
H        2.6234911505   -2.4349177785    1.8937985593
24   
torsion grid (0,)
C        0.6978717708   -2.0117110604    1.6170372435
C        2.5278129775   -0.8794656817    0.4094268638
C       -1.6965266565    0.3454901371    4.8553801549
C       -0.5570539342   -2.5875344327    3.7132736186
C        0.2359632754   -1.6654830157    4.6437738770
C        0.2926109677   -3.1646513663    2.5647941266
N        1.3481049581   -4.0366227602    3.0885987659
N        2.0261380602   -1.8877884674    1.3331335221
O       -0.1531256284   -1.2465116604    1.1594992551
S       -0.7877364367   -0.8338583836    5.9139269658
H        2.5268021491   -1.2396733073   -0.6264153087
H        3.5465488262   -0.5998776580    0.6904472050
H        1.8813309366   -0.0026128065    0.4671525769
H       -2.2800019570    0.9838807694    5.5231719338
H       -2.3778934149   -0.1617053745    4.1686981139
H       -1.0021076987    0.9685572893    4.2849824071
H       -0.9734168318   -3.4179124379    4.2898135705
H       -1.3839828475   -2.0367837933    3.2618529557
H        0.7691099189   -0.8942907192    4.0763752317
H        0.9780094552   -2.2304656914    5.2173921328
H       -0.3728334625   -3.7949734146    1.9645607777
H        2.0490318728   -3.5282442369    3.6213961834
H        1.8092728921   -4.5727509391    2.3581348382
H        2.6564268877   -2.5948048164    1.6836349036
24   
torsion grid (15,)
C       -0.6232287698   -1.9774131164    1.9518906420
C        0.7569044682   -1.3472926533    0.0065851349
C       -0.1618040948   -0.1769572547    6.2325174469
C       -1.1801854746   -2.7111361439    4.2954255908
C        0.2335356885   -2.5865289058    4.8698989607
C       -1.1908786809   -3.1312812803    2.8151960079
N       -0.5970466807   -4.4631534481    2.6511300574
N        0.1561108163   -2.3366933123    0.8913799988
O       -0.9111322456   -0.8025283613    2.1883475780
S        0.2880595730   -1.9147439197    6.5722950134
H        0.9674379761   -1.8078984155   -0.9618045821
H        1.6874371456   -0.9411273092    0.4212154818
H        0.0554741611   -0.5225250479   -0.1286278038
H       -0.0683583478    0.3635480423    7.1775604542
H       -1.1887170454   -0.0834867513    5.8725133882
H        0.5205535828    0.2635914633    5.5005773589
H       -1.7440631238   -3.4494459067    4.8716617448
H       -1.6955528715   -1.7524022414    4.3691518421
H        0.8620366801   -1.9520656082    4.2346383085
H        0.7124457791   -3.5681001277    4.9452850222
H       -2.2418223804   -3.2151588862    2.5142324258
H        0.4101718611   -4.4608481482    2.7901138243
H       -0.8064982899   -4.8760763597    1.7461247466
H        0.4341603853   -3.3039611630    0.8098835804
24   
torsion grid (30,)
C       -0.4854991630   -1.9693053757    1.9573952409
C        0.7038805123   -1.3866732699   -0.1239566633
C       -0.2162255637   -0.1725173435    6.2972026579
C       -1.1662339222   -2.6788924132    4.2862117882
C        0.2130075663   -2.5811886477    4.9429829909
C       -1.0988256730   -3.1085505644    2.8114707659
N       -0.4772234077   -4.4351490878    2.6882588716
N        0.0816878324   -2.3505081715    0.7746612897
O       -0.5711565369   -0.7861265563    2.2900143313
S        0.1779988288   -1.9212084196    6.6503711094
H        0.7443433087   -1.8074537763   -1.1316552447
H        1.7190885452   -1.1235392851    0.1971350606
H        0.1037506880   -0.4755348253   -0.1360373646
H       -0.1630968417    0.3617053609    7.2489849397
H       -1.2198734626   -0.0560193859    5.8823415586
H        0.5133792403    0.2561145179    5.6050367119
H       -1.7746486853   -3.4067785481    4.8297359842
H       -1.6678941197   -1.7109865994    4.3315601673
H        0.8862854984   -1.9525391348    4.3506489297
H        0.6666505290   -3.5727890936    5.0370891718
H       -2.1316870327   -3.2092206923    2.4567701380
H        0.5359829236   -4.3937467590    2.7629579628
H       -0.7235242670   -4.9056609699    1.8215820951
H        0.2391712808   -3.3358664475    0.6189113780
24   
torsion grid (45,)
C       -0.3764033289   -1.9801596740    1.9611574305
C        0.6280159174   -1.3903293782   -0.2155992521
C       -0.2625221943   -0.1768444661    6.3283604567
C       -1.1684336337   -2.6698945083    4.2686868343
C        0.1686779818   -2.6058757114    5.0118678434
C       -1.0263976501   -3.1086441867    2.8029897259
N       -0.3645579729   -4.4227363726    2.7208100508
N       -0.0298953859   -2.3290916727    0.6846616674
O       -0.2414380531   -0.8301033950    2.3804338280
S        0.0392972964   -1.9376742732    6.7114072863
H        0.4831442930   -1.7196317147   -1.2474529815
H        1.7027112418   -1.3089736074   -0.0111724135
H        0.1809661354   -0.4037080626   -0.0853945299
H       -0.2505405750    0.3606388273    7.2797608524
H       -1.2317738301   -0.0239377812    5.8483700673
H        0.5263626634    0.2183793574    5.6830862139
H       -1.8265556850   -3.3806698589    4.7763043796
H       -1.6490731001   -1.6898599758    4.2853898042
H        0.8935772631   -1.9973636424    4.4629171412
H        0.5854228895   -3.6098738408    5.1360967539
H       -2.0384042649   -3.2383510229    2.4009387304
H        0.6471180985   -4.3380366255    2.7841217974
H       -0.5892970287   -4.9197306157    1.8627767871
H       -0.0235364375   -3.3107518918    0.4458679394
24   
torsion grid (60,)
C       -0.0191465642   -2.0499227168    2.2294355182
C        0.8828312539   -1.5408740899   -0.0227750581
C       -0.4067622091    0.0819130184    6.4288606919
C       -1.1381488770   -2.5487321154    4.4602718279
C        0.0572640435   -2.4826407997    5.4168930953
C       -0.7953060721   -3.0956468759    3.0670935825
N       -0.1200956567   -4.4038337978    3.1706421423
N        0.2079545998   -2.4152483525    0.9278304587
O        0.3987695165   -0.9882498585    2.6933037933
S       -0.3211061371   -1.6504181722    7.0034192035
H        0.1710341907   -0.9405441832   -0.6026599649
H        1.4920544385   -2.1359872332   -0.7092644393
H        1.5276170680   -0.8637626841    0.5378770971
H       -0.5222472829    0.7055757477    7.3187617873
H       -1.2594205578    0.2508811671    5.7669571607
H        0.5138036575    0.3619916244    5.9104267122
H       -1.9078774437   -3.1897781044    4.8996408439
H       -1.5660790215   -1.5511954641    4.3356051203
H        0.9017781368   -1.9663081908    4.9539274647
H        0.3772709036   -3.4898083208    5.7000269484
H       -1.7451100146   -3.2782139443    2.5468409729
H        0.8324653787   -4.2750898634    3.5087057261
H       -0.0397815480   -4.8466589758    2.2575910533
H       -0.2806302560   -3.2232506216    0.5655888970
24   
torsion grid (75,)
C        0.0889871567   -2.1246950821    2.2522021492
C        0.8111868868   -1.5469174201   -0.0476552356
C       -0.4618595325    0.0841427577    6.4522032352
C       -1.1252430869   -2.5566703875    4.4561619489
C        0.0125895164   -2.4947592835    5.4819747417
C       -0.7262830065   -3.1326787767    3.0887255836
N       -0.0308136861   -4.4263047041    3.2381142937
N        0.0875351256   -2.3797813718    0.9045190498
O        0.7562880032   -1.2148866214    2.7474840489
S       -0.4569953793   -1.6471021654    7.0360278108
H        0.1769259073   -0.7536413052   -0.4618885954
H        1.1933958395   -2.1637600654   -0.8660745991
H        1.6470320091   -1.0811885126    0.4750690416
H       -0.6250843624    0.7149192359    7.3295050026
H       -1.2625841238    0.2704891131    5.7321568492
H        0.4996124785    0.3408975193    5.9998990114
H       -1.9317716874   -3.1729244259    4.8644569083
H       -1.5297737821   -1.5535163913    4.2937087572
H        0.8885138054   -1.9927552641    5.0660080825
H        0.3019494972   -3.5031060397    5.7925470698
H       -1.6559029808   -3.3438389408    2.5433886545
H        0.8788233828   -4.2732494559    3.6720536593
H        0.1602874245   -4.8277669504    2.3213982304
H       -0.5985692214   -3.0299663675    0.5442716628
24   
torsion grid (90,)
C        0.1854648195   -2.1976521209    2.1956787617
C        0.7401195102   -1.4926481682   -0.1166974220
C       -0.5221443092    0.1451215394    6.3701748955
C       -1.1160152076   -2.5243096604    4.3721526335
C       -0.0155662760   -2.4418128143    5.4365781761
C       -0.6828916358   -3.1510802280    3.0356583804
N       -0.0078066956   -4.4455161936    3.2476696460
N       -0.0149910681   -2.2876474812    0.8429823077
O        1.0596203693   -1.4793587213    2.6863459040
S       -0.5502893515   -1.5824751308    6.9632824018
H        0.1838237691   -0.6024005481   -0.4340546200
H        0.9816084371   -2.0959928917   -0.9968616797
H        1.6631967262   -1.1703580509    0.3658493456
H       -0.7309753212    0.7820218478    7.2332754922
H       -1.2840677476    0.3286261534    5.6080878418
H        0.4628741648    0.3991685400    5.9693755102
H       -1.9427059909   -3.1197151949    4.7714947459
H       -1.5083647073   -1.5230342816    4.1659812148
H        0.8731408046   -1.9428671763    5.0460325370
H        0.2672760934   -3.4456494376    5.7668155035
H       -1.5999853088   -3.3691448138    2.4730659608
H        0.9041823430   -4.2816652687    3.6730761885
H        0.1759518537   -4.8888387167    2.3485185651
H       -0.8225870158   -2.7989213747    0.5130512153
24   
torsion grid (105,)
C        0.2912732234   -2.3133269596    2.2113519925
C        0.7052417856   -1.3741135079   -0.0456850331
C       -0.5689232793    0.1991516388    6.2755984899
C       -1.0882279984   -2.5393653997    4.3476605998
C       -0.0108175505   -2.4083656228    5.4299075419
C       -0.6267804374   -3.2216646183    3.0457422227
N        0.0108668005   -4.5199274153    3.3217083834
N       -0.0575198084   -2.1856365126    0.8939332765
O        1.3158994107   -1.8068279971    2.6765714672
S       -0.5890453645   -1.5104190154    6.9185361001
H        0.2511369768   -0.3864256004   -0.1903047395
H        0.7719905288   -1.8819026501   -1.0124428017
H        1.7071505146   -1.2394384783    0.3628484052
H       -0.8042587365    0.8586906720    7.1145461385
H       -1.3165881787    0.3515211320    5.4925148302
H        0.4220049530    0.4547794955    5.8900523431
H       -1.9204926553   -3.1229801106    4.7530942909
H       -1.4832448124   -1.5494171751    4.0928065816
H        0.8827360227   -1.9151979630    5.0431439624
H        0.2770569515   -3.3983393922    5.7954253630
H       -1.5324429213   -3.4365981649    2.4642769986
H        0.9305290905   -4.3540720901    3.7301806464
H        0.1776720702   -5.0112497132    2.4443132012
H       -0.9532711979   -2.5498660599    0.5989305543
24   
torsion grid (120,)
C        0.4080716078   -2.4127192861    2.1476288621
C        0.7315352444   -1.1945096728    0.0099113822
C       -0.5364257668    0.2628501544    6.0593451558
C       -1.0333065878   -2.5494658633    4.2360870183
C        0.0336293781   -2.3756384411    5.3219537405
C       -0.5542492217   -3.2865618258    2.9682934589
N        0.0414893637   -4.5874913024    3.3028005995
N       -0.0397124824   -2.0416267345    0.9101949107
O        1.5296120384   -2.1153678774    2.5682316645
S       -0.5575121307   -1.4199366327    6.7690627274
H        0.2942988999   -0.1923669059   -0.0695440290
H        0.7830359110   -1.6417992685   -0.9879444253
H        1.7389885441   -1.1081623014    0.4177145424
H       -0.7806945647    0.9544081090    6.8694582953
H       -1.2779462587    0.3827480847    5.2646965179
H        0.4574571875    0.5069353254    5.6733716121
H       -1.8704196136   -3.1164781315    4.6547415633
H       -1.4250768542   -1.5703151209    3.9364336817
H        0.9342213763   -1.9012307975    4.9268849405
H        0.3181389332   -3.3508020762    5.7272838060
H       -1.4488669338   -3.4930870022    2.3672621875
H        0.9700587404   -4.4244363202    3.6929543571
H        0.1909416341   -5.1205921232    2.4468733316
H       -0.9856510907   -2.2865480842    0.6508680222
24   
torsion grid (135,)
C        0.4220276772   -2.5438207460    2.1132759707
C        0.6601995779   -1.0582601337    0.1388400707
C       -0.5415308499    0.2973117492    5.8616567658
C       -1.0394980803   -2.5978656947    4.1778439062
C        0.0388956211   -2.3695393116    5.2414833000
C       -0.5578933131   -3.3911781960    2.9430413721
N        0.0191063377   -4.6800510469    3.3382695167
N       -0.1048221916   -1.9484765735    1.0020856004
O        1.6065403347   -2.4288214789    2.4384842225
S       -0.5355990907   -1.3496835205    6.6506883189
H        0.3130385872   -0.0221365466    0.2257609399
H        0.5826144973   -1.3744178826   -0.9064650172
H        1.7032782725   -1.1088652819    0.4520266827
H       -0.7814626100    1.0242822531    6.6414964608
H       -1.2954641172    0.3726695204    5.0731762202
H        0.4445223245    0.5330784595    5.4508109590
H       -1.8679247129   -3.1520400829    4.6292393025
H       -1.4402365681   -1.6356445053    3.8377193176
H        0.9354795280   -1.9120907654    4.8161554358
H        0.3329007080   -3.3242311547    5.6863644129
H       -1.4467663435   -3.6057210443    2.3365081789
H        0.9628787882   -4.5076436138    3.6868272588
H        0.1392885410   -5.2608614504    2.5091955909
H       -1.0904682962   -2.0743393307    0.8150089548
24   
torsion grid (150,)
C        0.4571888540   -2.6502248330    2.0624719024
C        0.6734764453   -0.9263149292    0.2878332186
C       -0.5555988111    0.3352838802    5.6655988024
C       -1.0197841040   -2.6315133620    4.1125903413
C        0.0786985182   -2.3397348433    5.1388860435
C       -0.5387066323   -3.4698698167    2.9058414540
N        0.0239489732   -4.7456098366    3.3523466516
N       -0.1028269591   -1.8375862568    1.1182148899
O        1.6728387404   -2.7182559619    2.2561957463
S       -0.4769988962   -1.2756162744    6.5220056279
H        0.4516022125    0.1194705518    0.5299091478
H        0.4675188635   -1.0984063744   -0.7737438648
H        1.7288044418   -1.1183531476    0.4826710518
H       -0.7911681187    1.0877898309    6.4221689991
H       -1.3364604969    0.3567597137    4.9003631080
H        0.4096930339    0.5812008365    5.2131183468
H       -1.8262145802   -3.1834206645    4.6041589100
H       -1.4455332587   -1.6914766203    3.7428437571
H        0.9566976462   -1.8819860116    4.6744428723
H        0.4044744084   -3.2703678017    5.6114891224
H       -1.4232151017   -3.6907135470    2.2954756456
H        0.9868524201   -4.5727681644    3.6448300112
H        0.1012896264   -5.3719437451    2.5519310272
H       -1.1100779207   -1.8354617863    1.0277553453
24   
torsion grid (165,)
C        0.4665229906   -2.7751021486    2.0323925330
C        0.7155436301   -0.8683411049    0.4585850139
C       -0.5696001646    0.3065877406    5.5662349206
C       -0.9973011614   -2.7032882283    4.0997525264
C        0.1373605133   -2.3545549942    5.0657883841
C       -0.5334351037   -3.5674347450    2.9033879773
N        0.0230776947   -4.8350221862    3.3762790696
N       -0.0746622631   -1.7559873087    1.3013508434
O        1.6724510276   -3.0276445439    2.0423019675
S       -0.3803224157   -1.2780667867    6.4535476690
H        0.5991920902    0.1750303789    0.7717471644
H        0.4238677069   -0.9598189688   -0.5935452351
H        1.7615451432   -1.1571272400    0.5627040405
H       -0.7877656681    1.0690212185    6.3180342291
H       -1.3947615156    0.2809071041    4.8491595282
H        0.3573889900    0.5759684480    5.0511398107
H       -1.7671012077   -3.2620204237    4.6392073337
H       -1.4620699189   -1.7843111454    3.7252678524
H        0.9756465761   -1.8763667521    4.5490659412
H        0.5186557025   -3.2639723940    5.5380048986
H       -1.4226474209   -3.7898792150    2.3006263843
H        1.0080722067   -4.6768596428    3.5939369163
H        0.0371308376   -5.4980792368    2.6025497132
H       -1.0777315996   -1.6302534132    1.3275049183
24   
torsion grid (180,)
C        0.3755124050   -2.8089685834    1.8414352288
C        0.5917969971   -0.6686124697    0.6303718753
C       -0.3389723714   -0.0839785234    5.7314693229
C       -0.8697771371   -2.9680171005    4.0654505091
C        0.3648503530   -2.6666767690    4.9178981973
C       -0.5230650436   -3.6900062720    2.7433894120
N        0.0825354358   -4.9913265681    3.0261771509
N       -0.1175936447   -1.5731238319    1.5283411158
O        1.4905453419   -3.1810882568    1.4744868833
S        0.0014816904   -1.7289236246    6.4472678533
H        0.2233135037    0.3488606621    0.7816545915
H        0.4595775475   -0.9474997717   -0.4219395757
H        1.6575403120   -0.7040813101    0.8611214299
H       -0.4745155060    0.6056013759    6.5682100818
H       -1.2503617162   -0.0785649223    5.1272409787
H        0.5057119246    0.2584953763    5.1262748380
H       -1.5494374035   -3.6104856237    4.6316341670
H       -1.4080872361   -2.0382105185    3.8523619430
H        1.1213909969   -2.1170232067    4.3474594108
H        0.8216560445   -3.5998819628    5.2585869706
H       -1.4662284649   -3.8642182065    2.2102892540
H        1.0836628446   -4.8486993394    3.1624444238
H        0.0287306601   -5.5666408877    2.1869450534
H       -1.0836159503   -1.3715867650    1.7474245772
