
  -OEChem-05262117483D

 33 35  0     0  0  0  0  0  0999 V2000
   -5.1637   -0.5158   -4.7570 C   0  0  0  0  0  0  0  0  0  0  0  0
   -6.9026   -2.0604   -5.3621 C   0  0  0  0  0  0  0  0  0  0  0  0
   -4.6855   -1.4589   -3.8428 C   0  0  0  0  0  0  0  0  0  0  0  0
   -6.2790   -0.8238   -5.5282 C   0  0  0  0  0  0  0  0  0  0  0  0
   -5.3822   -2.6815   -3.7248 C   0  0  0  0  0  0  0  0  0  0  0  0
   -2.3864   -1.2836   -6.2790 C   0  0  0  0  0  0  0  0  0  0  0  0
   -0.9211   -1.4189   -5.9247 C   0  0  0  0  0  0  0  0  0  0  0  0
   -4.8979   -5.1512   -3.1655 C   0  0  0  0  0  0  0  0  0  0  0  0
   -3.6550   -4.3865   -2.7607 C   0  0  0  0  0  0  0  0  0  0  0  0
   -1.8834   -0.8100   -4.9332 C   0  0  0  0  0  0  0  0  0  0  0  0
   -5.0165   -3.7216   -2.6985 C   0  0  0  0  0  0  0  0  0  0  0  0
   -5.6515   -3.4694   -1.3374 C   0  0  0  0  0  0  0  0  0  0  0  0
   -3.4273   -1.1462   -3.0584 C   0  0  0  0  0  0  0  0  0  0  0  0
   -6.4653   -2.9564   -4.4732 N   0  0  0  0  0  0  0  0  0  0  0  0
   -2.2177   -1.5949   -3.7698 N   0  0  0  0  0  0  0  0  0  0  0  0
   -6.9514    0.4301   -6.8130 Br  0  0  0  0  0  0  0  0  0  0  0  0
   -4.6598    0.4391   -4.8714 H   0  0  0  0  0  0  0  0  0  0  0  0
   -7.7749   -2.3308   -5.9536 H   0  0  0  0  0  0  0  0  0  0  0  0
   -2.6791   -0.5358   -7.0103 H   0  0  0  0  0  0  0  0  0  0  0  0
   -2.9860   -2.1874   -6.2787 H   0  0  0  0  0  0  0  0  0  0  0  0
   -0.5536   -2.4150   -5.6975 H   0  0  0  0  0  0  0  0  0  0  0  0
   -0.2057   -0.7624   -6.4109 H   0  0  0  0  0  0  0  0  0  0  0  0
   -5.0586   -5.3472   -4.2208 H   0  0  0  0  0  0  0  0  0  0  0  0
   -5.2674   -5.9279   -2.5014 H   0  0  0  0  0  0  0  0  0  0  0  0
   -3.1798   -4.6390   -1.8154 H   0  0  0  0  0  0  0  0  0  0  0  0
   -2.9710   -4.0612   -3.5371 H   0  0  0  0  0  0  0  0  0  0  0  0
   -1.8205    0.2754   -4.7977 H   0  0  0  0  0  0  0  0  0  0  0  0
   -5.3697   -4.2537   -0.6270 H   0  0  0  0  0  0  0  0  0  0  0  0
   -6.7436   -3.4607   -1.4211 H   0  0  0  0  0  0  0  0  0  0  0  0
   -5.3384   -2.5063   -0.9168 H   0  0  0  0  0  0  0  0  0  0  0  0
   -3.4048   -0.0623   -2.8509 H   0  0  0  0  0  0  0  0  0  0  0  0
   -3.4489   -1.6610   -2.0962 H   0  0  0  0  0  0  0  0  0  0  0  0
   -1.4341   -1.5861   -3.1198 H   0  0  0  0  0  0  0  0  0  0  0  0
  1  3  1  0  0  0  0
  1  4  2  0  0  0  0
  1 17  1  0  0  0  0
  2  4  1  0  0  0  0
  2 14  2  0  0  0  0
  2 18  1  0  0  0  0
  3  5  2  0  0  0  0
  3 13  1  0  0  0  0
  4 16  1  0  0  0  0
  5 11  1  0  0  0  0
  5 14  1  0  0  0  0
  6  7  1  0  0  0  0
  6 10  1  0  0  0  0
  6 19  1  0  0  0  0
  6 20  1  0  0  0  0
  7 10  1  0  0  0  0
  7 21  1  0  0  0  0
  7 22  1  0  0  0  0
  8  9  1  0  0  0  0
  8 11  1  0  0  0  0
  8 23  1  0  0  0  0
  8 24  1  0  0  0  0
  9 11  1  0  0  0  0
  9 25  1  0  0  0  0
  9 26  1  0  0  0  0
 10 15  1  0  0  0  0
 10 27  1  0  0  0  0
 11 12  1  0  0  0  0
 12 28  1  0  0  0  0
 12 29  1  0  0  0  0
 12 30  1  0  0  0  0
 13 15  1  0  0  0  0
 13 31  1  0  0  0  0
 13 32  1  0  0  0  0
 15 33  1  0  0  0  0
M  END
$$$$
