
  -OEChem-05262117483D

 34 36  0     0  0  0  0  0  0999 V2000
   -2.5567   -3.0434   -1.7749 C   0  0  0  0  0  0  0  0  0  0  0  0
   -2.5657   -2.9690    0.6216 C   0  0  0  0  0  0  0  0  0  0  0  0
   -1.7983   -1.8624   -1.7628 C   0  0  0  0  0  0  0  0  0  0  0  0
   -2.9484   -3.6086   -0.5678 C   0  0  0  0  0  0  0  0  0  0  0  0
   -1.3822   -1.3324   -0.5253 C   0  0  0  0  0  0  0  0  0  0  0  0
   -4.3769    0.2307   -1.8984 C   0  0  0  0  0  0  0  0  0  0  0  0
   -4.9120    0.7017   -3.2333 C   0  0  0  0  0  0  0  0  0  0  0  0
    0.8310   -0.4010    0.3550 C   0  0  0  0  0  0  0  0  0  0  0  0
    0.8636   -0.1410   -1.1335 C   0  0  0  0  0  0  0  0  0  0  0  0
   -3.4343    0.4815   -3.0408 C   0  0  0  0  0  0  0  0  0  0  0  0
   -0.4625   -0.1497   -0.3849 C   0  0  0  0  0  0  0  0  0  0  0  0
   -1.1661    1.1729   -0.1145 C   0  0  0  0  0  0  0  0  0  0  0  0
   -1.4977   -1.1929   -3.0748 C   0  0  0  0  0  0  0  0  0  0  0  0
   -1.7949   -1.8837    0.6302 N   0  0  0  0  0  0  0  0  0  0  0  0
   -2.7913   -0.6766   -3.7240 N   0  3  0  0  0  0  0  0  0  0  0  0
   -3.9742   -5.2082   -0.5197 Br  0  0  0  0  0  0  0  0  0  0  0  0
   -2.8319   -3.5286   -2.7104 H   0  0  0  0  0  0  0  0  0  0  0  0
   -2.8814   -3.3603    1.5864 H   0  0  0  0  0  0  0  0  0  0  0  0
   -4.3309    0.9286   -1.0696 H   0  0  0  0  0  0  0  0  0  0  0  0
   -4.5725   -0.7963   -1.6067 H   0  0  0  0  0  0  0  0  0  0  0  0
   -5.4702   -0.0122   -3.8339 H   0  0  0  0  0  0  0  0  0  0  0  0
   -5.2422    1.7293   -3.3420 H   0  0  0  0  0  0  0  0  0  0  0  0
    1.0319   -1.4114    0.6955 H   0  0  0  0  0  0  0  0  0  0  0  0
    1.1802    0.3778    1.0255 H   0  0  0  0  0  0  0  0  0  0  0  0
    1.2430    0.8151   -1.4849 H   0  0  0  0  0  0  0  0  0  0  0  0
    1.1172   -0.9861   -1.7690 H   0  0  0  0  0  0  0  0  0  0  0  0
   -2.7589    1.3292   -3.0155 H   0  0  0  0  0  0  0  0  0  0  0  0
   -0.4363    1.9653    0.0740 H   0  0  0  0  0  0  0  0  0  0  0  0
   -1.8082    1.0878    0.7676 H   0  0  0  0  0  0  0  0  0  0  0  0
   -1.7862    1.4902   -0.9601 H   0  0  0  0  0  0  0  0  0  0  0  0
   -0.8462   -0.3292   -2.9628 H   0  0  0  0  0  0  0  0  0  0  0  0
   -1.0622   -1.8812   -3.8050 H   0  0  0  0  0  0  0  0  0  0  0  0
   -3.4629   -1.4520   -3.7685 H   0  0  0  0  0  0  0  0  0  0  0  0
   -2.5943   -0.4154   -4.6984 H   0  0  0  0  0  0  0  0  0  0  0  0
  1  3  1  0  0  0  0
  1  4  2  0  0  0  0
  1 17  1  0  0  0  0
  2  4  1  0  0  0  0
  2 14  2  0  0  0  0
  2 18  1  0  0  0  0
  3  5  2  0  0  0  0
  3 13  1  0  0  0  0
  4 16  1  0  0  0  0
  5 11  1  0  0  0  0
  5 14  1  0  0  0  0
  6  7  1  0  0  0  0
  6 10  1  0  0  0  0
  6 19  1  0  0  0  0
  6 20  1  0  0  0  0
  7 10  1  0  0  0  0
  7 21  1  0  0  0  0
  7 22  1  0  0  0  0
  8  9  1  0  0  0  0
  8 11  1  0  0  0  0
  8 23  1  0  0  0  0
  8 24  1  0  0  0  0
  9 11  1  0  0  0  0
  9 25  1  0  0  0  0
  9 26  1  0  0  0  0
 10 15  1  0  0  0  0
 10 27  1  0  0  0  0
 11 12  1  0  0  0  0
 12 28  1  0  0  0  0
 12 29  1  0  0  0  0
 12 30  1  0  0  0  0
 13 15  1  0  0  0  0
 13 31  1  0  0  0  0
 13 32  1  0  0  0  0
 15 33  1  0  0  0  0
 15 34  1  0  0  0  0
M  CHG  1  15   1
M  END
$$$$
