33
0 1 BrC13H17N2
C                    -5.163702887177    -0.515818793458    -4.757010896392
C                    -6.902587583605    -2.060437085325    -5.362088444189
C                    -4.685468735770    -1.458920169891    -3.842760584283
C                    -6.279027510997    -0.823798400746    -5.528236657822
C                    -5.382222705703    -2.681482370242    -3.724758209762
C                    -2.386354530029    -1.283556112880    -6.279038152751
C                    -0.921052652314    -1.418931592191    -5.924689561715
C                    -4.897944853124    -5.151205372494    -3.165516774845
C                    -3.654996873331    -4.386508758242    -2.760740564316
C                    -1.883403675301    -0.810027336437    -4.933233654555
C                    -5.016541922287    -3.721624215941    -2.698535264609
C                    -5.651515479479    -3.469399640338    -1.337380759018
C                    -3.427292030707    -1.146230038744    -3.058403263912
N                    -6.465283887124    -2.956354465728    -4.473182503074
N                    -2.217707986116    -1.594852698176    -3.769753782853
Br                   -6.951432291183     0.430098107366    -6.813022948963
H                    -4.659822178130     0.439126510885    -4.871364371792
H                    -7.774912550590    -2.330808729722    -5.953595861556
H                    -2.679117075112    -0.535819670565    -7.010296392442
H                    -2.986028289487    -2.187383882942    -6.278687207717
H                    -0.553616170040    -2.415049047858    -5.697529454112
H                    -0.205722720749    -0.762391968122    -6.410930767581
H                    -5.058626285163    -5.347180871277    -4.220775689423
H                    -5.267447835907    -5.927883553648    -2.501414774511
H                    -3.179843427599    -4.638995800450    -1.815405276873
H                    -2.970974160946    -4.061217981066    -3.537072488946
H                    -1.820495146706     0.275393943593    -4.797654886527
H                    -5.369705764925    -4.253739032185    -0.626963999724
H                    -6.743579023607    -3.460714302405    -1.421064340395
H                    -5.338417019321    -2.506297016375    -0.916753696031
H                    -3.404803158151    -0.062307335658    -2.850880732093
H                    -3.448868697003    -1.661009374699    -2.096217222504
H                    -1.434102240262    -1.586107266879    -3.119844283558
