51
0 1 C22ClH26NO
C                     2.263138611667    -1.390999930936     7.061872622821
C                     1.181078707614    -1.494275097306     6.179164632743
C                     3.546313875709    -1.165087543819     6.555911554114
C                     1.382253536537    -1.376798105794     4.802003664844
C                     3.744391467460    -1.044797758470     5.175652407108
C                     1.852019021620     2.329810156450     0.429600532619
C                     0.060229272627     3.405821136352    -0.795504242519
C                     1.290189052876     1.072228844542     0.164668311354
C                     2.668448042321    -1.154161209192     4.285812812181
C                    -0.514530167574     2.167300808739    -1.078252278227
C                     0.111255550298     1.000404690675    -0.588874744868
C                     1.236754854852     3.481072225959    -0.043445099739
C                    -2.879201465600    -2.551426942268     0.074560206425
C                    -2.435020269874    -1.368523663382     0.943562115155
C                    -2.130486696333    -2.555397104874    -1.264360442401
C                    -0.915549002944    -1.354200974165     1.154580518630
C                    -0.610921929081    -2.539622993696    -1.053614512271
C                     1.383006555708    -1.422191540771    -0.001773860220
C                     1.972243141369    -0.178472174066     0.679825209957
C                    -0.138811908491    -1.373416229493    -0.174653715982
C                    -1.779562389860     2.048439897111    -1.889745869463
C                     2.887672306842    -1.059888606617     2.790508269405
N                     1.849206270117    -0.253318252603     2.147661830635
O                    -0.486738415482    -0.177617701041    -0.934554899892
Cl                    1.949242887833     5.056034168806     0.296021826901
H                     2.105653198310    -1.480469742314     8.133729656871
H                     0.179533237875    -1.665091363034     6.566549328408
H                     4.391694885411    -1.075973138440     7.233627442542
H                     0.544659078442    -1.443496680948     4.113852391238
H                     4.745064292228    -0.861738226541     4.789096498207
H                     2.779683843725     2.401031365802     0.992055856531
H                    -0.407034722989     4.315814260135    -1.160192532909
H                    -3.961600207113    -2.515284255198    -0.095913321808
H                    -2.675359271320    -3.490662255834     0.608428430189
H                    -2.739344791958    -0.430389535840     0.464181707700
H                    -2.935461168298    -1.400282937486     1.918362037315
H                    -2.407436743723    -3.435090774557    -1.856936956486
H                    -2.419589711124    -1.674045930456    -1.847891010743
H                    -0.611893969408    -0.490038824952     1.747203822565
H                    -0.609672298265    -2.237219358427     1.730637829441
H                    -0.297031597562    -3.472154494562    -0.567115390724
H                    -0.091356296383    -2.487087259198    -2.016836089979
H                     1.830177729676    -1.518141095343    -0.998258406118
H                     1.651791943790    -2.322567540805     0.557583390421
H                     3.037320648043    -0.114702774693     0.392696110829
H                    -1.608063035729     1.466494034594    -2.801570173941
H                    -2.558182709586     1.523842244231    -1.326080417813
H                    -2.157760627357     3.034086729690    -2.172374877341
H                     3.905665784354    -0.681606923166     2.588242769208
H                     2.848539001225    -2.068544656995     2.360780189203
H                     1.868918343469     0.685911943820     2.539049508477
