33
0 1 BrC13H17N2
C                    -5.271041346050    -0.078124590654    -4.369869495242
C                    -7.471029103003    -1.041104080372    -4.548457622619
C                    -4.863463433239    -1.224489733632    -3.678796845927
C                    -6.589588291257     0.009295082374    -4.804548774389
C                    -5.820963171229    -2.235798438240    -3.445892710205
C                    -0.868802006747     0.585493429495    -2.416009419827
C                    -0.291514570592     0.666741134086    -3.815947989952
C                    -5.023078615532    -3.423774928461    -1.275882117265
C                    -6.396381050758    -3.961302497306    -1.622401071085
C                    -1.176055831615    -0.492512342112    -3.430045175689
C                    -5.470096640324    -3.510428051257    -2.723716246847
C                    -4.865655872632    -4.583583024710    -3.619065497305
C                    -3.435327888282    -1.330132285381    -3.176347577110
N                    -7.087731994368    -2.133777421860    -3.882139025952
N                    -2.511702228200    -0.519992213031    -3.975222117533
Br                   -7.202935217241     1.562737028512    -5.747757362125
H                    -4.556804123092     0.717315737841    -4.552569303087
H                    -8.504747208332    -1.000204608772    -4.885151311417
H                    -0.202380596240     0.344846801460    -1.593038477610
H                    -1.678084547427     1.268063391683    -2.175006565570
H                    -0.720220566179     1.404608347338    -4.486843334478
H                     0.769572934622     0.478866258877    -3.950511817257
H                    -4.972777813358    -2.442608639324    -0.811789713511
H                    -4.259239046108    -4.119507533460    -0.937798570981
H                    -6.572128840623    -5.028576533913    -1.519979467556
H                    -7.259159729655    -3.339203964528    -1.408307047327
H                    -0.679266292987    -1.455362929553    -3.273387305529
H                    -4.625532611442    -5.482118869204    -3.040937701281
H                    -3.944077128210    -4.240356045275    -4.103168673779
H                    -5.575014764347    -4.863038927280    -4.405217225847
H                    -3.389404350034    -0.952948110173    -2.147180057119
H                    -3.135306222517    -2.385378240409    -3.121537825261
H                    -2.484565978503    -0.877606049712    -4.929431743842
