
  -OEChem-05262117483D

 52 55  0     1  0  0  0  0  0999 V2000
   -0.2523   -2.4317   -6.9741 C   0  0  0  0  0  0  0  0  0  0  0  0
    0.3430   -3.0810   -5.8868 C   0  0  0  0  0  0  0  0  0  0  0  0
   -1.4185   -1.6808   -6.7914 C   0  0  0  0  0  0  0  0  0  0  0  0
   -0.2243   -2.9744   -4.6150 C   0  0  0  0  0  0  0  0  0  0  0  0
   -1.9865   -1.5728   -5.5196 C   0  0  0  0  0  0  0  0  0  0  0  0
   -2.0464    1.9437   -1.2589 C   0  0  0  0  0  0  0  0  0  0  0  0
   -0.7473    3.5386    0.0141 C   0  0  0  0  0  0  0  0  0  0  0  0
   -1.3780    0.8909   -0.6085 C   0  0  0  0  0  0  0  0  0  0  0  0
   -1.3910   -2.2179   -4.4255 C   0  0  0  0  0  0  0  0  0  0  0  0
   -0.0838    2.5134    0.6846 C   0  0  0  0  0  0  0  0  0  0  0  0
   -0.4043    1.1768    0.3587 C   0  0  0  0  0  0  0  0  0  0  0  0
   -1.7216    3.2578   -0.9546 C   0  0  0  0  0  0  0  0  0  0  0  0
    3.1489   -1.8498    1.0772 C   0  0  0  0  0  0  0  0  0  0  0  0
    2.7784   -0.9072   -0.0720 C   0  0  0  0  0  0  0  0  0  0  0  0
    2.1212   -1.7519    2.2096 C   0  0  0  0  0  0  0  0  0  0  0  0
    1.3554   -1.1694   -0.5911 C   0  0  0  0  0  0  0  0  0  0  0  0
    0.7047   -2.0357    1.6965 C   0  0  0  0  0  0  0  0  0  0  0  0
   -1.1219   -1.5177    0.0626 C   0  0  0  0  0  0  0  0  0  0  0  0
   -1.7419   -0.5333   -0.9264 C   0  0  2  0  0  0  0  0  0  0  0  0
    0.2918   -1.1307    0.5278 C   0  0  0  0  0  0  0  0  0  0  0  0
    0.9537    2.7954    1.7398 C   0  0  0  0  0  0  0  0  0  0  0  0
   -1.9614   -2.0493   -3.0459 C   0  0  0  0  0  0  0  0  0  0  0  0
   -1.3141   -0.8454   -2.3759 N   0  3  0  0  0  0  0  0  0  0  0  0
    0.2513    0.2142    1.0700 O   0  0  0  0  0  0  0  0  0  0  0  0
   -2.5437    4.5690   -1.7656 Cl  0  0  0  0  0  0  0  0  0  0  0  0
    0.1857   -2.5200   -7.9640 H   0  0  0  0  0  0  0  0  0  0  0  0
    1.2398   -3.6759   -6.0320 H   0  0  0  0  0  0  0  0  0  0  0  0
   -1.8883   -1.1885   -7.6377 H   0  0  0  0  0  0  0  0  0  0  0  0
    0.2307   -3.4977   -3.7756 H   0  0  0  0  0  0  0  0  0  0  0  0
   -2.9046   -1.0034   -5.3861 H   0  0  0  0  0  0  0  0  0  0  0  0
   -2.8426    1.7393   -1.9726 H   0  0  0  0  0  0  0  0  0  0  0  0
   -0.5112    4.5727    0.2466 H   0  0  0  0  0  0  0  0  0  0  0  0
    4.1494   -1.6071    1.4488 H   0  0  0  0  0  0  0  0  0  0  0  0
    3.1933   -2.8833    0.7070 H   0  0  0  0  0  0  0  0  0  0  0  0
    2.8404    0.1311    0.2717 H   0  0  0  0  0  0  0  0  0  0  0  0
    3.4850   -1.0084   -0.9022 H   0  0  0  0  0  0  0  0  0  0  0  0
    2.3605   -2.4606    3.0086 H   0  0  0  0  0  0  0  0  0  0  0  0
    2.1522   -0.7509    2.6530 H   0  0  0  0  0  0  0  0  0  0  0  0
    1.1368   -0.4059   -1.3501 H   0  0  0  0  0  0  0  0  0  0  0  0
    1.3161   -2.1559   -1.0752 H   0  0  0  0  0  0  0  0  0  0  0  0
    0.6414   -3.0765    1.3534 H   0  0  0  0  0  0  0  0  0  0  0  0
   -0.0280   -1.9168    2.5014 H   0  0  0  0  0  0  0  0  0  0  0  0
   -1.7731   -1.5294    0.9420 H   0  0  0  0  0  0  0  0  0  0  0  0
   -1.1173   -2.5385   -0.3300 H   0  0  0  0  0  0  0  0  0  0  0  0
   -2.8287   -0.6552   -0.9490 H   0  0  0  0  0  0  0  0  0  0  0  0
    0.6490    2.3811    2.7060 H   0  0  0  0  0  0  0  0  0  0  0  0
    1.9099    2.3285    1.4832 H   0  0  0  0  0  0  0  0  0  0  0  0
    1.1113    3.8691    1.8569 H   0  0  0  0  0  0  0  0  0  0  0  0
   -3.0355   -1.8540   -3.0527 H   0  0  0  0  0  0  0  0  0  0  0  0
   -1.7638   -2.9095   -2.4061 H   0  0  0  0  0  0  0  0  0  0  0  0
   -1.5024   -0.0157   -2.9515 H   0  0  0  0  0  0  0  0  0  0  0  0
   -0.2944   -0.9618   -2.4041 H   0  0  0  0  0  0  0  0  0  0  0  0
  1  2  1  0  0  0  0
  1  3  2  0  0  0  0
  1 26  1  0  0  0  0
  2  4  2  0  0  0  0
  2 27  1  0  0  0  0
  3  5  1  0  0  0  0
  3 28  1  0  0  0  0
  4  9  1  0  0  0  0
  4 29  1  0  0  0  0
  5  9  2  0  0  0  0
  5 30  1  0  0  0  0
  6  8  1  0  0  0  0
  6 12  2  0  0  0  0
  6 31  1  0  0  0  0
  7 10  2  0  0  0  0
  7 12  1  0  0  0  0
  7 32  1  0  0  0  0
  8 11  2  0  0  0  0
  8 19  1  0  0  0  0
  9 22  1  0  0  0  0
 10 11  1  0  0  0  0
 10 21  1  0  0  0  0
 11 24  1  0  0  0  0
 12 25  1  0  0  0  0
 13 14  1  0  0  0  0
 13 15  1  0  0  0  0
 13 33  1  0  0  0  0
 13 34  1  0  0  0  0
 14 16  1  0  0  0  0
 14 35  1  0  0  0  0
 14 36  1  0  0  0  0
 15 17  1  0  0  0  0
 15 37  1  0  0  0  0
 15 38  1  0  0  0  0
 16 20  1  0  0  0  0
 16 39  1  0  0  0  0
 16 40  1  0  0  0  0
 17 20  1  0  0  0  0
 17 41  1  0  0  0  0
 17 42  1  0  0  0  0
 18 19  1  0  0  0  0
 18 20  1  0  0  0  0
 18 43  1  0  0  0  0
 18 44  1  0  0  0  0
 19 23  1  0  0  0  0
 19 45  1  0  0  0  0
 20 24  1  0  0  0  0
 21 46  1  0  0  0  0
 21 47  1  0  0  0  0
 21 48  1  0  0  0  0
 22 23  1  0  0  0  0
 22 49  1  0  0  0  0
 22 50  1  0  0  0  0
 23 51  1  0  0  0  0
 23 52  1  0  0  0  0
M  CHG  1  23   1
M  END
$$$$
