
  -OEChem-05262117483D

 38 39  0     0  0  0  0  0  0999 V2000
    5.4024   -0.2707    5.3934 C   0  0  0  0  0  0  0  0  0  0  0  0
    5.2735    0.4317    4.1894 C   0  0  0  0  0  0  0  0  0  0  0  0
    2.9901   -0.3985    5.5635 C   0  0  0  0  0  0  0  0  0  0  0  0
    4.2661   -0.6919    6.0887 C   0  0  0  0  0  0  0  0  0  0  0  0
    4.0101    0.7205    3.6691 C   0  0  0  0  0  0  0  0  0  0  0  0
    2.8453    0.3004    4.3724 C   0  0  0  0  0  0  0  0  0  0  0  0
    4.3328   -1.4496    7.3729 C   0  0  0  0  0  0  0  0  0  0  0  0
   -0.7913    0.1204    2.2886 C   0  0  0  0  0  0  0  0  0  0  0  0
   -0.2942   -1.3229    2.5974 C   0  0  0  0  0  0  0  0  0  0  0  0
   -0.6915    0.8860    3.6257 C   0  0  0  0  0  0  0  0  0  0  0  0
    0.1942   -1.3042    4.0682 C   0  0  0  0  0  0  0  0  0  0  0  0
    0.4306    0.1793    4.3845 C   0  0  0  0  0  0  0  0  0  0  0  0
    5.6244   -2.5391    9.2818 C   0  0  0  0  0  0  0  0  0  0  0  0
    4.9126    1.8462    1.7690 C   0  0  0  0  0  0  0  0  0  0  0  0
    5.7027   -1.7655    7.9663 C   0  0  0  0  0  0  0  0  0  0  0  0
    3.3063   -1.8123    7.9428 O   0  0  0  0  0  0  0  0  0  0  0  0
    1.6632    0.6490    3.7962 O   0  0  0  0  0  0  0  0  0  0  0  0
    3.7831    1.3929    2.5087 O   0  0  0  0  0  0  0  0  0  0  0  0
    6.3977   -0.4814    5.7696 H   0  0  0  0  0  0  0  0  0  0  0  0
    6.1660    0.7488    3.6625 H   0  0  0  0  0  0  0  0  0  0  0  0
    2.1320   -0.7436    6.1260 H   0  0  0  0  0  0  0  0  0  0  0  0
   -0.1430    0.5912    1.5451 H   0  0  0  0  0  0  0  0  0  0  0  0
   -1.8092    0.1341    1.8883 H   0  0  0  0  0  0  0  0  0  0  0  0
   -1.0831   -2.0675    2.4565 H   0  0  0  0  0  0  0  0  0  0  0  0
    0.5246   -1.5952    1.9264 H   0  0  0  0  0  0  0  0  0  0  0  0
   -0.4878    1.9531    3.5047 H   0  0  0  0  0  0  0  0  0  0  0  0
   -1.6155    0.7808    4.2057 H   0  0  0  0  0  0  0  0  0  0  0  0
   -0.5831   -1.6780    4.7445 H   0  0  0  0  0  0  0  0  0  0  0  0
    1.0846   -1.9155    4.2316 H   0  0  0  0  0  0  0  0  0  0  0  0
    0.4289    0.4098    5.4552 H   0  0  0  0  0  0  0  0  0  0  0  0
    5.0715   -1.9740   10.0367 H   0  0  0  0  0  0  0  0  0  0  0  0
    5.1061   -3.4920    9.1461 H   0  0  0  0  0  0  0  0  0  0  0  0
    6.6298   -2.7410    9.6651 H   0  0  0  0  0  0  0  0  0  0  0  0
    4.5078    2.3542    0.8930 H   0  0  0  0  0  0  0  0  0  0  0  0
    5.5413    1.0075    1.4456 H   0  0  0  0  0  0  0  0  0  0  0  0
    5.5153    2.5521    2.3534 H   0  0  0  0  0  0  0  0  0  0  0  0
    6.2793   -2.3287    7.2215 H   0  0  0  0  0  0  0  0  0  0  0  0
    6.2438   -0.8209    8.1056 H   0  0  0  0  0  0  0  0  0  0  0  0
  1  2  1  0  0  0  0
  1  4  2  0  0  0  0
  1 19  1  0  0  0  0
  2  5  2  0  0  0  0
  2 20  1  0  0  0  0
  3  4  1  0  0  0  0
  3  6  2  0  0  0  0
  3 21  1  0  0  0  0
  4  7  1  0  0  0  0
  5  6  1  0  0  0  0
  5 18  1  0  0  0  0
  6 17  1  0  0  0  0
  7 15  1  0  0  0  0
  7 16  2  0  0  0  0
  8  9  1  0  0  0  0
  8 10  1  0  0  0  0
  8 22  1  0  0  0  0
  8 23  1  0  0  0  0
  9 11  1  0  0  0  0
  9 24  1  0  0  0  0
  9 25  1  0  0  0  0
 10 12  1  0  0  0  0
 10 26  1  0  0  0  0
 10 27  1  0  0  0  0
 11 12  1  0  0  0  0
 11 28  1  0  0  0  0
 11 29  1  0  0  0  0
 12 17  1  0  0  0  0
 12 30  1  0  0  0  0
 13 15  1  0  0  0  0
 13 31  1  0  0  0  0
 13 32  1  0  0  0  0
 13 33  1  0  0  0  0
 14 18  1  0  0  0  0
 14 34  1  0  0  0  0
 14 35  1  0  0  0  0
 14 36  1  0  0  0  0
 15 37  1  0  0  0  0
 15 38  1  0  0  0  0
M  END
$$$$
