32
0 1 C14ClH14N3
C                    -1.699564427211     1.474762947104    -0.399650287852
C                    -1.199635507738     0.207011923437    -0.081999956455
C                    -3.055190068138     1.623035004216    -0.691860440720
C                    -2.064147877013    -0.886486071940    -0.062317935077
C                    -4.266745816432    -1.130825833020     3.746996665077
C                    -3.295855243834    -3.270404783393     4.142078195645
C                    -3.934093247612     0.529413123162    -0.669143884378
C                    -3.429363341437    -0.741838963390    -0.346304732302
C                    -3.725986382442    -2.042195759486     4.653928006562
C                    -3.917776930880    -2.610178603952     2.045734166406
C                    -5.405626583866     0.747087401175    -0.960473703331
C                    -6.117690761776    -0.540487172316    -1.383455546695
C                    -5.825704514369    -1.650484267525    -0.372866433134
C                    -4.326209962314    -1.982404772592    -0.351348018665
N                    -4.371976504266    -1.404319792296     2.446602339733
N                    -3.382162178899    -3.562738488557     2.847184535112
N                    -3.994936275843    -2.925292604853     0.720945126199
Cl                   -3.592518576392    -1.668404710887     6.358464154211
H                    -1.038222969757     2.337308089515    -0.421480736954
H                    -0.145695302769     0.072852138807     0.148009796886
H                    -3.447053248746     2.607397047446    -0.941780174399
H                    -1.676361488220    -1.869147466617     0.195064483172
H                    -4.624697188796    -0.157681134841     4.079678481522
H                    -2.869334871838    -4.028910468788     4.796820352898
H                    -5.888039155570     1.136714781609    -0.053427032965
H                    -5.518170770631     1.521538635289    -1.727365556323
H                    -7.197094794202    -0.368041379452    -1.455261809080
H                    -5.776180248000    -0.843091910800    -2.382557821128
H                    -6.129671455536    -1.326438797788     0.626052994697
H                    -6.382865272119    -2.563176015163    -0.609877809527
H                    -4.101955392146    -2.530749612641    -1.274848359000
H                    -3.573772129739    -3.812295280754     0.482607848679
