
  -OEChem-05262117483D

 45 47  0     1  0  0  0  0  0999 V2000
    1.9828   -2.1415   -6.2514 C   0  0  0  0  0  0  0  0  0  0  0  0
    0.9656   -0.6127   -4.9816 C   0  0  0  0  0  0  0  0  0  0  0  0
    1.6111   -1.8456   -4.9135 C   0  0  0  0  0  0  0  0  0  0  0  0
    2.7029   -3.6572   -3.6769 C   0  0  0  0  0  0  0  0  0  0  0  0
    3.9199   -3.2727   -0.2686 C   0  0  0  0  0  0  0  0  0  0  0  0
    2.8013   -4.2604   -2.2711 C   0  0  0  0  0  0  0  0  0  0  0  0
    2.9294   -0.7318   -1.6436 C   0  0  0  0  0  0  0  0  0  0  0  0
    2.5619    0.2406   -0.5119 C   0  0  0  0  0  0  0  0  0  0  0  0
    1.1139   -2.2877   -2.5092 C   0  0  0  0  0  0  0  0  0  0  0  0
    1.2794   -1.6913   -0.0790 C   0  0  0  0  0  0  0  0  0  0  0  0
    2.0968   -2.0224   -1.3619 C   0  0  2  0  0  0  0  0  0  0  0  0
    4.7785   -4.5229   -0.1709 C   0  0  0  0  0  0  0  0  0  0  0  0
    0.4812    0.9797   -6.8746 C   0  0  0  0  0  0  0  0  0  0  0  0
   -0.3018    1.9751    0.3166 C   0  0  0  0  0  0  0  0  0  0  0  0
    1.5918   -1.1664   -7.0788 N   0  0  0  0  0  0  0  0  0  0  0  0
    0.9725   -0.2578   -6.2961 N   0  0  0  0  0  0  0  0  0  0  0  0
    1.8287   -2.6071   -3.7438 N   0  0  0  0  0  0  0  0  0  0  0  0
    2.9296   -3.2369   -1.2221 N   0  0  0  0  0  0  0  0  0  0  0  0
    1.2416   -0.2147    0.0062 N   0  0  2  0  0  0  0  0  0  0  0  0
    3.3473   -4.1105   -4.6191 O   0  0  0  0  0  0  0  0  0  0  0  0
    4.1048   -2.3222    0.4985 O   0  0  0  0  0  0  0  0  0  0  0  0
   -1.2540   -0.3665   -0.5333 O   0  0  0  0  0  0  0  0  0  0  0  0
    0.2111    1.0006   -2.0888 O   0  0  0  0  0  0  0  0  0  0  0  0
   -0.1039    0.5246   -0.7252 S   0  0  0  0  0  0  0  0  0  0  0  0
    2.5123   -3.0056   -6.6212 H   0  0  0  0  0  0  0  0  0  0  0  0
    0.5272    0.0214   -4.2223 H   0  0  0  0  0  0  0  0  0  0  0  0
    1.9222   -4.8946   -2.0901 H   0  0  0  0  0  0  0  0  0  0  0  0
    3.6733   -4.9051   -2.2847 H   0  0  0  0  0  0  0  0  0  0  0  0
    2.6577   -0.3156   -2.6150 H   0  0  0  0  0  0  0  0  0  0  0  0
    3.9975   -0.9429   -1.6491 H   0  0  0  0  0  0  0  0  0  0  0  0
    3.2669    0.1528    0.3162 H   0  0  0  0  0  0  0  0  0  0  0  0
    2.5140    1.2802   -0.8391 H   0  0  0  0  0  0  0  0  0  0  0  0
    0.4334   -3.1065   -2.2459 H   0  0  0  0  0  0  0  0  0  0  0  0
    0.4982   -1.4089   -2.6670 H   0  0  0  0  0  0  0  0  0  0  0  0
    0.2674   -2.0963   -0.0951 H   0  0  0  0  0  0  0  0  0  0  0  0
    1.7978   -2.0495    0.8084 H   0  0  0  0  0  0  0  0  0  0  0  0
    5.4604   -4.6009   -1.0243 H   0  0  0  0  0  0  0  0  0  0  0  0
    4.1823   -5.4390   -0.1296 H   0  0  0  0  0  0  0  0  0  0  0  0
    5.3722   -4.4371    0.7390 H   0  0  0  0  0  0  0  0  0  0  0  0
    1.3100    1.6615   -7.0898 H   0  0  0  0  0  0  0  0  0  0  0  0
   -0.0474    0.7546   -7.8028 H   0  0  0  0  0  0  0  0  0  0  0  0
   -0.2041    1.4543   -6.1701 H   0  0  0  0  0  0  0  0  0  0  0  0
   -1.1240    2.5540   -0.1074 H   0  0  0  0  0  0  0  0  0  0  0  0
   -0.5346    1.6361    1.3254 H   0  0  0  0  0  0  0  0  0  0  0  0
    0.6222    2.5537    0.2979 H   0  0  0  0  0  0  0  0  0  0  0  0
  1  3  1  0  0  0  0
  1 15  2  0  0  0  0
  1 25  1  0  0  0  0
  2  3  2  0  0  0  0
  2 16  1  0  0  0  0
  2 26  1  0  0  0  0
  3 17  1  0  0  0  0
  4  6  1  0  0  0  0
  4 17  1  0  0  0  0
  4 20  2  0  0  0  0
  5 12  1  0  0  0  0
  5 18  1  0  0  0  0
  5 21  2  0  0  0  0
  6 18  1  0  0  0  0
  6 27  1  0  0  0  0
  6 28  1  0  0  0  0
  7  8  1  0  0  0  0
  7 11  1  0  0  0  0
  7 29  1  0  0  0  0
  7 30  1  0  0  0  0
  8 19  1  0  0  0  0
  8 31  1  0  0  0  0
  8 32  1  0  0  0  0
  9 11  1  0  0  0  0
  9 17  1  0  0  0  0
  9 33  1  0  0  0  0
  9 34  1  0  0  0  0
 10 11  1  0  0  0  0
 10 19  1  0  0  0  0
 10 35  1  0  0  0  0
 10 36  1  0  0  0  0
 11 18  1  0  0  0  0
 12 37  1  0  0  0  0
 12 38  1  0  0  0  0
 12 39  1  0  0  0  0
 13 16  1  0  0  0  0
 13 40  1  0  0  0  0
 13 41  1  0  0  0  0
 13 42  1  0  0  0  0
 14 24  1  0  0  0  0
 14 43  1  0  0  0  0
 14 44  1  0  0  0  0
 14 45  1  0  0  0  0
 15 16  1  0  0  0  0
 19 24  1  0  0  0  0
 22 24  2  0  0  0  0
 23 24  2  0  0  0  0
M  END
$$$$
