22
0 1 C9Cl2H9NO
C                     0.087886592540     3.514320086140     2.124814604565
C                    -0.733321565136     1.892485795598     3.727691719504
C                     0.131142770723     1.115812900925     1.546475015945
C                     0.375711263360     2.474761272016     1.234624498529
C                    -0.463093899275     3.208111756687     3.365820054194
C                    -0.432733277581     0.881390571661     2.811266102760
C                    -0.619976817919    -0.920688837690     0.024244698416
C                     0.303038097577    -2.076001171360     0.487443501781
C                     0.486596945246     0.060741357413     0.521050091193
N                     1.344021022827    -1.100557579208     0.938190336745
O                     0.909436503442     2.752801927179     0.001581006877
Cl                   -0.825265803859     4.503695421969     4.488552719747
Cl                   -0.815804083582    -0.754472397239     3.346694277441
H                     0.287885483865     4.548203892730     1.855868775244
H                    -1.165835033088     1.654033633706     4.692043228143
H                    -0.812032870439    -0.865263922625    -1.049958284045
H                    -1.567662662907    -0.854336116885     0.560435745547
H                    -0.116108592163    -2.696607556698     1.286129835037
H                     0.672639031062    -2.729457248071    -0.309554639754
H                     0.966665616457     0.575522026895    -0.309207123788
H                     1.497078085490    -1.136998198339     1.942369039911
H                     1.057024599010     3.709062448561    -0.073037493709
