45
0 1 C14H21N5O4S
C                    -1.474457966402     0.570695793148    -3.592383313405
C                     0.254709104942    -0.659606407091    -4.268051185484
C                    -0.555226413958    -0.420337063291    -3.159647934990
C                     0.470407017199    -1.946448165397    -1.550942266457
C                     0.983750388459    -1.191656510255     1.995152947937
C                     0.375415400381    -2.408586661677    -0.097082205473
C                     0.021546905370     1.151191604272     0.201073502071
C                    -1.094443042374     2.196347732132     0.316456168936
C                    -1.417283453893    -0.648671912552    -0.827465233684
C                    -1.762491064250     0.141058075246     1.511051808795
C                    -0.689671668525    -0.200517553785     0.451137283078
C                     1.909406787254    -2.348383154689     2.339279216415
C                     0.267811051126     0.234931704663    -6.626089416511
C                    -4.479455454398     1.683440678066    -0.096596103288
N                    -1.249518894929     0.915763473176    -4.864411353668
N                    -0.197719714495     0.168142656081    -5.250885287727
N                    -0.472364157946    -1.009802248216    -1.880820179241
N                     0.225361100883    -1.290402173706     0.843903292925
N                    -2.058444320368     1.559774154726     1.239509735535
O                     1.310613430504    -2.399785777900    -2.324694076469
O                     0.912877573507    -0.207521113624     2.731489452605
O                    -3.475441097799     3.624405080573     1.376471106029
O                    -4.215374070711     1.444755884580     2.516716325149
S                    -3.588610158182     2.165823663473     1.407845451338
H                    -2.281366131272     1.051789681702    -3.055783498046
H                     1.084797935734    -1.333702956236    -4.399737050778
H                    -0.459598022327    -3.117877898086    -0.001664971425
H                     1.291286259488    -2.954504446324     0.100148956746
H                     0.513175357495     1.177506703232    -0.774479084712
H                     0.765308676489     1.308131928060     0.980011772633
H                    -0.746825368495     3.144362116791     0.729260225296
H                    -1.551966113232     2.405611473937    -0.660063849039
H                    -2.081251937525    -1.494230027283    -0.610892787292
H                    -2.046089879327     0.166714020490    -1.171919644950
H                    -2.654804451510    -0.483421389848     1.402622329391
H                    -1.376250830723     0.023343229162     2.521382990800
H                     2.747262166756    -2.411027671481     1.636858091937
H                     1.393377291306    -3.313016090352     2.339328085930
H                     2.306301628202    -2.153876482506     3.335278395684
H                    -0.363560380917    -0.376519824971    -7.278134849656
H                     0.230290174929     1.273159135384    -6.958635308497
H                     1.296334012108    -0.127084351941    -6.673392837253
H                    -5.491793419264     2.082688055681    -0.011589525966
H                    -3.981081035315     2.121774883664    -0.963125262164
H                    -4.511480835846     0.594294514359    -0.157860314244
