
  -OEChem-05262117483D

 15 15  0     0  0  0  0  0  0999 V2000
    0.1231   -0.6762    1.1610 C   0  0  0  0  0  0  0  0  0  0  0  0
    1.2240   -0.0572    1.7624 C   0  0  0  0  0  0  0  0  0  0  0  0
    1.5849   -0.4646    3.0576 C   0  0  0  0  0  0  0  0  0  0  0  0
   -0.5615   -1.6621    1.8690 C   0  0  0  0  0  0  0  0  0  0  0  0
    0.8102   -1.4697    3.6609 C   0  0  0  0  0  0  0  0  0  0  0  0
    1.9347    1.0102    0.9510 C   0  0  0  0  0  0  0  0  0  0  0  0
   -0.2238   -2.0496    3.0937 N   0  0  0  0  0  0  0  0  0  0  0  0
    1.5544    1.2988   -0.1624 O   0  0  0  0  0  0  0  0  0  0  0  0
    2.6547    0.1119    3.6833 O   0  0  0  0  0  0  0  0  0  0  0  0
    2.9976    1.6257    1.5033 O   0  0  0  0  0  0  0  0  0  0  0  0
   -1.9402   -2.4512    1.1399 Cl  0  0  0  0  0  0  0  0  0  0  0  0
    1.2554   -1.9863    5.2877 Cl  0  0  0  0  0  0  0  0  0  0  0  0
   -0.1709   -0.3757    0.1624 H   0  0  0  0  0  0  0  0  0  0  0  0
    2.7691   -0.2754    4.5725 H   0  0  0  0  0  0  0  0  0  0  0  0
    3.1810    1.2853    2.4014 H   0  0  0  0  0  0  0  0  0  0  0  0
  1  2  1  0  0  0  0
  1  4  2  0  0  0  0
  1 13  1  0  0  0  0
  2  3  2  0  0  0  0
  2  6  1  0  0  0  0
  3  5  1  0  0  0  0
  3  9  1  0  0  0  0
  4  7  1  0  0  0  0
  4 11  1  0  0  0  0
  5  7  2  0  0  0  0
  5 12  1  0  0  0  0
  6  8  2  0  0  0  0
  6 10  1  0  0  0  0
  9 14  1  0  0  0  0
 10 15  1  0  0  0  0
M  END
$$$$
