
  -OEChem-05262117483D

 27 29  0     0  0  0  0  0  0999 V2000
    0.7687    1.3525    1.3796 C   0  0  0  0  0  0  0  0  0  0  0  0
    0.4707    1.8797    2.6504 C   0  0  0  0  0  0  0  0  0  0  0  0
    1.1356   -2.3765    2.0298 C   0  0  0  0  0  0  0  0  0  0  0  0
    0.3700   -3.2858    2.8169 C   0  0  0  0  0  0  0  0  0  0  0  0
   -1.3787    0.1716    1.3016 C   0  0  0  0  0  0  0  0  0  0  0  0
   -0.1347    0.5125    0.7224 C   0  0  0  0  0  0  0  0  0  0  0  0
   -0.7535    1.5486    3.2016 C   0  0  0  0  0  0  0  0  0  0  0  0
   -1.6592    0.7203    2.5369 C   0  0  0  0  0  0  0  0  0  0  0  0
    0.8028   -2.4274    0.6996 C   0  0  0  0  0  0  0  0  0  0  0  0
   -0.5335   -3.9841    2.0547 C   0  0  0  0  0  0  0  0  0  0  0  0
   -2.4962    1.1862    4.5599 C   0  0  0  0  0  0  0  0  0  0  0  0
    0.2307   -0.0425   -0.5446 N   0  0  0  0  0  0  0  0  0  0  0  0
    1.2423   -1.9359   -1.8526 O   0  0  0  0  0  0  0  0  0  0  0  0
    2.6340   -0.7458   -0.0474 O   0  0  0  0  0  0  0  0  0  0  0  0
   -1.3008    1.9665    4.3958 O   0  0  0  0  0  0  0  0  0  0  0  0
   -2.8037    0.5834    3.2898 O   0  0  0  0  0  0  0  0  0  0  0  0
   -0.4640   -3.5746    0.3634 S   0  0  0  0  0  0  0  0  0  0  0  0
    1.3810   -1.3042   -0.5418 S   0  0  0  0  0  0  0  0  0  0  0  0
   -1.6314   -5.1957    2.6117 Cl  0  0  0  0  0  0  0  0  0  0  0  0
    1.7133    1.5801    0.8990 H   0  0  0  0  0  0  0  0  0  0  0  0
    1.1656    2.5334    3.1674 H   0  0  0  0  0  0  0  0  0  0  0  0
    1.8934   -1.7039    2.4153 H   0  0  0  0  0  0  0  0  0  0  0  0
    0.4798   -3.4236    3.8865 H   0  0  0  0  0  0  0  0  0  0  0  0
   -2.0754   -0.4986    0.8070 H   0  0  0  0  0  0  0  0  0  0  0  0
   -2.3163    0.3954    5.3006 H   0  0  0  0  0  0  0  0  0  0  0  0
   -3.3179    1.8403    4.8580 H   0  0  0  0  0  0  0  0  0  0  0  0
   -0.5586   -0.3291   -1.1215 H   0  0  0  0  0  0  0  0  0  0  0  0
  1  2  1  0  0  0  0
  1  6  2  0  0  0  0
  1 20  1  0  0  0  0
  2  7  2  0  0  0  0
  2 21  1  0  0  0  0
  3  4  1  0  0  0  0
  3  9  2  0  0  0  0
  3 22  1  0  0  0  0
  4 10  2  0  0  0  0
  4 23  1  0  0  0  0
  5  6  1  0  0  0  0
  5  8  2  0  0  0  0
  5 24  1  0  0  0  0
  6 12  1  0  0  0  0
  7  8  1  0  0  0  0
  7 15  1  0  0  0  0
  8 16  1  0  0  0  0
  9 17  1  0  0  0  0
  9 18  1  0  0  0  0
 10 17  1  0  0  0  0
 10 19  1  0  0  0  0
 11 15  1  0  0  0  0
 11 16  1  0  0  0  0
 11 25  1  0  0  0  0
 11 26  1  0  0  0  0
 12 18  1  0  0  0  0
 12 27  1  0  0  0  0
 13 18  2  0  0  0  0
 14 18  2  0  0  0  0
M  END
$$$$
