40
0 1 C18H17N3O2
C                     1.541918614950    -0.795201987079    -0.168864385003
C                     0.435759821969    -0.733542533664    -1.025296033059
C                     2.552740645860    -1.723553580660    -0.417187712748
C                     0.359195383318    -1.598983132684    -2.116082175152
C                     5.968155278198    -7.201331894961    -7.736339458427
C                     5.469921562044    -6.498688838852    -6.641243601879
C                     3.236218501513    -6.294913654283    -7.638790952579
C                     2.482828202877    -2.596878597321    -1.512902669590
C                     1.375400294776    -2.530732927684    -2.373001150584
C                     5.091438743627    -7.458346635593    -8.793742646689
C                     4.127168474273    -6.046165058565    -6.580165714218
C                     3.769340675371    -7.001513135558    -8.707033563403
C                     4.103475427224    -8.045637346690   -10.595712892073
C                     2.544853831046    -4.740012967662    -5.125902658330
C                     3.589618748779    -3.597701470287    -1.771280999351
C                     1.225288537215    -3.454101534644    -3.566322616388
C                     3.098205878157    -4.736759273956    -2.661738609758
C                     3.692577027959    -8.576008656320   -11.922745469025
N                     5.261845521446    -8.120641829134   -10.017662086041
N                     2.461439235737    -4.179143386763    -3.856961758537
N                     3.754341877599    -5.361986334155    -5.403446336715
O                     1.629482742773    -4.644670543396    -5.943551014451
O                     3.128877603133    -7.378325230394    -9.867984280252
H                     1.612251113511    -0.127054305259     0.685517934344
H                    -0.359038074809    -0.014814310721    -0.843762066111
H                     3.410971507016    -1.778532357003     0.249983176734
H                    -0.498824410215    -1.550501154917    -2.784053900258
H                     7.000028767023    -7.537424782413    -7.765921903866
H                     6.131447406006    -6.290522938672    -5.802521334854
H                     2.215524971369    -5.941340265527    -7.612627764520
H                     4.434029485606    -3.097951010537    -2.263196583031
H                     3.961933117788    -4.002311376294    -0.823366184676
H                     0.401285239054    -4.162241683617    -3.385549939651
H                     0.951264495835    -2.883748891750    -4.454518549856
H                     3.919207646137    -5.401157539444    -2.931204577943
H                     2.366269085112    -5.350733343727    -2.114467549647
H                     2.868159569253    -9.288576161134   -11.816036413525
H                     3.348293392762    -7.765128497890   -12.572959869644
H                     4.543888680123    -9.074690892494   -12.386649729113
H                     4.519594551264    -5.169873061703    -4.773422676693
