15
0 1 C6Cl2H3NO3
C                     0.155338356202    -0.382910258927     0.946486306087
C                     1.255224785245     0.080734794288     1.682363945320
C                     1.497661762661    -0.466618452336     2.960551105597
C                    -0.657240577493    -1.365763395674     1.503178609711
C                     0.586731720043    -1.457969963416     3.394171173056
C                     2.147209765128     1.136296969742     1.111863196309
N                    -0.442604141802    -1.890227007966     2.702942850389
O                     3.120315849246     1.617569561441     1.651326966358
O                     2.538640629122    -0.058920305170     3.709977332457
O                     1.737700291996     1.520663058677    -0.131005152897
Cl                   -2.037706288824    -1.962413505344     0.605332981637
Cl                    0.851066717200    -2.171158912779     4.986964244735
H                    -0.051889000569     0.020762013856    -0.035757705357
H                     2.529535828289    -0.555563933766     4.550072740259
H                     2.371866636978     2.204483355487    -0.419790862450
