40
0 1 C18H17N3O2
C                     0.780757745857    -1.214337950397     2.111326062677
C                    -0.065910789041    -1.157848944629     0.997255451259
C                     1.583895110343    -2.336932103815     2.310783976139
C                    -0.092564397371    -2.223728228863     0.098903400594
C                     0.979935835703    -7.466339391684    -6.146259340721
C                     0.853702363674    -6.786189404506    -4.937063336487
C                     2.397886645559    -8.306421490679    -3.783996529268
C                     1.567094855760    -3.411633306619     1.409019071139
C                     0.721762731448    -3.348691995496     0.292202051166
C                     1.825412028510    -8.578575462131    -6.177454358457
C                     1.546178941296    -7.188313532316    -3.766132781953
C                     2.497583367461    -8.954624435803    -5.006693103588
C                     2.994485398581   -10.304222266749    -6.650276566905
C                     1.836074340751    -6.591982712300    -1.338855909285
C                     2.420385964073    -4.638835946598     1.631527430597
C                     0.669382458632    -4.455483038824    -0.747451681475
C                     1.773757024811    -5.862462909707     0.990161015817
C                     3.687415565741   -11.468178741906    -7.263727343916
N                     2.171879604514    -9.468405473658    -7.203946210302
N                     1.513629483906    -5.600334645020    -0.425700110277
N                     1.330129311405    -6.397210864125    -2.616952913641
O                     2.528906409040    -7.565559335502    -1.035741721317
O                     3.252722109936   -10.068038184840    -5.308058472002
H                     0.806785136460    -0.391785571478     2.821244897965
H                    -0.701683260943    -0.291762262569     0.833908934618
H                     2.233548614870    -2.389551644107     3.182113539624
H                    -0.753012810073    -2.182413384903    -0.765942080443
H                     0.441077052791    -7.143418931529    -7.031688460560
H                     0.202604570494    -5.915431352409    -4.887513833658
H                     2.924232879863    -8.627250631914    -2.896630372125
H                     3.416507335652    -4.493812794138     1.195155228884
H                     2.559040611680    -4.812227987692     2.704093752613
H                    -0.381744428614    -4.760741315264    -0.883955520060
H                     1.009981755709    -4.017578620373    -1.693602621504
H                     2.422231300258    -6.734758898947     1.043975226581
H                     0.831084393046    -6.100512716999     1.504392600442
H                     4.773880573734   -11.353190708946    -7.191616365418
H                     3.416824466263   -12.395132413341    -6.747635902483
H                     3.400437864213   -11.541463419582    -8.312969513608
H                     0.680711301321    -5.638306036235    -2.757440546438
