45
0 1 C14H21N5O4S
C                     1.904682838169     2.432236718369     3.345426569931
C                    -0.163913418896     3.066787489428     3.887221280925
C                     0.575418038281     2.502126607820     2.850576666867
C                    -1.190441323583     2.245769761463     1.177219592845
C                    -1.456657392263    -0.187117866042    -1.578985441225
C                    -1.444076489835     1.837838617571    -0.268096902072
C                     1.676571095313    -0.076000505081    -1.132786540421
C                     2.313044621183    -1.370273879964    -0.587449850560
C                     1.050527213047     1.628279298544     0.566444013013
C                     0.562000607227    -0.825845951419     0.937864374167
C                     0.572581283300     0.328464697417    -0.107382438792
C                    -0.924567431472    -1.548432400114    -2.002107924016
C                     0.425603186179     3.793102245577     6.227956666021
C                     4.010101208800    -2.567262946013     2.087358176860
N                     1.978798763283     2.917862761020     4.587777013402
N                     0.721812622276     3.300758896207     4.895209737209
N                     0.111536993197     2.095741153518     1.578085421917
N                    -0.766277647587     0.590709074168    -0.667463101138
N                     1.869284163674    -1.503803208156     0.823896907084
O                    -2.087226374692     2.703366477913     1.882572422572
O                    -2.517175979058     0.203854799280    -2.067806999839
O                     2.303729583537    -0.888818960257     3.257201176974
O                     3.896558374678     0.014153511263     1.496512410927
S                     3.024861144159    -1.066499109500     1.996576371132
H                     2.800367306515     2.049687384759     2.875447133210
H                    -1.212073246564     3.305621463262     3.955317926395
H                    -2.514821346849     1.703281013390    -0.391403785996
H                    -1.145941261449     2.666893478429    -0.926042634657
H                     2.429378621671     0.713795079524    -1.190049843575
H                     1.276657684677    -0.210783512295    -2.136365871018
H                     1.963949510991    -2.253946845852    -1.128875852041
H                     3.401705227758    -1.347437168644    -0.650320659404
H                     2.019028095447     1.442451254326     1.022265160001
H                     1.203091960984     2.396688344933    -0.202542376297
H                     0.396300072223    -0.473548038493     1.956096939235
H                    -0.223263738759    -1.548420191995     0.708184070682
H                    -1.789912207083    -2.208427487866    -2.087416698568
H                    -0.195657674950    -2.005498256570    -1.337907756018
H                    -0.485314865284    -1.462589310041    -3.000930200204
H                     0.333661143541     2.963661741536     6.936631416272
H                     1.235104023042     4.450796841242     6.548894950056
H                    -0.511119488157     4.353211700456     6.203038473186
H                     4.812993119729    -2.364411180968     2.798211263931
H                     3.366112477520    -3.372459174980     2.439373138731
H                     4.423490074772    -2.789475278447     1.103089110066
