
  -OEChem-05262117483D

 45 47  0     1  0  0  0  0  0999 V2000
    2.6981    3.2341    0.4022 C   0  0  0  0  0  0  0  0  0  0  0  0
    2.7927    1.9931   -1.4500 C   0  0  0  0  0  0  0  0  0  0  0  0
    1.9768    2.2726   -0.3570 C   0  0  0  0  0  0  0  0  0  0  0  0
    0.0168    1.9464    1.0688 C   0  0  0  0  0  0  0  0  0  0  0  0
   -1.7356   -1.2495    1.5121 C   0  0  0  0  0  0  0  0  0  0  0  0
   -1.3038    1.1810    1.1531 C   0  0  0  0  0  0  0  0  0  0  0  0
   -1.1224   -1.3498   -1.5009 C   0  0  0  0  0  0  0  0  0  0  0  0
   -0.0349   -2.1558   -2.2398 C   0  0  0  0  0  0  0  0  0  0  0  0
    0.0664    0.8119   -1.0500 C   0  0  0  0  0  0  0  0  0  0  0  0
    0.8815   -1.3835   -0.1145 C   0  0  0  0  0  0  0  0  0  0  0  0
   -0.3686   -0.5267   -0.4295 C   0  0  2  0  0  0  0  0  0  0  0  0
   -2.5607   -0.8733    2.7330 C   0  0  0  0  0  0  0  0  0  0  0  0
    5.0455    2.8364   -2.1900 C   0  0  0  0  0  0  0  0  0  0  0  0
    3.0611   -3.2624   -2.9159 C   0  0  0  0  0  0  0  0  0  0  0  0
    3.8671    3.5180   -0.1808 N   0  0  0  0  0  0  0  0  0  0  0  0
    3.9071    2.7559   -1.2934 N   0  0  0  0  0  0  0  0  0  0  0  0
    0.7233    1.6794   -0.0723 N   0  0  0  0  0  0  0  0  0  0  0  0
   -1.1654   -0.2317    0.7783 N   0  0  0  0  0  0  0  0  0  0  0  0
    1.1856   -2.0769   -1.3876 N   0  0  2  0  0  0  0  0  0  0  0  0
    0.3597    2.7239    1.9556 O   0  0  0  0  0  0  0  0  0  0  0  0
   -1.5942   -2.4348    1.1974 O   0  0  0  0  0  0  0  0  0  0  0  0
    3.6079   -1.3456   -1.1415 O   0  0  0  0  0  0  0  0  0  0  0  0
    2.3866   -0.7346   -3.2771 O   0  0  0  0  0  0  0  0  0  0  0  0
    2.6226   -1.6871   -2.1701 S   0  0  0  0  0  0  0  0  0  0  0  0
    2.4127    3.7024    1.3303 H   0  0  0  0  0  0  0  0  0  0  0  0
    2.6942    1.3133   -2.2835 H   0  0  0  0  0  0  0  0  0  0  0  0
   -1.6318    1.2736    2.1823 H   0  0  0  0  0  0  0  0  0  0  0  0
   -2.0513    1.6811    0.5200 H   0  0  0  0  0  0  0  0  0  0  0  0
   -1.6751   -0.7002   -2.1857 H   0  0  0  0  0  0  0  0  0  0  0  0
   -1.8249   -2.0223   -1.0151 H   0  0  0  0  0  0  0  0  0  0  0  0
   -0.3264   -3.2029   -2.3585 H   0  0  0  0  0  0  0  0  0  0  0  0
    0.1739   -1.7357   -3.2267 H   0  0  0  0  0  0  0  0  0  0  0  0
    0.7462    0.6070   -1.8737 H   0  0  0  0  0  0  0  0  0  0  0  0
   -0.8032    1.3236   -1.4809 H   0  0  0  0  0  0  0  0  0  0  0  0
    1.7293   -0.7845    0.2187 H   0  0  0  0  0  0  0  0  0  0  0  0
    0.6487   -2.1302    0.6426 H   0  0  0  0  0  0  0  0  0  0  0  0
   -3.3607   -0.1665    2.4934 H   0  0  0  0  0  0  0  0  0  0  0  0
   -1.9380   -0.4268    3.5152 H   0  0  0  0  0  0  0  0  0  0  0  0
   -2.9991   -1.7933    3.1188 H   0  0  0  0  0  0  0  0  0  0  0  0
    5.0215    3.7686   -2.7633 H   0  0  0  0  0  0  0  0  0  0  0  0
    5.9654    2.7994   -1.6034 H   0  0  0  0  0  0  0  0  0  0  0  0
    5.0168    1.9865   -2.8737 H   0  0  0  0  0  0  0  0  0  0  0  0
    3.9743   -3.0950   -3.4896 H   0  0  0  0  0  0  0  0  0  0  0  0
    3.2243   -3.9816   -2.1137 H   0  0  0  0  0  0  0  0  0  0  0  0
    2.2524   -3.5798   -3.5754 H   0  0  0  0  0  0  0  0  0  0  0  0
  1  3  1  0  0  0  0
  1 15  2  0  0  0  0
  1 25  1  0  0  0  0
  2  3  2  0  0  0  0
  2 16  1  0  0  0  0
  2 26  1  0  0  0  0
  3 17  1  0  0  0  0
  4  6  1  0  0  0  0
  4 17  1  0  0  0  0
  4 20  2  0  0  0  0
  5 12  1  0  0  0  0
  5 18  1  0  0  0  0
  5 21  2  0  0  0  0
  6 18  1  0  0  0  0
  6 27  1  0  0  0  0
  6 28  1  0  0  0  0
  7  8  1  0  0  0  0
  7 11  1  0  0  0  0
  7 29  1  0  0  0  0
  7 30  1  0  0  0  0
  8 19  1  0  0  0  0
  8 31  1  0  0  0  0
  8 32  1  0  0  0  0
  9 11  1  0  0  0  0
  9 17  1  0  0  0  0
  9 33  1  0  0  0  0
  9 34  1  0  0  0  0
 10 11  1  0  0  0  0
 10 19  1  0  0  0  0
 10 35  1  0  0  0  0
 10 36  1  0  0  0  0
 11 18  1  0  0  0  0
 12 37  1  0  0  0  0
 12 38  1  0  0  0  0
 12 39  1  0  0  0  0
 13 16  1  0  0  0  0
 13 40  1  0  0  0  0
 13 41  1  0  0  0  0
 13 42  1  0  0  0  0
 14 24  1  0  0  0  0
 14 43  1  0  0  0  0
 14 44  1  0  0  0  0
 14 45  1  0  0  0  0
 15 16  1  0  0  0  0
 19 24  1  0  0  0  0
 22 24  2  0  0  0  0
 23 24  2  0  0  0  0
M  END
$$$$
