
  -OEChem-05262117483D

 28 30  0     0  0  0  0  0  0999 V2000
   -0.6998    1.8211   -0.6925 C   0  0  0  0  0  0  0  0  0  0  0  0
   -0.9373    0.6486    0.0563 C   0  0  0  0  0  0  0  0  0  0  0  0
   -1.7551    2.5394   -1.2390 C   0  0  0  0  0  0  0  0  0  0  0  0
   -2.2318    0.1809    0.2673 C   0  0  0  0  0  0  0  0  0  0  0  0
  -11.8265    2.3996   -1.5637 C   0  0  0  0  0  0  0  0  0  0  0  0
  -11.3624    1.0931   -1.7342 C   0  0  0  0  0  0  0  0  0  0  0  0
   -9.5654    3.1106   -1.0281 C   0  0  0  0  0  0  0  0  0  0  0  0
   -3.0717    2.0818   -1.0358 C   0  0  0  0  0  0  0  0  0  0  0  0
   -9.0881    1.7969   -1.2005 C   0  0  0  0  0  0  0  0  0  0  0  0
   -3.3000    0.9020   -0.2809 C   0  0  0  0  0  0  0  0  0  0  0  0
  -10.9163    3.3962   -1.2084 C   0  0  0  0  0  0  0  0  0  0  0  0
  -10.0147    0.7910   -1.5464 C   0  0  0  0  0  0  0  0  0  0  0  0
   -4.3148    2.6377   -1.4905 C   0  0  0  0  0  0  0  0  0  0  0  0
   -5.4278    1.9265   -1.1057 C   0  0  0  0  0  0  0  0  0  0  0  0
   -6.8120    2.2205   -1.3971 C   0  0  0  0  0  0  0  0  0  0  0  0
   -7.7528    1.4542   -0.9705 N   0  0  0  0  0  0  0  0  0  0  0  0
   -5.0034    0.5117   -0.1498 S   0  0  0  0  0  0  0  0  0  0  0  0
  -11.4837    5.0404   -0.9681 Cl  0  0  0  0  0  0  0  0  0  0  0  0
   -9.4642   -0.8506   -1.7862 Cl  0  0  0  0  0  0  0  0  0  0  0  0
   -4.3784    4.0928   -2.4460 Cl  0  0  0  0  0  0  0  0  0  0  0  0
    0.3205    2.1627   -0.8414 H   0  0  0  0  0  0  0  0  0  0  0  0
   -0.0976    0.1011    0.4754 H   0  0  0  0  0  0  0  0  0  0  0  0
   -1.5790    3.4420   -1.8167 H   0  0  0  0  0  0  0  0  0  0  0  0
   -2.4084   -0.7226    0.8444 H   0  0  0  0  0  0  0  0  0  0  0  0
  -12.8775    2.6338   -1.6962 H   0  0  0  0  0  0  0  0  0  0  0  0
  -12.0526    0.3034   -2.0135 H   0  0  0  0  0  0  0  0  0  0  0  0
   -8.8815    3.8915   -0.7121 H   0  0  0  0  0  0  0  0  0  0  0  0
   -7.0005    3.1112   -2.0089 H   0  0  0  0  0  0  0  0  0  0  0  0
  1  2  1  0  0  0  0
  1  3  2  0  0  0  0
  1 21  1  0  0  0  0
  2  4  2  0  0  0  0
  2 22  1  0  0  0  0
  3  8  1  0  0  0  0
  3 23  1  0  0  0  0
  4 10  1  0  0  0  0
  4 24  1  0  0  0  0
  5  6  2  0  0  0  0
  5 11  1  0  0  0  0
  5 25  1  0  0  0  0
  6 12  1  0  0  0  0
  6 26  1  0  0  0  0
  7  9  1  0  0  0  0
  7 11  2  0  0  0  0
  7 27  1  0  0  0  0
  8 10  2  0  0  0  0
  8 13  1  0  0  0  0
  9 12  2  0  0  0  0
  9 16  1  0  0  0  0
 10 17  1  0  0  0  0
 11 18  1  0  0  0  0
 12 19  1  0  0  0  0
 13 14  2  0  0  0  0
 13 20  1  0  0  0  0
 14 15  1  0  0  0  0
 14 17  1  0  0  0  0
 15 16  2  0  0  0  0
 15 28  1  0  0  0  0
M  END
$$$$
