
  -OEChem-05262117483D

 40 43  0     0  0  0  0  0  0999 V2000
    1.5419   -0.7952   -0.1689 C   0  0  0  0  0  0  0  0  0  0  0  0
    0.4358   -0.7335   -1.0253 C   0  0  0  0  0  0  0  0  0  0  0  0
    2.5527   -1.7236   -0.4172 C   0  0  0  0  0  0  0  0  0  0  0  0
    0.3592   -1.5990   -2.1161 C   0  0  0  0  0  0  0  0  0  0  0  0
    5.9682   -7.2013   -7.7363 C   0  0  0  0  0  0  0  0  0  0  0  0
    5.4699   -6.4987   -6.6412 C   0  0  0  0  0  0  0  0  0  0  0  0
    3.2362   -6.2949   -7.6388 C   0  0  0  0  0  0  0  0  0  0  0  0
    2.4828   -2.5969   -1.5129 C   0  0  0  0  0  0  0  0  0  0  0  0
    1.3754   -2.5307   -2.3730 C   0  0  0  0  0  0  0  0  0  0  0  0
    5.0914   -7.4583   -8.7937 C   0  0  0  0  0  0  0  0  0  0  0  0
    4.1272   -6.0462   -6.5802 C   0  0  0  0  0  0  0  0  0  0  0  0
    3.7693   -7.0015   -8.7070 C   0  0  0  0  0  0  0  0  0  0  0  0
    4.1035   -8.0456  -10.5957 C   0  0  0  0  0  0  0  0  0  0  0  0
    2.5449   -4.7400   -5.1259 C   0  0  0  0  0  0  0  0  0  0  0  0
    3.5896   -3.5977   -1.7713 C   0  0  0  0  0  0  0  0  0  0  0  0
    1.2253   -3.4541   -3.5663 C   0  0  0  0  0  0  0  0  0  0  0  0
    3.0982   -4.7368   -2.6617 C   0  0  0  0  0  0  0  0  0  0  0  0
    3.6926   -8.5760  -11.9227 C   0  0  0  0  0  0  0  0  0  0  0  0
    5.2618   -8.1206  -10.0177 N   0  0  0  0  0  0  0  0  0  0  0  0
    2.4614   -4.1791   -3.8570 N   0  0  0  0  0  0  0  0  0  0  0  0
    3.7543   -5.3620   -5.4034 N   0  0  0  0  0  0  0  0  0  0  0  0
    1.6295   -4.6447   -5.9436 O   0  0  0  0  0  0  0  0  0  0  0  0
    3.1289   -7.3783   -9.8680 O   0  0  0  0  0  0  0  0  0  0  0  0
    1.6123   -0.1271    0.6855 H   0  0  0  0  0  0  0  0  0  0  0  0
   -0.3590   -0.0148   -0.8438 H   0  0  0  0  0  0  0  0  0  0  0  0
    3.4110   -1.7785    0.2500 H   0  0  0  0  0  0  0  0  0  0  0  0
   -0.4988   -1.5505   -2.7841 H   0  0  0  0  0  0  0  0  0  0  0  0
    7.0000   -7.5374   -7.7659 H   0  0  0  0  0  0  0  0  0  0  0  0
    6.1314   -6.2905   -5.8025 H   0  0  0  0  0  0  0  0  0  0  0  0
    2.2155   -5.9413   -7.6126 H   0  0  0  0  0  0  0  0  0  0  0  0
    4.4340   -3.0980   -2.2632 H   0  0  0  0  0  0  0  0  0  0  0  0
    3.9619   -4.0023   -0.8234 H   0  0  0  0  0  0  0  0  0  0  0  0
    0.4013   -4.1622   -3.3856 H   0  0  0  0  0  0  0  0  0  0  0  0
    0.9513   -2.8837   -4.4545 H   0  0  0  0  0  0  0  0  0  0  0  0
    3.9192   -5.4012   -2.9312 H   0  0  0  0  0  0  0  0  0  0  0  0
    2.3663   -5.3507   -2.1145 H   0  0  0  0  0  0  0  0  0  0  0  0
    2.8682   -9.2886  -11.8160 H   0  0  0  0  0  0  0  0  0  0  0  0
    3.3483   -7.7651  -12.5730 H   0  0  0  0  0  0  0  0  0  0  0  0
    4.5439   -9.0747  -12.3867 H   0  0  0  0  0  0  0  0  0  0  0  0
    4.5196   -5.1699   -4.7734 H   0  0  0  0  0  0  0  0  0  0  0  0
  1  2  1  0  0  0  0
  1  3  2  0  0  0  0
  1 24  1  0  0  0  0
  2  4  2  0  0  0  0
  2 25  1  0  0  0  0
  3  8  1  0  0  0  0
  3 26  1  0  0  0  0
  4  9  1  0  0  0  0
  4 27  1  0  0  0  0
  5  6  2  0  0  0  0
  5 10  1  0  0  0  0
  5 28  1  0  0  0  0
  6 11  1  0  0  0  0
  6 29  1  0  0  0  0
  7 11  2  0  0  0  0
  7 12  1  0  0  0  0
  7 30  1  0  0  0  0
  8  9  2  0  0  0  0
  8 15  1  0  0  0  0
  9 16  1  0  0  0  0
 10 12  2  0  0  0  0
 10 19  1  0  0  0  0
 11 21  1  0  0  0  0
 12 23  1  0  0  0  0
 13 18  1  0  0  0  0
 13 19  2  0  0  0  0
 13 23  1  0  0  0  0
 14 20  1  0  0  0  0
 14 21  1  0  0  0  0
 14 22  2  0  0  0  0
 15 17  1  0  0  0  0
 15 31  1  0  0  0  0
 15 32  1  0  0  0  0
 16 20  1  0  0  0  0
 16 33  1  0  0  0  0
 16 34  1  0  0  0  0
 17 20  1  0  0  0  0
 17 35  1  0  0  0  0
 17 36  1  0  0  0  0
 18 37  1  0  0  0  0
 18 38  1  0  0  0  0
 18 39  1  0  0  0  0
 21 40  1  0  0  0  0
M  END
$$$$
