45
0 1 C14H21N5O4S
C                     0.462801534158    -0.498438460108    -4.602788135711
C                    -1.601318619261     0.123744947403    -4.036562101374
C                    -0.463650921790    -0.495694379932    -3.524445045383
C                     0.726514742800    -1.856904893639    -1.869546905451
C                     1.074783182938    -1.265743415290     1.733781311409
C                     0.672042738305    -2.309617214475    -0.416284354332
C                     0.100683896696     1.196192749599    -0.177982759231
C                    -0.948796460950     2.232303757233     0.227290375157
C                    -1.259571155806    -0.675889385659    -1.175092903720
C                    -1.696037053636     0.123705439032     1.145369760645
C                    -0.567655770616    -0.180948749871     0.109140169690
C                     0.917949192018    -0.157622454380     2.762471651142
C                    -2.139788472798     1.193961542683    -6.260604719710
C                    -4.213181218559     2.452637452359     1.275715606364
N                    -0.065727090464     0.080504967334    -5.684849341540
N                    -1.314590461831     0.443431018237    -5.331201783306
N                    -0.294170341676    -0.997785972580    -2.216904462272
N                     0.382415965078    -1.220022033321     0.530296542181
N                    -1.578447299752     1.568693955206     1.381489118889
O                     1.585722301042    -2.255315007071    -2.646184657466
O                     1.819116740616    -2.211627951636     1.987688257784
O                    -2.242639932267     3.722044287394     2.492670951913
O                    -3.027238012394     1.465325240889     3.424485470577
S                    -2.725319955426     2.354675997784     2.302508665877
H                     1.457672899205    -0.913894821442    -4.625597144603
H                    -2.573504675881     0.328386866033    -3.611260244575
H                    -0.072654766291    -3.113765445019    -0.324625051078
H                     1.638137795894    -2.736568347303    -0.162441771781
H                     0.399005331959     1.284124946631    -1.225020239078
H                     0.995241820846     1.310592797885     0.433927731089
H                    -0.524090256603     3.187596815671     0.535446664132
H                    -1.668029608913     2.415498456896    -0.586831771578
H                    -1.899013984966    -1.539785893205    -0.951799467536
H                    -1.906625426543     0.125351598207    -1.529717349544
H                    -2.674620868024    -0.146472272501     0.722033257422
H                    -1.582018044692    -0.423658645142     2.078394417629
H                     0.424710316055    -0.583253316526     3.641671984787
H                     0.368222257514     0.729705263331     2.458449876632
H                     1.925542770976     0.129198086808     3.073074754996
H                    -1.920222545011     2.265368268094    -6.203797175720
H                    -1.930745757730     0.838784053756    -7.270263227520
H                    -3.194035293626     1.026847268426    -6.028636121671
H                    -4.972538657010     2.960377059213     1.873098986311
H                    -3.989546780581     3.034722604902     0.380337854421
H                    -4.546572222426     1.443685909427     1.027972690767
