
  -OEChem-05262117483D

 45 47  0     1  0  0  0  0  0999 V2000
   -1.4745    0.5707   -3.5924 C   0  0  0  0  0  0  0  0  0  0  0  0
    0.2547   -0.6596   -4.2681 C   0  0  0  0  0  0  0  0  0  0  0  0
   -0.5552   -0.4203   -3.1596 C   0  0  0  0  0  0  0  0  0  0  0  0
    0.4704   -1.9464   -1.5509 C   0  0  0  0  0  0  0  0  0  0  0  0
    0.9838   -1.1917    1.9952 C   0  0  0  0  0  0  0  0  0  0  0  0
    0.3754   -2.4086   -0.0971 C   0  0  0  0  0  0  0  0  0  0  0  0
    0.0215    1.1512    0.2011 C   0  0  0  0  0  0  0  0  0  0  0  0
   -1.0944    2.1963    0.3165 C   0  0  0  0  0  0  0  0  0  0  0  0
   -1.4173   -0.6487   -0.8275 C   0  0  0  0  0  0  0  0  0  0  0  0
   -1.7625    0.1411    1.5111 C   0  0  0  0  0  0  0  0  0  0  0  0
   -0.6897   -0.2005    0.4511 C   0  0  2  0  0  0  0  0  0  0  0  0
    1.9094   -2.3484    2.3393 C   0  0  0  0  0  0  0  0  0  0  0  0
    0.2678    0.2349   -6.6261 C   0  0  0  0  0  0  0  0  0  0  0  0
   -4.4795    1.6834   -0.0966 C   0  0  0  0  0  0  0  0  0  0  0  0
   -1.2495    0.9158   -4.8644 N   0  0  0  0  0  0  0  0  0  0  0  0
   -0.1977    0.1681   -5.2509 N   0  0  0  0  0  0  0  0  0  0  0  0
   -0.4724   -1.0098   -1.8808 N   0  0  0  0  0  0  0  0  0  0  0  0
    0.2254   -1.2904    0.8439 N   0  0  0  0  0  0  0  0  0  0  0  0
   -2.0584    1.5598    1.2395 N   0  0  2  0  0  0  0  0  0  0  0  0
    1.3106   -2.3998   -2.3247 O   0  0  0  0  0  0  0  0  0  0  0  0
    0.9129   -0.2075    2.7315 O   0  0  0  0  0  0  0  0  0  0  0  0
   -3.4754    3.6244    1.3765 O   0  0  0  0  0  0  0  0  0  0  0  0
   -4.2154    1.4448    2.5167 O   0  0  0  0  0  0  0  0  0  0  0  0
   -3.5886    2.1658    1.4078 S   0  0  0  0  0  0  0  0  0  0  0  0
   -2.2814    1.0518   -3.0558 H   0  0  0  0  0  0  0  0  0  0  0  0
    1.0848   -1.3337   -4.3997 H   0  0  0  0  0  0  0  0  0  0  0  0
   -0.4596   -3.1179   -0.0017 H   0  0  0  0  0  0  0  0  0  0  0  0
    1.2913   -2.9545    0.1001 H   0  0  0  0  0  0  0  0  0  0  0  0
    0.5132    1.1775   -0.7745 H   0  0  0  0  0  0  0  0  0  0  0  0
    0.7653    1.3081    0.9800 H   0  0  0  0  0  0  0  0  0  0  0  0
   -0.7468    3.1444    0.7293 H   0  0  0  0  0  0  0  0  0  0  0  0
   -1.5520    2.4056   -0.6601 H   0  0  0  0  0  0  0  0  0  0  0  0
   -2.0813   -1.4942   -0.6109 H   0  0  0  0  0  0  0  0  0  0  0  0
   -2.0461    0.1667   -1.1719 H   0  0  0  0  0  0  0  0  0  0  0  0
   -2.6548   -0.4834    1.4026 H   0  0  0  0  0  0  0  0  0  0  0  0
   -1.3763    0.0233    2.5214 H   0  0  0  0  0  0  0  0  0  0  0  0
    2.7473   -2.4110    1.6369 H   0  0  0  0  0  0  0  0  0  0  0  0
    1.3934   -3.3130    2.3393 H   0  0  0  0  0  0  0  0  0  0  0  0
    2.3063   -2.1539    3.3353 H   0  0  0  0  0  0  0  0  0  0  0  0
   -0.3636   -0.3765   -7.2781 H   0  0  0  0  0  0  0  0  0  0  0  0
    0.2303    1.2732   -6.9586 H   0  0  0  0  0  0  0  0  0  0  0  0
    1.2963   -0.1271   -6.6734 H   0  0  0  0  0  0  0  0  0  0  0  0
   -5.4918    2.0827   -0.0116 H   0  0  0  0  0  0  0  0  0  0  0  0
   -3.9811    2.1218   -0.9631 H   0  0  0  0  0  0  0  0  0  0  0  0
   -4.5115    0.5943   -0.1579 H   0  0  0  0  0  0  0  0  0  0  0  0
  1  3  1  0  0  0  0
  1 15  2  0  0  0  0
  1 25  1  0  0  0  0
  2  3  2  0  0  0  0
  2 16  1  0  0  0  0
  2 26  1  0  0  0  0
  3 17  1  0  0  0  0
  4  6  1  0  0  0  0
  4 17  1  0  0  0  0
  4 20  2  0  0  0  0
  5 12  1  0  0  0  0
  5 18  1  0  0  0  0
  5 21  2  0  0  0  0
  6 18  1  0  0  0  0
  6 27  1  0  0  0  0
  6 28  1  0  0  0  0
  7  8  1  0  0  0  0
  7 11  1  0  0  0  0
  7 29  1  0  0  0  0
  7 30  1  0  0  0  0
  8 19  1  0  0  0  0
  8 31  1  0  0  0  0
  8 32  1  0  0  0  0
  9 11  1  0  0  0  0
  9 17  1  0  0  0  0
  9 33  1  0  0  0  0
  9 34  1  0  0  0  0
 10 11  1  0  0  0  0
 10 19  1  0  0  0  0
 10 35  1  0  0  0  0
 10 36  1  0  0  0  0
 11 18  1  0  0  0  0
 12 37  1  0  0  0  0
 12 38  1  0  0  0  0
 12 39  1  0  0  0  0
 13 16  1  0  0  0  0
 13 40  1  0  0  0  0
 13 41  1  0  0  0  0
 13 42  1  0  0  0  0
 14 24  1  0  0  0  0
 14 43  1  0  0  0  0
 14 44  1  0  0  0  0
 14 45  1  0  0  0  0
 15 16  1  0  0  0  0
 19 24  1  0  0  0  0
 22 24  2  0  0  0  0
 23 24  2  0  0  0  0
M  END
$$$$
