
  -OEChem-05262117483D

 40 43  0     0  0  0  0  0  0999 V2000
   -1.5519   -1.5257   -0.0147 C   0  0  0  0  0  0  0  0  0  0  0  0
   -0.2875   -1.0117    0.2987 C   0  0  0  0  0  0  0  0  0  0  0  0
   -1.7057   -2.8951   -0.2294 C   0  0  0  0  0  0  0  0  0  0  0  0
    0.8032   -1.8755    0.3882 C   0  0  0  0  0  0  0  0  0  0  0  0
    6.2894   -8.6117   -1.5114 C   0  0  0  0  0  0  0  0  0  0  0  0
    5.0897   -7.9891   -1.1616 C   0  0  0  0  0  0  0  0  0  0  0  0
    6.2666   -5.9233   -0.5507 C   0  0  0  0  0  0  0  0  0  0  0  0
   -0.6126   -3.7707   -0.1462 C   0  0  0  0  0  0  0  0  0  0  0  0
    0.6527   -3.2511    0.1622 C   0  0  0  0  0  0  0  0  0  0  0  0
    7.4804   -7.8941   -1.3831 C   0  0  0  0  0  0  0  0  0  0  0  0
    5.0704   -6.6561   -0.6853 C   0  0  0  0  0  0  0  0  0  0  0  0
    7.4341   -6.5767   -0.9083 C   0  0  0  0  0  0  0  0  0  0  0  0
    9.4922   -7.1655   -1.3360 C   0  0  0  0  0  0  0  0  0  0  0  0
    2.5927   -6.4857   -0.2493 C   0  0  0  0  0  0  0  0  0  0  0  0
   -0.7788   -5.2580   -0.3563 C   0  0  0  0  0  0  0  0  0  0  0  0
    1.8921   -4.1274    0.2369 C   0  0  0  0  0  0  0  0  0  0  0  0
    0.2876   -6.0279    0.4166 C   0  0  0  0  0  0  0  0  0  0  0  0
   10.9601   -6.9398   -1.4109 C   0  0  0  0  0  0  0  0  0  0  0  0
    8.8185   -8.2280   -1.6437 N   0  0  0  0  0  0  0  0  0  0  0  0
    1.6168   -5.5458    0.0416 N   0  0  0  0  0  0  0  0  0  0  0  0
    3.8819   -5.9740   -0.3419 N   0  0  0  0  0  0  0  0  0  0  0  0
    2.3279   -7.6767   -0.4201 O   0  0  0  0  0  0  0  0  0  0  0  0
    8.7259   -6.0995   -0.8746 O   0  0  0  0  0  0  0  0  0  0  0  0
   -2.4107   -0.8630   -0.0826 H   0  0  0  0  0  0  0  0  0  0  0  0
   -0.1556    0.0525    0.4751 H   0  0  0  0  0  0  0  0  0  0  0  0
   -2.6891   -3.2996   -0.4603 H   0  0  0  0  0  0  0  0  0  0  0  0
    1.7863   -1.4774    0.6349 H   0  0  0  0  0  0  0  0  0  0  0  0
    6.2926   -9.6350   -1.8747 H   0  0  0  0  0  0  0  0  0  0  0  0
    4.1536   -8.5226   -1.2403 H   0  0  0  0  0  0  0  0  0  0  0  0
    6.2748   -4.8990   -0.1866 H   0  0  0  0  0  0  0  0  0  0  0  0
   -1.7752   -5.5756   -0.0305 H   0  0  0  0  0  0  0  0  0  0  0  0
   -0.6924   -5.5044   -1.4219 H   0  0  0  0  0  0  0  0  0  0  0  0
    2.5713   -3.7861   -0.5534 H   0  0  0  0  0  0  0  0  0  0  0  0
    2.3920   -3.9468    1.2036 H   0  0  0  0  0  0  0  0  0  0  0  0
    0.1355   -5.8946    1.4975 H   0  0  0  0  0  0  0  0  0  0  0  0
    0.2549   -7.0928    0.1944 H   0  0  0  0  0  0  0  0  0  0  0  0
   11.1898   -6.1037   -2.0796 H   0  0  0  0  0  0  0  0  0  0  0  0
   11.3655   -6.6967   -0.4232 H   0  0  0  0  0  0  0  0  0  0  0  0
   11.4402   -7.8440   -1.7855 H   0  0  0  0  0  0  0  0  0  0  0  0
    4.0288   -5.0249   -0.0330 H   0  0  0  0  0  0  0  0  0  0  0  0
  1  2  1  0  0  0  0
  1  3  2  0  0  0  0
  1 24  1  0  0  0  0
  2  4  2  0  0  0  0
  2 25  1  0  0  0  0
  3  8  1  0  0  0  0
  3 26  1  0  0  0  0
  4  9  1  0  0  0  0
  4 27  1  0  0  0  0
  5  6  2  0  0  0  0
  5 10  1  0  0  0  0
  5 28  1  0  0  0  0
  6 11  1  0  0  0  0
  6 29  1  0  0  0  0
  7 11  2  0  0  0  0
  7 12  1  0  0  0  0
  7 30  1  0  0  0  0
  8  9  2  0  0  0  0
  8 15  1  0  0  0  0
  9 16  1  0  0  0  0
 10 12  2  0  0  0  0
 10 19  1  0  0  0  0
 11 21  1  0  0  0  0
 12 23  1  0  0  0  0
 13 18  1  0  0  0  0
 13 19  2  0  0  0  0
 13 23  1  0  0  0  0
 14 20  1  0  0  0  0
 14 21  1  0  0  0  0
 14 22  2  0  0  0  0
 15 17  1  0  0  0  0
 15 31  1  0  0  0  0
 15 32  1  0  0  0  0
 16 20  1  0  0  0  0
 16 33  1  0  0  0  0
 16 34  1  0  0  0  0
 17 20  1  0  0  0  0
 17 35  1  0  0  0  0
 17 36  1  0  0  0  0
 18 37  1  0  0  0  0
 18 38  1  0  0  0  0
 18 39  1  0  0  0  0
 21 40  1  0  0  0  0
M  END
$$$$
