24   
torsion grid (-75,)
C        2.2588300598    1.9329113558   -2.3189399945
C        1.4779759921    2.0187365485   -0.0230919851
C        3.1662884529    2.9628236164   -2.0558932842
C        2.3914755396    3.0377928766    0.2516984814
C       -0.9920033651   -2.9204491103   -1.5848761976
C       -1.5981227531   -4.0311445554   -1.0644234733
C        2.1272166969   -2.1964322594    0.7017515544
C        0.0833772601   -2.4483893397   -0.7656870821
C        1.4164529532    1.4604065087   -1.3058915561
C        3.2249313525    3.5003866667   -0.7692555079
C        0.3021678041   -3.2910738441    0.3688631154
C        0.7863328871   -1.1656545001   -0.7077994420
N        1.4284832567   -3.2048421418    1.1962896987
N        1.4895857960   -1.0186995709    0.4069531651
S       -0.8618035201   -4.5756959383    0.4260635010
S        0.2290763074    0.1839644290   -1.7039139547
Br       4.4758234600    4.9027989737   -0.3954832638
H        2.2146959052    1.4942429103   -3.3115026840
H        0.8241678243    1.6545952583    0.7613116643
H        3.8208546863    3.3314021591   -2.8387492296
H        2.4491661874    3.4671254951    1.2464855119
H       -1.3268016878   -2.4341646115   -2.4952409145
H       -2.4483432910   -4.5707873162   -1.4612892630
H        3.1724522738   -2.1053153615    1.0176495159
24   
torsion grid (-60,)
C        2.3139549640    1.7703877592   -2.2158840534
C        1.2418566233    2.2288884671   -0.0899462305
C        3.2650670980    2.7606843613   -1.9563640743
C        2.1890973114    3.2182116049    0.1804120218
C       -1.1117045039   -2.8444215683   -1.4975034431
C       -1.6135115983   -4.0061596112   -0.9829841119
C        2.2967147248   -2.1577039725    0.4846893999
C        0.0605173829   -2.4019032640   -0.7978045379
C        1.3058167930    1.5020606533   -1.2838369808
C        3.1922072941    3.4720877381   -0.7573972967
C        0.4528130600   -3.3136996572    0.2228506124
C        0.7513242683   -1.1392658566   -0.7594294009
N        1.6347095141   -3.2303137976    0.9106173658
N        1.6578564670   -0.9895476173    0.2016491895
S       -0.6702271426   -4.6400284117    0.3486245696
S        0.0800464016    0.2478366423   -1.6376759233
Br       4.4976672405    4.8253585392   -0.3893633146
H        2.3625480369    1.2038440961   -3.1409850278
H        0.4620609554    2.0144637929    0.6338004409
H        4.0502085048    2.9708286431   -2.6751688789
H        2.1478200148    3.7794974392    1.1080159683
H       -1.5776438040   -2.3059712299   -2.3159130555
H       -2.4996012052   -4.5402925525   -1.3019184921
H        3.3382598390   -2.0651912574    0.8028383119
24   
torsion grid (-45,)
C        2.2935912757    1.7671066185   -2.2184945590
C        1.2743391216    2.2109619110   -0.0638243238
C        3.2500644771    2.7568852216   -1.9765151860
C        2.2278201493    3.1984955688    0.1897858679
C       -1.1328752671   -2.8195458837   -1.4978758269
C       -1.5994120013   -4.0230857990   -1.0539965425
C        2.2665492744   -2.1551880139    0.5955905133
C        0.0351373323   -2.3942276474   -0.7774111294
C        1.3086280422    1.4921700629   -1.2639709928
C        3.2066259840    3.4600964199   -0.7715394713
C        0.4533416598   -3.3512258997    0.1844260605
C        0.7278842879   -1.1471083200   -0.7144982980
N        1.6018232418   -3.2689021147    0.8991552002
N        1.6826459960   -0.9997842668    0.1979284068
S       -0.6357918158   -4.7166364661    0.2330262350
S        0.0720420887    0.2449933677   -1.6025741227
Br       4.5187805000    4.8136105674   -0.4281204133
H        2.3202775389    1.2058492485   -3.1476743442
H        0.5122125390    1.9919687169    0.6771493186
H        4.0168470919    2.9723369301   -2.7133355305
H        2.2092933009    3.7536129004    1.1218396298
H       -1.6140220110   -2.2458603370   -2.2825868122
H       -2.4722358205   -4.5592987282   -1.4049931678
H        3.2690419630   -2.0631371776    1.0145103099
24   
torsion grid (-30,)
C        2.3137942946    1.7153958664   -2.1770466252
C        1.2178497390    2.2801592670   -0.0901191289
C        3.2807377394    2.6960602783   -1.9417468094
C        2.1797296363    3.2618126610    0.1562173803
C       -1.1931207385   -2.7807541399   -1.4384546506
C       -1.5977504736   -4.0249461344   -1.0516399390
C        2.3032205795   -2.1398661327    0.5699006306
C        0.0085538771   -2.3715126942   -0.7634629804
C        1.2858077181    1.5040391142   -1.2521832984
C        3.2027089459    3.4571712922   -0.7740417716
C        0.5048777900   -3.3702892486    0.1106842975
C        0.7093156875   -1.1379547008   -0.7112300011
N        1.6625993189   -3.2881698566    0.7903882475
N        1.7523679035   -0.9998703898    0.1012350851
S       -0.5414255216   -4.7740823424    0.1269028843
S        0.0381790391    0.2646332633   -1.5765415757
Br       4.5290582462    4.7989785110   -0.4394198280
H        2.3658839943    1.1103185425   -3.0770998407
H        0.4217560454    2.1108963328    0.6280863506
H        4.0815281387    2.8612995849   -2.6550159586
H        2.1341855720    3.8620713095    1.0589173805
H       -1.7344258245   -2.1723385154   -2.1546955135
H       -2.4745569710   -4.5634032378   -1.3893985667
H        3.2898861786   -2.0422259329    1.0199418963
24   
torsion grid (-15,)
C        2.2943084011    1.7388539700   -2.2130835995
C        1.1360819865    2.4231378722   -0.1965494994
C        3.2523507480    2.7342159268   -2.0077088234
C        2.0880725062    3.4222818985    0.0181611257
C       -1.2016577208   -2.7274887368   -1.3424724700
C       -1.5272327721   -4.0053548549   -0.9940416773
C        2.3722073066   -2.0111522041    0.5449502109
C        0.0277820476   -2.3005507207   -0.7305541794
C        1.2401166484    1.5793679631   -1.3073749646
C        3.1383138316    3.5642549165   -0.8907540988
C        0.6135024672   -3.3104140099    0.0683977589
C        0.7180712607   -1.0649247224   -0.7195524220
N        1.7829158927   -3.1952954236    0.7114047072
N        1.8338869725   -0.9081446185   -0.0145250481
S       -0.3678180323   -4.7625866545    0.0771898439
S        0.0050642872    0.3174546140   -1.5883858208
Br       4.4531556473    4.9270932840   -0.5979329992
H        2.3738588887    1.0810918412   -3.0731994111
H        0.3194415473    2.2940857540    0.5069873693
H        4.0741935192    2.8588605199   -2.7050925077
H        2.0141452383    4.0760059303    0.8809753760
H       -1.8104738844   -2.1123820641   -1.9959541963
H       -2.3997708453   -4.5662844941   -1.3054090252
H        3.3469243848   -1.8807337496    1.0105556316
24   
torsion grid (0,)
C        2.2897152728    1.7502968351   -2.2299879590
C        1.1155131782    2.4422423408   -0.2250915165
C        3.2379112336    2.7558017739   -2.0285420458
C        2.0581304107    3.4509403552   -0.0137493250
C       -1.2230769538   -2.7077895254   -1.2740238138
C       -1.5009226557   -4.0109085659   -0.9828593960
C        2.3674591775   -1.9711027326    0.5866274568
C        0.0198233268   -2.2803625689   -0.6900630825
C        1.2323947821    1.5899419001   -1.3282550510
C        3.1113367002    3.5940030346   -0.9190837931
C        0.6548632746   -3.3090084545    0.0439384799
C        0.7173045472   -1.0500182553   -0.7087759735
N        1.8212148817   -3.1828870429    0.6877316722
N        1.8766204772   -0.9045332919   -0.0756150658
S       -0.2843241713   -4.7890772326    0.0068281793
S        0.0079957597    0.3169472435   -1.6050800679
Br       4.4132760218    4.9702592900   -0.6314365928
H        2.3798179113    1.0850627572   -3.0832198279
H        0.2955022875    2.3133716223    0.4746245454
H        4.0623053755    2.8813622632   -2.7227336823
H        1.9741166779    4.1115886779    0.8428639648
H       -1.8697019448   -2.0784421643   -1.8755203299
H       -2.3675174718   -4.5803891809   -1.2953678781
H        3.3175690978   -1.8197098670    1.0941176441
24   
torsion grid (15,)
C        2.3183739180    1.7238887772   -2.2102107375
C        1.1250902682    2.4301461652   -0.2218856020
C        3.2724629733    2.7218394102   -1.9991692804
C        2.0738905281    3.4309361851   -0.0007317537
C       -1.2726118601   -2.6855689077   -1.2218021277
C       -1.5222300527   -4.0083738620   -1.0022074898
C        2.3274128592   -1.9845455433    0.6211356600
C       -0.0136750303   -2.2760469460   -0.6600104688
C        1.2484505692    1.5743294217   -1.3216379341
C        3.1396053987    3.5633808442   -0.8930928764
C        0.6538608556   -3.3342754562    0.0001185571
C        0.7049038835   -1.0571737565   -0.6971675622
N        1.8188728955   -3.2164907162    0.6505885880
N        1.9030260708   -0.9490611736   -0.1319198178
S       -0.2629615519   -4.8246421586   -0.1004726442
S        0.0183396430    0.3094813431   -1.6110048177
Br       4.4496027631    4.9290833263   -0.5920213758
H        2.4139588735    1.0553890923   -3.0602088758
H        0.2948449881    2.3103889301    0.4674081744
H        4.1066739608    2.8385583981   -2.6830821637
H        1.9848203548    4.0942374694    0.8533202067
H       -1.9460213928   -2.0322755498   -1.7656583376
H       -2.3892279593   -4.5726146668   -1.3229268031
H        3.2516825732   -1.8242097789    1.1723962694
24   
torsion grid (30,)
C        2.4072447597    1.5766582335   -2.1142771390
C        1.1561776442    2.3999463798   -0.2082839429
C        3.3868303207    2.5479011579   -1.8982756092
C        2.1293928983    3.3769190999    0.0162191623
C       -1.3596841483   -2.6821282542   -1.1543858781
C       -1.6105993051   -4.0172277749   -1.0282325687
C        2.2762133872   -2.1230941828    0.6166103011
C       -0.0695210208   -2.3250415402   -0.6299042148
C        1.2953025597    1.4984095902   -1.2688018870
C        3.2363838448    3.4372455005   -0.8322298821
C        0.6146868060   -3.4347571731   -0.0745621215
C        0.6869213382   -1.1244522320   -0.6727650149
N        1.7940656911   -3.3651922703    0.5683147075
N        1.9278474240   -1.1032521952   -0.1965623251
S       -0.3168467922   -4.9065332373   -0.2527723252
S        0.0302915011    0.2692059780   -1.5632655026
Br       4.5798554451    4.7689787271   -0.5269393220
H        2.5149434962    0.8728449990   -2.9335998647
H        0.2935079608    2.3358486167    0.4479366933
H        4.2537123229    2.6085754893   -2.5479559740
H        2.0270367209    4.0763156937    0.8394379852
H       -2.0500247564   -1.9857073840   -1.6176471365
H       -2.4948505438   -4.5514154367   -1.3531180199
H        3.1854136471   -1.9793732960    1.1982295136
24   
torsion grid (45,)
C        2.4450058778    1.5122447551   -2.0385687170
C        1.1287342526    2.4559618046   -0.2343301048
C        3.4288314082    2.4813729349   -1.8348573334
C        2.1053543367    3.4335052198   -0.0252130978
C       -1.3908826406   -2.6694152897   -1.0627366072
C       -1.6205971249   -4.0144664862   -1.0272384463
C        2.2738009181   -2.1690566725    0.5804458362
C       -0.0755702544   -2.3336373023   -0.5921782208
C        1.2979834122    1.4954366968   -1.2371306245
C        3.2469893141    3.4324318685   -0.8283212350
C        0.6476362947   -3.4742424094   -0.1541791247
C        0.6917232362   -1.1307924527   -0.6520290299
N        1.8518844486   -3.4273155821    0.4656735257
N        1.9695348704   -1.1775122997   -0.2903564358
S       -0.2739928554   -4.9388086142   -0.3961631655
S        0.0231587617    0.2717279608   -1.5138334444
Br       4.5947511602    4.7644100755   -0.5435911206
H        2.5761609899    0.7627154270   -2.8124014143
H        0.2394947687    2.4389742839    0.3886177905
H        4.3230146440    2.4940848743   -2.4492671878
H        1.9789354827    4.1794892567    0.7524790671
H       -2.1132120978   -1.9504625921   -1.4338596081
H       -2.5147867587   -4.5368284594   -1.3436369390
H        3.1666456601   -2.0137041199    1.1867930090
24   
torsion grid (60,)
C        2.4115150689    1.5310844883   -2.0646757540
C        1.1435954054    2.4629472634   -0.2198993667
C        3.4060915607    2.4918975125   -1.8733712224
C        2.1317546019    3.4310560450   -0.0220989302
C       -1.3859100148   -2.6848997677   -1.0348309347
C       -1.5658614522   -4.0384477716   -1.0733542076
C        2.1994407837   -2.1113001288    0.6485882629
C       -0.0805375445   -2.3236620987   -0.5606429404
C        1.2836152921    1.5124907611   -1.2368174748
C        3.2545934185    3.4317252618   -0.8515519219
C        0.6887947854   -3.4615642194   -0.1854126504
C        0.6699903568   -1.0964813700   -0.6192662397
N        1.8885705150   -3.3926979268    0.4713812371
N        1.9614746044   -1.1786880416   -0.3138873709
S       -0.1779402267   -4.9398637124   -0.5024821272
S       -0.0001169348    0.2934164318   -1.4945624716
Br       4.6187878925    4.7497471977   -0.5816929043
H        2.5201393381    0.7889423667   -2.8490702287
H        0.2682763663    2.4454679479    0.4224803953
H        4.2858860063    2.5057966391   -2.5081671654
H        2.0286052022    4.1688418623    0.7667751565
H       -2.1367397150   -1.9752000422   -1.3655975215
H       -2.4405343263   -4.5780682167   -1.4138472474
H        3.0323268053   -1.8972966303    1.3230940221
24   
torsion grid (75,)
C        2.5250915819    1.3974299504   -1.8053750844
C        1.0744005432    2.6336680925   -0.3033908435
C        3.5129539700    2.3723639766   -1.6568228493
C        2.0527270575    3.6215290950   -0.1605740292
C       -1.4104113960   -2.6735034259   -0.8740672933
C       -1.6230470641   -4.0169104942   -1.0221930503
C        2.2724320085   -2.2829380303    0.4549977916
C       -0.0538683432   -2.3677676196   -0.5325154721
C        1.3087637386    1.5234426735   -1.1228950819
C        3.2648129035    3.4756064689   -0.8368875985
C        0.7363189840   -3.5484445931   -0.3688393814
C        0.7218651318   -1.1280404813   -0.5981503984
N        2.0186586172   -3.5545074802    0.1934985530
N        2.0282649183   -1.3378183123   -0.5081880099
S       -0.1909541495   -4.9730715166   -0.7138344581
S        0.0055041957    0.3157122665   -1.3238810267
Br       4.6176229605    4.8174942681   -0.6359357627
H        2.7061231292    0.5387241075   -2.4419466092
H        0.1331950676    2.7264018816    0.2305525677
H        4.4605184337    2.2745589687   -2.1762564607
H        1.8745791785    4.4833953357    0.4739529484
H       -2.1815492735   -1.9291301691   -1.0431272690
H       -2.5408635263   -4.5165263328   -1.3043057591
H        3.1030312274   -2.0648950632    1.1355653781
