24   
torsion grid (-60,)
C       -0.3441025826    3.2696872259    5.6401030833
C        0.0514615830    1.9355386396    5.5104784715
C       -1.6037710953    2.8620044181    3.7671117440
C       -0.8169127110    1.7013935695    3.4766276259
C        0.1304672477    0.1499202050    1.7472656104
C        0.2913643696   -0.5103747345    0.5488476198
C       -0.9745371790    0.9863648775    2.1575902383
C       -0.9489197123    0.9655226727   -0.9968751876
C       -0.1799897681   -1.2820232017   -1.7123561152
N       -1.2294206710    3.7343640416    4.7131448304
N        0.2855960629    1.5579197448    4.2348368995
N       -0.2638061524   -0.2774101548   -0.6602908347
O       -2.0697317779    1.0962189136    1.5781412955
H       -0.1266890888    3.8881300595    6.5067411861
H        0.6995220779    1.4768414676    6.2624544463
H       -2.4521980218    3.1213159422    3.1409410784
H        0.8614402517   -0.0743216047    2.5157900197
H        1.0110849496   -1.3290073666    0.5340351374
H       -0.8457366838    1.1320932697   -2.0733209317
H       -0.4764652692    1.7921462703   -0.4621584209
H       -2.0046539684    0.9460172496   -0.7157067612
H       -1.1731346269   -1.6857065896   -1.9457899705
H        0.4555882960   -2.1092792215   -1.3900652509
H        0.2404979189   -0.8481517685   -2.6269167950
24   
torsion grid (-45,)
C       -0.4318454986    3.2482289874    5.6559120152
C        0.1496398220    1.9865949054    5.4823383458
C       -1.6545093358    2.8229223555    3.7794147438
C       -0.8057967160    1.7330613526    3.4638122283
C        0.1099958713    0.1404936242    1.7497064802
C        0.2572902822   -0.5335179670    0.5570736186
C       -0.9729389276    1.0116625770    2.1463692829
C       -0.9101908101    0.9797164578   -1.0097826117
C       -0.2216050073   -1.2996656045   -1.7043094979
N       -1.3633637317    3.6709143469    4.7749330304
N        0.2900861107    1.5426309534    4.2223201092
N       -0.2789894365   -0.2872887641   -0.6580198031
O       -2.0552133235    1.1522392729    1.5490909201
H       -0.2465989083    3.8599243251    6.5358804073
H        0.8630884017    1.6006039406    6.2125077011
H       -2.5088190966    3.0491230949    3.1486375446
H        0.8280357178   -0.1022747707    2.5244979696
H        0.9467313507   -1.3779948014    0.5531537027
H       -0.7853791681    1.1367653794   -2.0854560700
H       -0.4132003920    1.7897760304   -0.4719287374
H       -1.9696479022    1.0028869389   -0.7435157923
H       -1.2269613258   -1.6648615122   -1.9484932530
H        0.3764802265   -2.1498123852   -1.3700750767
H        0.2271467079   -0.8874825468   -2.6155234511
24   
torsion grid (-30,)
C       -0.4707110569    3.2200288441    5.6908414749
C        0.2475854507    2.0422770407    5.4614822481
C       -1.6678599203    2.7915478106    3.8006884757
C       -0.7834792407    1.7446824718    3.4638704143
C        0.1086846221    0.1267140147    1.7593258153
C        0.2482013105   -0.5541740087    0.5695624281
C       -0.9584754874    1.0208336807    2.1467073617
C       -0.8688857441    0.9832306809   -1.0105377577
C       -0.2315558947   -1.3144905404   -1.6935334547
N       -1.4451053840    3.5995621395    4.8450929899
N        0.2946359422    1.5153316457    4.2314659370
N       -0.2723558075   -0.2981662673   -0.6503001154
O       -2.0305100885    1.1860208497    1.5371865813
H       -0.3186293477    3.8196362748    6.5858549622
H        1.0042646389    1.7100492588    6.1719054603
H       -2.5208041180    3.0051819951    3.1636813069
H        0.8165994932   -0.1291444890    2.5392024687
H        0.9172614850   -1.4149328306    0.5727637075
H       -0.7307261548    1.1343448447   -2.0854417880
H       -0.3564536910    1.7819259366   -0.4701320346
H       -1.9296070413    1.0335317742   -0.7534512681
H       -1.2434762561   -1.6566905967   -1.9438189286
H        0.3441249419   -2.1774856611   -1.3529255230
H        0.2330533257   -0.9154310962   -2.6026380417
24   
torsion grid (-15,)
C       -0.5330989611    3.2025032851    5.6877240929
C        0.3183104734    2.1354782234    5.3814369493
C       -1.7168334555    2.7882939067    3.7929348825
C       -0.7921182016    1.7946368733    3.4228785240
C        0.0701056140    0.1439291549    1.7314137914
C        0.2013019428   -0.5465698880    0.5462182249
C       -0.9709504791    1.0753269477    2.1016700764
C       -0.8306212997    1.0249352080   -1.0577207451
C       -0.2692453817   -1.2975580486   -1.7223562745
N       -1.5586724156    3.5363848882    4.8910339906
N        0.2839017756    1.5385796006    4.1851618233
N       -0.2916892512   -0.2774537732   -0.6822670901
O       -2.0223889884    1.2816744103    1.4688585756
H       -0.4069528059    3.7754522329    6.6046165388
H        1.1336324838    1.8609028419    6.0491947992
H       -2.5727039499    2.9910713256    3.1563707745
H        0.7589970880   -0.1334759425    2.5207353222
H        0.8377943028   -1.4315468696    0.5626410796
H       -0.6596231964    1.1692176953   -2.1289648306
H       -0.3028232174    1.8046626442   -0.5048832506
H       -1.8949489162    1.1149116400   -0.8281431391
H       -1.2885973008   -1.5979539479   -1.9949793521
H        0.2618663839   -2.1828916632   -1.3670744816
H        0.2320664004   -0.9209346240   -2.6216064535
24   
torsion grid (0,)
C       -0.5727545074    3.1472955811    5.7241392023
C        0.3978800224    2.2257868794    5.3178058994
C       -1.7481113444    2.7465851157    3.8212072340
C       -0.7753755086    1.8208854961    3.4043187091
C        0.0635551077    0.1486356733    1.7221926082
C        0.1852886092   -0.5556087428    0.5439473049
C       -0.9513547025    1.1148036429    2.0748136590
C       -0.7657264284    1.0383414736   -1.0884719131
C       -0.2809154529   -1.3089049776   -1.7245159066
N       -1.6527502208    3.4140089108    4.9769836836
N        0.3021270169    1.5614169514    4.1620785171
N       -0.2819100094   -0.2799615949   -0.6929777483
O       -1.9786202041    1.3647679976    1.4185438051
H       -0.4776104990    3.6797797583    6.6688355498
H        1.2680938130    2.0201697168    5.9390247475
H       -2.6124966209    2.9371958440    3.1924801512
H        0.7331208424   -0.1469187380    2.5215008321
H        0.7890712973   -1.4628306099    0.5759194362
H       -0.5662087480    1.1684395952   -2.1567200170
H       -0.2228885197    1.8027292321   -0.5292199531
H       -1.8309355576    1.1674951081   -0.8838608410
H       -1.3063321280   -1.5733788938   -2.0112592779
H        0.2109046160   -2.2104534448   -1.3537871163
H        0.2482673212   -0.9587967887   -2.6185347745
24   
torsion grid (15,)
C       -0.6158090301    3.0929010970    5.7584230856
C        0.4465451644    2.3402733386    5.2464771712
C       -1.7953646869    2.7039397735    3.8558766762
C       -0.7768970758    1.8530551953    3.3885762907
C        0.0367800211    0.1521375419    1.7243146985
C        0.1482346106   -0.5654449379    0.5530627619
C       -0.9484082869    1.1561767695    2.0539428520
C       -0.7083173942    1.0515983166   -1.1096218602
C       -0.3133520828   -1.3201985274   -1.7158090266
N       -1.7469567427    3.2793219777    5.0628648942
N        0.3060008843    1.5997357594    4.1416950707
N       -0.2876235968   -0.2822082293   -0.6936379925
O       -1.9477308631    1.4494714764    1.3730418845
H       -0.5414895908    3.5799216562    6.7290761394
H        1.3669239944    2.2130424762    5.8146250491
H       -2.6727342234    2.8807356909    3.2412806292
H        0.6830428725   -0.1624422319    2.5356152505
H        0.7139351431   -1.4961674412    0.6020803452
H       -0.4797981134    1.1641357742   -2.1741025840
H       -0.1471834544    1.7976674424   -0.5439138206
H       -1.7714978708    1.2260193378   -0.9303389239
H       -1.3442959766   -1.5447463106   -2.0164458172
H        0.1348363675   -2.2377659784   -1.3293694912
H        0.2436350919   -1.0007491711   -2.6044004602
24   
torsion grid (30,)
C       -0.6399507277    3.0101740057    5.8069051978
C        0.4709865506    2.4215882713    5.1945284618
C       -1.8173666534    2.6499451179    3.8900750828
C       -0.7653099474    1.8606681227    3.3782434427
C        0.0295545430    0.1430461774    1.7263350019
C        0.1378301912   -0.5844515432    0.5609642697
C       -0.9324874747    1.1743227294    2.0393811191
C       -0.6458830282    1.0479748936   -1.1246353072
C       -0.3182407135   -1.3384762892   -1.7087451296
N       -1.8028257457    3.1263543351    5.1414566291
N        0.3036319644    1.6021764064    4.1490164917
N       -0.2728959550   -0.2951536203   -0.6928337208
O       -1.9058954436    1.5062982892    1.3394668837
H       -0.5804426451    3.4532243883    6.7988278976
H        1.4251657954    2.3669701497    5.7182323128
H       -2.7026328149    2.8275036963    3.2870790258
H        0.6552000265   -0.1854002289    2.5484667295
H        0.6751490569   -1.5311234353    0.6231821881
H       -0.3842523921    1.1498551561   -2.1827300472
H       -0.0815267880    1.7810230793   -0.5458737318
H       -1.7087700315    1.2513309309   -0.9771409104
H       -1.3517601116   -1.5311684155   -2.0223757010
H        0.0942627553   -2.2676294148   -1.3104367460
H        0.2609844885   -1.0430971862   -2.5914703593
24   
torsion grid (45,)
C       -0.6401750180    2.9617183985    5.8293896141
C        0.4885005303    2.5473158864    5.1129544742
C       -1.8428539199    2.6229508786    3.9226084046
C       -0.7593802374    1.9047591646    3.3575040441
C        0.0031535407    0.1537119733    1.7258568113
C        0.1029033239   -0.5871917616    0.5682977296
C       -0.9269060335    1.2194258244    2.0199568395
C       -0.5997850228    1.0553849249   -1.1427510096
C       -0.3436477801   -1.3460459747   -1.7019290791
N       -1.8381499577    3.0007508138    5.2075030076
N        0.3005357527    1.6374735964    4.1422691383
N       -0.2798593357   -0.2959804778   -0.6939168742
O       -1.8731483673    1.5900897928    1.3029071296
H       -0.5760230479    3.3618498775    6.8386458851
H        1.4753941053    2.5584026743    5.5788513624
H       -2.7451165820    2.7924192897    3.3429276095
H        0.6057914335   -0.1901342786    2.5589773629
H        0.6067281557   -1.5508967207    0.6467571744
H       -0.3171174546    1.1390877791   -2.1970506334
H       -0.0208092481    1.7739829680   -0.5604524270
H       -1.6574749414    1.2958203500   -1.0156620793
H       -1.3778503280   -1.5076503136   -2.0305285275
H        0.0319298137   -2.2847561993   -1.2897442268
H        0.2586947827   -1.0773781887   -2.5777160736
24   
torsion grid (60,)
C       -0.6301526770    2.8965403849    5.8743350456
C        0.4758072938    2.6433620383    5.0587489628
C       -1.8527353919    2.6120209237    3.9549652954
C       -0.7448280023    1.9491576946    3.3340538604
C       -0.0077025821    0.1717659755    1.7257438067
C        0.0843575515   -0.5842084276    0.5773584888
C       -0.9149350937    1.2617989576    2.0006450370
C       -0.5634369002    1.0534094253   -1.1600644849
C       -0.3608103035   -1.3602683244   -1.6874519025
N       -1.8506037737    2.8871266364    5.2659972681
N        0.2747755326    1.6547093745    4.1602185728
N       -0.2806382167   -0.2997353556   -0.6915825384
O       -1.8386461789    1.6608640419    1.2700013819
H       -0.5626807902    3.2565091164    6.8973992295
H        1.4884021755    2.7068157236    5.4668380073
H       -2.7665185547    2.7928049328    3.3970107035
H        0.5770109893   -0.1784204292    2.5692456699
H        0.5636790879   -1.5588755354    0.6719105820
H       -0.2631574818    1.1185347526   -2.2108684146
H        0.0224632626    1.7656242236   -0.5771826520
H       -1.6173130174    1.3186389750   -1.0524971880
H       -1.3954794800   -1.5000054199   -2.0244827920
H       -0.0129570730   -2.3029587191   -1.2603227441
H        0.2565446459   -1.1174376251   -2.5603474737
