18   
torsion grid (-75,)
C       -1.8022237208    0.1967942785    2.5693282062
C        0.6317640398    0.2906190451    2.0149214093
C       -0.3171133834    0.0284063765    0.9709989504
C        0.2190459592   -0.0130228439    3.3430270934
C       -0.7613805763   -1.0557875312   -1.3175830034
C       -1.0792974769    0.3988008341   -1.4557705858
C       -0.0041300362   -0.0469435915   -0.4600237055
N       -1.4808758478   -0.4827252807    1.4574074302
N       -1.1158977721   -0.0547753734    3.6908685699
O        1.1274154479   -0.2096646365    4.3116559418
Br       2.4088712653    0.9127056781    1.6852864542
H       -2.8502844393    0.4952986298    2.6974317277
H       -1.4810321891   -1.6787530308   -0.7978517830
H       -0.1847124233   -1.5444737882   -2.0964797201
H       -0.7326328141    0.9359728193   -2.3331667873
H       -2.0116092602    0.7479192123   -1.0238723007
H        1.0255450471    0.1605638142   -0.7255550144
H        0.6357745527   -0.2728453238    5.1513149400
18   
torsion grid (-60,)
C       -1.7893034418    0.2528430602    2.5690753782
C        0.6636900362    0.6266117185    1.9271298875
C       -0.2729087323    0.2304043691    0.9404083698
C        0.3079955688    0.3868506551    3.2772208380
C       -0.7169743936   -0.8786081237   -1.3450885074
C       -1.0856676880    0.5656341778   -1.4788951259
C        0.0173986217    0.1537658666   -0.4994189180
N       -1.4261024803   -0.3163856276    1.4168097627
N       -0.9846835666    0.2105362066    3.6444517715
O        1.2489819970    0.3662250268    4.2369946356
Br       2.3802742449    1.3538874009    1.5116602040
H       -2.8607708517    0.3181142035    2.7787488799
H       -1.4093345030   -1.5251615931   -0.8174948216
H       -0.1379228433   -1.3467899896   -2.1348801524
H       -0.7703594436    1.1139645600   -2.3612163581
H       -2.0230150292    0.8834179828   -1.0341009525
H        1.0334780503    0.3965441460   -0.7852215813
H        0.7775436474    0.2867223589    5.0871067280
18   
torsion grid (-45,)
C       -1.8138192555    0.1731360323    2.5942203574
C        0.6735528967    0.5621386074    1.9246973880
C       -0.2727819048    0.2015067900    0.9442136905
C        0.3062827470    0.3769482731    3.2754470654
C       -0.7244081241   -0.8776047340   -1.3566095946
C       -1.0688053603    0.5737640982   -1.4794286921
C        0.0207555777    0.1377358842   -0.4979744000
N       -1.4745885662   -0.2570976379    1.3813804497
N       -0.9754798754    0.1956062339    3.6419048268
O        1.2408071135    0.4058057145    4.2423623003
Br       2.4262456949    1.1943892438    1.5032182954
H       -2.8763913997    0.1721915235    2.8418729515
H       -1.4305787979   -1.5165794854   -0.8379780484
H       -0.1489548020   -1.3491482381   -2.1471033835
H       -0.7402769340    1.1235031727   -2.3560921802
H       -2.0033711212    0.9023695769   -1.0368808659
H        1.0422148496    0.3627348134   -0.7772776962
H        0.7621318310    0.3325811864    5.0892468823
18   
torsion grid (-30,)
C       -1.7652654894    0.2489238673    2.6701788749
C        0.7081996064    0.7806793772    1.9174810334
C       -0.2491491041    0.3741372284    0.9738580844
C        0.3640547468    0.6704319178    3.2782000420
C       -0.6986965310   -0.7690120917   -1.2990019626
C       -1.1068132507    0.6638405412   -1.4439373042
C        0.0168909023    0.2961554320   -0.4750548322
N       -1.4547773751   -0.0634985799    1.4170606999
N       -0.8899560990    0.4178850674    3.6720746947
O        1.3006603037    0.8387250743    4.2293776149
Br       2.4489831937    1.4040225674    1.4373002625
H       -2.8078307197    0.1323453228    2.9643457883
H       -1.3680374507   -1.4255348371   -0.7539681149
H       -0.1186005094   -1.2328708694   -2.0907277016
H       -0.8177981781    1.2079955236   -2.3378557045
H       -2.0466495789    0.9612957892   -0.9908602858
H        1.0224622952    0.5553942013   -0.7799521857
H        0.8355437306    0.7687805358    5.0842902095
18   
torsion grid (-15,)
C       -1.7595512705    0.1958000957    2.6785930836
C        0.7202019433    0.7956571874    1.9217390284
C       -0.2384194846    0.4022671992    0.9781699341
C        0.3548075195    0.7449488774    3.2775666272
C       -0.6873320534   -0.7201873136   -1.3067882155
C       -1.0835567247    0.7170792342   -1.4424442317
C        0.0323689820    0.3340271988   -0.4718258608
N       -1.4701215537    0.0166511918    1.3955656061
N       -0.8888843837    0.4540552511    3.6641486325
O        1.2655082664    1.0020097800    4.2342594297
Br       2.4837575094    1.3566627885    1.4472192196
H       -2.7870137822    0.0039622468    2.9833330330
H       -1.3647342283   -1.3748154161   -0.7693665816
H       -0.1077784537   -1.1829914966   -2.0996078018
H       -0.7864517644    1.2659904722   -2.3307728406
H       -2.0232201022    1.0179129399   -0.9914097811
H        1.0412183218    0.5857970173   -0.7715907819
H        0.7905649281    0.9350796029    5.0841335045
18   
torsion grid (0,)
C       -1.7138547283    0.1446236520    2.6790876285
C        0.7664867602    0.7790802391    1.9336615850
C       -0.1968182435    0.4252053208    0.9801885143
C        0.3754868637    0.7853733637    3.2828646791
C       -0.6293453404   -0.6744893380   -1.3190604381
C       -1.0330885759    0.7617486015   -1.4425025127
C        0.0792225091    0.3776824517   -0.4699225750
N       -1.4525452362    0.1059197732    1.3789598696
N       -0.8634453889    0.4691162560    3.6622829026
O        1.2595377578    1.1171026996    4.2418066850
Br       2.5621501326    1.2462743167    1.4784464867
H       -2.7257898952   -0.1137719199    2.9854048210
H       -1.3053545842   -1.3376345343   -0.7900840408
H       -0.0444696542   -1.1276326041   -2.1135935689
H       -0.7325681077    1.3200400235   -2.3237970705
H       -1.9773456866    1.0530818310   -0.9952183945
H        1.0884678103    0.6362696514   -0.7621567815
H        0.7761998433    1.0540444854    5.0872590548
18   
torsion grid (15,)
C       -1.7260798315    0.0784505830    2.6886529594
C        0.7366153761    0.7389652970    1.9267379173
C       -0.2438226003    0.4233131837    0.9764148528
C        0.3376538805    0.8073067498    3.2722877542
C       -0.6942721200   -0.6632213359   -1.3232778630
C       -1.1065049726    0.7715684467   -1.4354664332
C        0.0170408522    0.3909598139   -0.4766401437
N       -1.5143357337    0.1754857871    1.3818427406
N       -0.8926533431    0.4687762752    3.6628842288
O        1.2059869007    1.2146902674    4.2160877213
Br       2.5548138129    1.1059137216    1.4690270361
H       -2.7167833522   -0.2440619724    3.0046118727
H       -1.3612005939   -1.3313766713   -0.7887956500
H       -0.1164248130   -1.1113697023   -2.1257511176
H       -0.8156839859    1.3351120543   -2.3166459674
H       -2.0481853509    1.0565356219   -0.9791282833
H        1.0226230832    0.6544935847   -0.7772641218
H        0.7276290934    1.1596925218    5.0649014783
18   
torsion grid (30,)
C       -1.7889688221    0.1591287460    2.6698358025
C        0.6013743375    0.9565072085    1.8847208655
C       -0.3720482953    0.5952691676    0.9391610061
C        0.1852892120    1.0954031740    3.2226183723
C       -0.7872995867   -0.5552248550   -1.3336464742
C       -1.2653340936    0.8565829586   -1.4717080008
C       -0.1199240344    0.5494324754   -0.5137103854
N       -1.6394064466    0.3652853092    1.3661215448
N       -1.0179465434    0.6795603632    3.6357434702
O        1.0098639241    1.6408423466    4.1352467625
Br       2.4186557282    1.3232124269    1.4242634209
H       -2.7363213961   -0.2682086341    2.9967830009
H       -1.4189838960   -1.2422000515   -0.7803645907
H       -0.1944417376   -0.9933389626   -2.1306950472
H       -1.0056561624    1.4137142584   -2.3665242382
H       -2.2163701293    1.1080603719   -1.0152857478
H        0.8719337572    0.8501194473   -0.8254982161
H        0.5406284411    1.5917884592    4.9893640161
18   
torsion grid (45,)
C       -1.7490480738    0.0964238202    2.6583502923
C        0.5941772336    0.9388803077    1.8922278436
C       -0.3767950438    0.5842748203    0.9335583089
C        0.1503068757    1.1369145821    3.2176439653
C       -0.8164990494   -0.5377082728   -1.3464059194
C       -1.2603764463    0.8859652897   -1.4723180638
C       -0.1224519685    0.5438406454   -0.5168342282
N       -1.6524729456    0.4242379641    1.3720558264
N       -1.0479383784    0.6901345570    3.6364253432
O        0.9386363476    1.7610843595    4.1109632063
Br       2.4302605142    1.2401391757    1.4588543609
H       -2.6628748631   -0.4093720664    2.9739784777
H       -1.4643301771   -1.2140643569   -0.7985998911
H       -0.2342422003   -0.9831063052   -2.1472063223
H       -0.9861379373    1.4449730873   -2.3615264899
H       -2.2049010388    1.1572727728   -1.0137750472
H        0.8774573397    0.8231096714   -0.8235992858
H        0.4705925372    1.7204310726    4.9659453412
18   
torsion grid (60,)
C       -1.6797707317    0.0254080558    2.6465992446
C        0.6150897380    0.8932591875    1.9053569762
C       -0.3588343513    0.5518531158    0.9346666529
C        0.1471478589    1.1453699777    3.2182498510
C       -0.8515448586   -0.5325209597   -1.3497121346
C       -1.2464685079    0.9065315858   -1.4590057818
C       -0.1139694599    0.5169710528   -0.5152166170
N       -1.6405273708    0.4841489651    1.3928091249
N       -1.0521815738    0.6760087411    3.6407542012
O        0.9045223672    1.8300946698    4.0924651668
Br       2.4679823860    1.1164839058    1.4980241326
H       -2.5583786023   -0.5570465609    2.9385736173
H       -1.5185520742   -1.1911689510   -0.8032005259
H       -0.2905445703   -0.9904468762   -2.1585602987
H       -0.9584198521    1.4648366250   -2.3441919898
H       -2.1773979569    1.2064596259   -0.9906902660
H        0.8940780800    0.7638749124   -0.8247406378
H        0.4385977271    1.7985122945    4.9487248566
18   
torsion grid (75,)
C       -1.6157238426   -0.0009284735    2.6377950652
C        0.6057762491    0.8888123328    1.9211151671
C       -0.3647552702    0.5360909306    0.9245075831
C        0.1060441839    1.1937455460    3.2183414998
C       -0.8939691078   -0.5157677502   -1.3606479428
C       -1.2504584981    0.9332326546   -1.4561325802
C       -0.1222556396    0.5073642278   -0.5218470045
N       -1.6326157208    0.5592889180    1.4180298117
N       -1.1082861538    0.7040985168    3.6560840774
O        0.8363973230    1.9219004225    4.0775576907
Br       2.4735754238    1.0600096790    1.5521284565
H       -2.4225113097   -0.7020170669    2.8858755619
H       -1.5747510966   -1.1609526778   -0.8148435452
H       -0.3491616030   -0.9823112549   -2.1755596661
H       -0.9515615404    1.4914648263   -2.3376502182
H       -2.1691077390    1.2558949501   -0.9785442124
H        0.8922004450    0.7290284372   -0.8308888903
H        0.3704967995    1.8995553258    4.9338041724
