59
0 1 C26FH26NO5
C                     0.953946519400     1.770451736327     0.235458802207
C                     0.135337299175     3.586714936461    -1.136697795020
C                    -1.486871950463     0.256230330669    -0.666570167513
C                     2.181268266586     2.421111444862     0.355347079640
C                     1.368647506724     4.225901802604    -1.018529391149
C                    -2.717101875678    -0.386327468391    -0.751091219452
C                    -3.968175535586    -2.180377788343     1.926369335196
C                    -3.068924703888    -3.963401738009     0.541767251988
C                    -2.683944531259    -1.838708452611     2.338723114668
C                    -1.774245423626    -3.623378370948     0.959233846418
C                    -2.599570976884     2.389066055223    -0.697832152625
C                    -0.093683332000     2.344657371410    -0.512128385676
C                    -1.396073570905     1.664434744076    -0.627615030571
C                     2.408709171493     3.655889642911    -0.269709495537
C                    -3.851144502877     1.768861960984    -0.786743375123
C                    -3.883508949331     0.372904422766    -0.798418432001
C                    -4.155747657930    -3.233597783128     1.025449923084
C                    -1.602799892109    -2.566785712837     1.843268452012
C                     3.777224870758     4.374216876531    -0.136293278973
C                    -5.128200927874     2.578500442131    -0.882153909787
C                    -6.355646693031     1.732341007460    -0.523398664323
C                    -6.257926141088     0.378963268990    -1.222678645796
C                    -7.420289030826    -0.548369002280    -0.855890035181
C                    -7.864971071615    -3.038356618269    -0.551495158986
C                    -5.730841667533    -4.442694233254    -0.356207230737
C                    -7.237445313239    -4.437075297336    -0.669396899878
N                    -7.002066602003    -1.968778099577    -1.147777458744
O                     3.855330135860     5.476252056098    -0.741680220810
O                     4.629241117085     3.760750552294     0.559808443006
O                    -5.099648060200    -0.342577991212    -0.809045559250
O                    -8.010603920890    -5.196048320294     0.249961025376
O                    -5.476809941172    -3.456835057735     0.635214168778
F                    -0.354546402769    -2.227066315750     2.227197922122
H                     0.789893223093     0.828857133793     0.757716258833
H                    -0.645570362586     4.031629169626    -1.751867789412
H                    -0.577803135222    -0.336343759785    -0.650198842810
H                     2.997212709131     2.004029842728     0.939152629628
H                     1.571961672108     5.176425238673    -1.504056419451
H                    -2.779004634191    -1.469568802901    -0.784071628179
H                    -4.829148032120    -1.621203024464     2.278884745247
H                    -3.194353784222    -4.787101627125    -0.151887533401
H                    -2.509075747075    -1.007561844200     3.013742559452
H                    -0.908426155978    -4.167254616376     0.595406612018
H                    -2.561533560228     3.474241738818    -0.648438243771
H                    -5.073590966880     3.447820211736    -0.220567337449
H                    -5.240192431377     2.971713871310    -1.900520541901
H                    -6.390637213143     1.556916068611     0.558264150444
H                    -7.282636200347     2.240045386987    -0.813000957812
H                    -6.217420546670     0.526334005018    -2.314237540078
H                    -8.334872878039    -0.321191754627    -1.405817649558
H                    -7.617203041267    -0.509461956963     0.217037799539
H                    -8.846948933380    -3.007353564858    -1.025089331149
H                    -7.968072181016    -2.805561694140     0.507854501809
H                    -5.153551109233    -4.223887563636    -1.267934679910
H                    -5.437397610995    -5.441052516279    -0.009164042221
H                    -7.363925789314    -4.824011155474    -1.691549371592
H                    -6.899341330131    -2.094957780742    -2.159710698296
H                    -6.050682062317    -2.038397595348    -0.736614703712
H                    -7.869864669621    -6.142865018172     0.090500537457
