59
0 1 C26FH26NO5
C                     1.372291955466     1.886190671750     0.447152308801
C                     0.754298536067     3.564028114586    -1.180866391133
C                    -1.135614262347     0.440301173165    -0.396082633307
C                     2.640189249006     2.457420473496     0.547578527946
C                     2.026120154883     4.125611608461    -1.078766749603
C                    -2.402980092631    -0.123878876863    -0.505676725916
C                   -11.934804078838    -4.742970073417    -1.630096350207
C                   -10.569044535573    -6.516873309891    -0.687499967587
C                   -13.082479723886    -5.503993684524    -1.420983392157
C                   -11.722269228105    -7.285182098366    -0.477842295683
C                    -2.076798477372     2.622520122486    -0.766982125333
C                     0.404036791212     2.431042000272    -0.419585711029
C                    -0.938550484172     1.832286786616    -0.527561066426
C                     2.987610465846     3.582910729119    -0.213733257195
C                    -3.362546738597     2.082866790576    -0.886293663106
C                    -3.499459435371     0.699035401058    -0.754679369030
C                   -10.680656550224    -5.247369773013    -1.262817308737
C                   -12.956510073156    -6.767941379284    -0.845599692184
C                     4.401490161959     4.211824752156    -0.103981273981
C                    -4.562738236955     2.970169303576    -1.151875094849
C                    -5.879584782323     2.235489372290    -0.869692717828
C                    -5.792815965513     0.833104273043    -1.461185974413
C                    -7.047377718173    -0.002298692885    -1.224757290922
C                    -7.635109244470    -2.475625100895    -1.002228314720
C                    -8.308958943030    -4.892833091229    -1.227186066149
C                    -7.299740260858    -3.823876144089    -1.637364990787
N                    -6.712242599137    -1.434382492512    -1.559894320287
O                     4.582494417228     5.229878735791    -0.823575421345
O                     5.181475631887     3.621324253186     0.689563245406
O                    -4.761103600566     0.068944450862    -0.834279808466
O                    -7.279434900477    -3.552875350323    -3.040999302800
O                    -9.606642727449    -4.406961817275    -1.504669788756
F                   -14.071702042833    -7.509900465900    -0.641834953574
H                     1.114597624293     1.034074125173     1.074317665745
H                     0.037413040465     3.979835341578    -1.887463962079
H                    -0.278156238049    -0.205116013785    -0.235024569972
H                     3.397142545428     2.060522272272     1.218449773743
H                     2.321204671358     4.990468699646    -1.666571746865
H                    -2.545890288115    -1.197938272379    -0.411615365592
H                   -11.996446132906    -3.757199513914    -2.081129851050
H                    -9.609949979180    -6.927748774616    -0.393271585754
H                   -14.063856096375    -5.132785862105    -1.698849498216
H                   -11.662160660800    -8.273301860719    -0.032822618666
H                    -1.960576461365     3.701109809394    -0.834518530889
H                    -4.503536420093     3.872753602444    -0.536854010924
H                    -4.549395822062     3.306211686356    -2.196284648917
H                    -6.043776056297     2.144521883571     0.210165629109
H                    -6.730907388455     2.776169943001    -1.298047138659
H                    -5.582377048126     0.901247724237    -2.541250626377
H                    -7.892676991163     0.313334997079    -1.837861758491
H                    -7.326373601702     0.018917042802    -0.169395155037
H                    -8.654788987498    -2.188934821969    -1.259711938111
H                    -7.518803205707    -2.492433256094     0.082459319317
H                    -8.183696754604    -5.111755349024    -0.156433996449
H                    -8.103662305187    -5.818201765791    -1.784542212001
H                    -6.307288632691    -4.161068873456    -1.300927116835
H                    -6.679207277691    -1.576964227702    -2.578952486472
H                    -5.742744450533    -1.558745804653    -1.217274174819
H                    -7.093352867074    -4.363737606687    -3.541426008691
