35
0 1 C17FH15O2
C                    -3.588239099122    -0.930352179776    -2.455461470045
C                     0.269940539599     2.053767880814    -0.570652300073
C                    -4.581665847427    -1.553851931474    -3.208893907063
C                     1.276556209655     2.713133872115     0.128886396139
C                    -3.178787285139    -2.976078778949    -1.250641200416
C                     2.005493425182     0.577724107897     1.013707443737
C                    -2.857893642494    -1.622451200042    -1.469402979930
C                     0.086177371316     0.662770696307    -0.474527571969
C                     0.993582818539    -0.087465536817     0.312349901950
C                     2.142918508373     1.968497201730     0.937267224144
C                    -4.884073652611    -2.902431583133    -2.998359695444
C                    -4.164917118925    -3.579643959445    -2.010846984020
C                    -1.016297416926     0.010233895663    -1.200032210726
C                    -1.786262836993    -0.974735177328    -0.680004563989
C                     0.926574865221    -1.599605778466     0.312903114390
C                    -1.583550145011    -1.395450978041     0.766095208452
C                    -0.294917931489    -2.192787374941     1.041580641493
O                     3.122239329030     2.652328780598     1.618433744868
O                    -5.860979620693    -3.513657556272    -3.735097173560
F                    -4.473205612243    -4.900863085521    -1.813716032089
H                    -3.396298142645     0.125612964123    -2.617401084404
H                    -0.406778574760     2.632659226635    -1.195329513399
H                    -5.146741619844    -1.006147533437    -3.957447144987
H                     1.405327451541     3.789261927183     0.062066602361
H                    -2.653875523251    -3.574039078474    -0.512478669239
H                     2.709256468982    -0.001627018835     1.611622858451
H                    -1.205271181531     0.357623266618    -2.214577008605
H                     0.891616365621    -1.930111067876    -0.731517282519
H                     1.844172958743    -2.012914098374     0.744007896731
H                    -1.538393082911    -0.477816789341     1.363733805276
H                    -2.450268130192    -1.955206275780     1.128063914279
H                    -0.409069139483    -3.238742650350     0.730517243426
H                    -0.123414841367    -2.201828531630     2.124858235226
H                     3.651729749107     2.019802181163     2.129313071239
H                    -5.931174310925    -4.438534106612    -3.443147217126
