59
0 1 C26FH26NO5
C                     1.083288320155     0.546033663873    -0.551314349717
C                     0.546750762495     2.723140719004    -1.457358578526
C                    -1.541978475476    -0.324544483848    -1.791085430001
C                     2.398041890278     0.954654420922    -0.341986482218
C                     1.857953093150     3.137233226621    -1.247931135751
C                    -2.851743756622    -0.752276867451    -1.961416069803
C                    -4.344821315317    -1.973023370832     1.184063468169
C                    -3.401106961170    -3.716559550818    -0.206525509037
C                    -3.066118667644    -1.579895721279     1.575857961576
C                    -2.115302813539    -3.333575185914     0.191862177866
C                    -2.341423140842     1.831002547611    -1.084155414057
C                     0.134979204957     1.419630434199    -1.117350017844
C                    -1.258340781749     0.976676723222    -1.338071663367
C                     2.796959077189     2.254906947941    -0.690624981270
C                    -3.668152832634     1.419865351838    -1.237512260902
C                    -3.917754488475     0.104194770526    -1.661322361853
C                    -4.522948963268    -3.033311643829     0.283167620319
C                    -1.968736432164    -2.266301286893     1.065148432296
C                     4.183651076996     2.737009204838    -0.491242978278
C                    -4.834171167415     2.324160591756    -0.919580751194
C                    -6.026069956164     1.478721494271    -0.469555470524
C                    -6.325463853713     0.376737962401    -1.485276068414
C                    -7.399703645740    -0.568260408497    -0.953345781555
C                    -8.337873450409    -2.820935429841    -1.301289370387
C                    -6.015508753813    -3.898805239947    -1.365090356347
C                    -7.498588874389    -4.060471978785    -1.652407159923
N                    -7.795438699579    -1.600509687226    -1.908228584778
O                     4.589481212733     3.852611757821    -0.774371756990
O                    -5.169983379276    -0.434960198161    -1.775957089648
O                     5.008484082691     1.796964906318     0.055909016961
O                    -7.964402046013    -5.209434625144    -0.933273730114
O                    -5.815099437935    -3.346153283703    -0.056086106115
F                    -0.713423618289    -1.869435190850     1.421735564644
H                     0.774010260162    -0.447265510390    -0.239689071288
H                    -0.163569797674     3.404385404494    -1.917698607846
H                    -0.726951578588    -1.004778678995    -2.021014848951
H                     3.115919725444     0.274424115227     0.104010024179
H                     2.178571944653     4.137940278571    -1.520757416265
H                    -3.072241687188    -1.759396991558    -2.297159552127
H                    -5.220457719824    -1.453130315026     1.559716527328
H                    -3.511771346439    -4.544815253543    -0.896714331866
H                    -2.914060384632    -0.743312452041     2.250601937871
H                    -1.236638509950    -3.848450959124    -0.184667436883
H                    -2.151939455785     2.834716119883    -0.709302444382
H                    -4.556257795247     3.044137604123    -0.143205365240
H                    -5.112598259528     2.909201532401    -1.806421885168
H                    -5.805656609284     1.019936277556     0.501807392735
H                    -6.921292378720     2.097170365912    -0.346840460726
H                    -6.648895647223     0.832239269391    -2.433199233506
H                    -8.249903639461     0.042504720085    -0.601996656909
H                    -6.977859305832    -1.071756792011    -0.082009254099
H                    -9.370813231314    -3.000426285913    -1.633558227519
H                    -8.370313002985    -2.739001160153    -0.210603793131
H                    -5.576454375073    -3.221068279683    -2.103241600175
H                    -5.555294160659    -4.890048952338    -1.441678555055
H                    -7.569555015034    -4.241080642338    -2.736896156710
H                    -8.433801382800    -1.221039254797    -2.599123255922
H                     5.879518830967     2.229345942381     0.137089976431
H                    -8.912012673752    -5.316685896781    -1.111872472785
