
  -OEChem-05262117483D

 29 30  0     1  0  0  0  0  0999 V2000
    1.1091    3.5261    1.9219 C   0  0  0  0  0  0  0  0  0  0  0  0
    1.4367    2.5446    2.8635 C   0  0  0  0  0  0  0  0  0  0  0  0
   -0.2318    3.8383    1.6650 C   0  0  0  0  0  0  0  0  0  0  0  0
    0.4257    1.8590    3.5432 C   0  0  0  0  0  0  0  0  0  0  0  0
   -1.2504    3.1608    2.3388 C   0  0  0  0  0  0  0  0  0  0  0  0
   -0.9065    2.1694    3.2623 C   0  0  0  0  0  0  0  0  0  0  0  0
   -2.7747   -2.0998    0.6258 C   0  0  0  0  0  0  0  0  0  0  0  0
   -1.8561   -0.9858    0.1129 C   0  0  0  0  0  0  0  0  0  0  0  0
   -2.5493   -2.2590    2.1304 C   0  0  0  0  0  0  0  0  0  0  0  0
   -0.9186   -0.6721    1.2897 C   0  0  0  0  0  0  0  0  0  0  0  0
   -1.7503   -1.0153    2.5552 C   0  0  1  0  0  0  0  0  0  0  0  0
   -2.6864    0.0450    2.9672 N   0  0  0  0  0  0  0  0  0  0  0  0
   -3.5496   -2.7475   -0.0497 O   0  0  0  0  0  0  0  0  0  0  0  0
   -1.6087    0.5265    5.1903 O   0  0  0  0  0  0  0  0  0  0  0  0
   -3.3810    2.1014    4.1892 O   0  0  0  0  0  0  0  0  0  0  0  0
   -2.2154    1.2275    4.0591 S   0  0  0  0  0  0  0  0  0  0  0  0
    1.8980    4.0564    1.3956 H   0  0  0  0  0  0  0  0  0  0  0  0
    2.4778    2.3154    3.0733 H   0  0  0  0  0  0  0  0  0  0  0  0
   -0.4833    4.6141    0.9472 H   0  0  0  0  0  0  0  0  0  0  0  0
    0.6563    1.1016    4.2855 H   0  0  0  0  0  0  0  0  0  0  0  0
   -2.2945    3.4063    2.1688 H   0  0  0  0  0  0  0  0  0  0  0  0
   -1.3532   -1.2950   -0.8065 H   0  0  0  0  0  0  0  0  0  0  0  0
   -2.4870   -0.1267   -0.1503 H   0  0  0  0  0  0  0  0  0  0  0  0
   -3.4851   -2.3924    2.6760 H   0  0  0  0  0  0  0  0  0  0  0  0
   -1.9451   -3.1633    2.2762 H   0  0  0  0  0  0  0  0  0  0  0  0
   -0.0445   -1.3320    1.2583 H   0  0  0  0  0  0  0  0  0  0  0  0
   -0.5518    0.3549    1.2948 H   0  0  0  0  0  0  0  0  0  0  0  0
   -1.1229   -1.2166    3.4239 H   0  0  0  0  0  0  0  0  0  0  0  0
   -3.2920    0.4328    2.2465 H   0  0  0  0  0  0  0  0  0  0  0  0
  1  2  1  0  0  0  0
  1  3  2  0  0  0  0
  1 17  1  0  0  0  0
  2  4  2  0  0  0  0
  2 18  1  0  0  0  0
  3  5  1  0  0  0  0
  3 19  1  0  0  0  0
  4  6  1  0  0  0  0
  4 20  1  0  0  0  0
  5  6  2  0  0  0  0
  5 21  1  0  0  0  0
  6 16  1  0  0  0  0
  7  8  1  0  0  0  0
  7  9  1  0  0  0  0
  7 13  2  0  0  0  0
  8 10  1  0  0  0  0
  8 22  1  0  0  0  0
  8 23  1  0  0  0  0
  9 11  1  0  0  0  0
  9 24  1  0  0  0  0
  9 25  1  0  0  0  0
 10 11  1  0  0  0  0
 10 26  1  0  0  0  0
 10 27  1  0  0  0  0
 11 12  1  0  0  0  0
 11 28  1  0  0  0  0
 12 16  1  0  0  0  0
 12 29  1  0  0  0  0
 14 16  2  0  0  0  0
 15 16  2  0  0  0  0
M  END
$$$$
