73
0 1 C32FH37O3
C                     3.514294786178     1.919575689372     1.388559212179
C                     3.892281712631    -0.459935028834     1.271798525523
C                     2.851405247252    -1.753063798701     4.098279669031
C                     4.425739485384    -0.004801965681     4.561235564181
C                     3.884099352345    -2.693979228745     4.126516739621
C                     5.455965042290    -0.944976007869     4.572238761798
C                     4.878970950230     2.158609782151     1.179770486297
C                     5.252633964403    -0.243698752849     1.061235976464
C                    -1.173622738302     0.023628741434     2.116885683120
C                     3.006839728494     0.611720970794     1.462893179471
C                     1.547785623851     0.381369744690     1.718233312361
C                     0.716840515539     0.177754345180     0.598355965326
C                     3.109497128096    -0.392097558486     4.292740461550
C                     5.215915225606    -2.310470502143     4.346282093131
C                    -0.356389622246     0.216631333231     3.229590821538
C                     1.036279460615     0.402263232624     3.031884765107
C                    -0.656754432973     0.007775348926     0.819338458172
C                     5.723773675077     1.065619489974     1.031688795395
C                    -2.773031615219     1.291762201472    -2.380858029843
C                    -2.306975588298    -0.190315382295    -2.467560397870
C                    -1.383822700428     1.657640198651    -1.786846455955
C                     0.236750375609    -0.451969250197    -1.779175127393
C                     1.275412620660     0.114129898028    -0.814193490407
C                    -1.132574472654     0.145033529625    -1.521572931265
C                    -2.360304104342    -0.403552863945     4.721472942455
C                    -1.098971635108     1.755373080423     5.078091290967
C                     7.139574803058    -3.229082668538     5.685575563177
C                     7.351745812708    -2.942285003682     3.188533062451
C                     5.917039823583    -4.756290162323     4.133617091264
C                     1.968400007752     0.617653507710     4.229344841207
C                    -0.992044368094     0.286235678659     4.617681510799
C                     6.385087991032    -3.304898443147     4.338956571293
O                    -1.559510502765    -0.210416845406    -0.184251286633
O                     1.655668479072     1.408523496681    -1.321542358100
O                     2.418037121063     1.975068905340     4.344990540897
F                     7.051411773636     1.280742652279     0.846042677011
H                     2.833868039318     2.762489479122     1.490691742073
H                     3.516202808695    -1.475560036153     1.327922107968
H                     1.836282609026    -2.081835217813     3.887233081577
H                     4.650089947754     1.041005330613     4.745654795785
H                     3.634447366460    -3.736440479326     3.960520177593
H                     6.468876063741    -0.596380874888     4.755022333103
H                     5.279548404181     3.166550099184     1.131247783052
H                     5.946336804376    -1.069479081002     0.943658578868
H                    -2.243132564500    -0.117195516862     2.222287009438
H                    -3.583593568808     1.425651020910    -1.660403768424
H                    -3.050892963976     1.776076397942    -3.320593812757
H                    -2.988331385127    -0.964081734097    -2.104915710490
H                    -1.949228250791    -0.460900031103    -3.465559205524
H                    -0.689017658410     2.051819598494    -2.531092445389
H                    -1.353620435014     2.301135488057    -0.904757275124
H                     0.557783117776    -0.242991020664    -2.803049245412
H                     0.173785944733    -1.539747892989    -1.654726025044
H                     2.156709956588    -0.538490861872    -0.822475478886
H                    -3.135209293127     0.133723054677     4.164888051221
H                    -2.677537200675    -0.430336353530     5.769123606395
H                    -2.326183080596    -1.433402149395     4.351441158177
H                    -1.771875540530     2.307149248383     4.411954027455
H                    -0.129638521000     2.260120174274     5.063407464763
H                    -1.504844533655     1.811633719765     6.094540460041
H                     7.971431011650    -3.942532904441     5.697357413309
H                     7.553482336781    -2.232921518708     5.865748989058
H                     6.470956825576    -3.468742317574     6.518919310075
H                     8.211132005301    -3.622468307857     3.179771168451
H                     6.846811406000    -3.023539254195     2.219643012547
H                     7.731801493965    -1.920942675818     3.283756003795
H                     6.782057033209    -5.427660051805     4.140640463498
H                     5.239920402540    -5.081479125804     4.930391232085
H                     5.406643895302    -4.889305606526     3.173849109244
H                     1.389550678601     0.480324390806     5.140324181975
H                    -0.337251087030    -0.240906247666     5.320174672171
H                     2.386168286109     1.733421243359    -0.769784325042
H                     2.992809086888     2.159432202913     3.584336179064
