59
0 1 C26FH26NO5
C                     1.257149037628     1.960249054133    -0.011201385066
C                     0.286166779786     3.881727437209    -1.111613763339
C                    -1.308702534554     0.531155391502    -0.698225468879
C                     2.500365050970     2.591547099881    -0.016306325866
C                     1.533423331012     4.504512656794    -1.116060841615
C                    -2.552895345526    -0.091846483817    -0.716027641134
C                    -8.418519559889    -1.808757149490    -5.820184963223
C                    -6.352891182627    -3.084297471195    -5.938510850233
C                    -8.334363920689    -1.530496007351    -7.183218984556
C                    -6.268555279210    -2.809620091755    -7.309330682325
C                    -2.382967150284     2.666302519779    -0.429484648101
C                     0.125118442728     2.595298087871    -0.559433468034
C                    -1.191402002475     1.931506815103    -0.560459796651
C                     2.658763660148     3.870557681065    -0.569524581103
C                    -3.647986047888     2.067764326989    -0.448250542017
C                    -3.707148483383     0.680389498075    -0.599886425196
C                    -7.428929610950    -2.581673145265    -5.203298884180
C                    -7.256898947025    -2.038702771846    -7.907559047150
C                     4.044983575675     4.566446065252    -0.579569168910
C                    -4.909095971646     2.898982294946    -0.313154373021
C                    -6.133520013220     2.023840819300    -0.013396274550
C                    -6.080210044837     0.790650925482    -0.908520735820
C                    -7.251762181507    -0.164006501167    -0.703119236222
C                    -7.834804557413    -2.612278299748    -1.168282615273
C                    -6.753793826557    -3.745871136901    -3.194629035748
C                    -7.214870359427    -3.889729501527    -1.726862800931
N                    -6.909984031065    -1.455587401234    -1.398915215484
O                     4.050532072813     5.724405258661    -1.075947573888
O                     4.982550721586     3.881584474694    -0.090915041966
O                    -4.936698415883    -0.010345917187    -0.616926148342
O                    -6.096722522270    -4.161353480836    -0.882815338967
O                    -7.589209058813    -2.779738502439    -3.831993150989
F                    -7.175904511938    -1.774226727795    -9.230895310702
H                     1.152045003068     0.982099276185     0.455698594838
H                    -0.564504647329     4.377314166621    -1.577260244141
H                    -0.412102319754    -0.067578353434    -0.822668475107
H                     3.383371798626     2.123665512127     0.410259370157
H                     1.681651635752     5.490537104940    -1.547766340634
H                    -2.637852571781    -1.170001943781    -0.829831576584
H                    -9.252198101333    -1.439354175908    -5.230161411673
H                    -5.574036574981    -3.679826852325    -5.476000331790
H                    -9.090079027107    -0.935462899192    -7.685960814285
H                    -5.443041360032    -3.185801259186    -7.905012921585
H                    -2.321577952962     3.741355810640    -0.281148745759
H                    -4.783030190584     3.642578460057     0.479188533090
H                    -5.080845870019     3.460995374880    -1.239734143715
H                    -6.121132339850     1.690830045135     1.030686263878
H                    -7.063328939672     2.578667106494    -0.181810192160
H                    -6.037918223328     1.106365039798    -1.964864357845
H                    -8.186343429132     0.220017495868    -1.115387738786
H                    -7.379983518311    -0.399277032706     0.355283250284
H                    -8.784170719965    -2.382015668492    -1.649296952618
H                    -7.973243999233    -2.721122908090    -0.091981180584
H                    -6.811867993242    -4.707949665375    -3.716421340314
H                    -5.706825494296    -3.414776296452    -3.198909491996
H                    -7.975483037971    -4.674914174592    -1.641675673637
H                    -6.865681796539    -1.299879356542    -2.415282695472
H                    -5.949707906629    -1.688033116030    -1.091078099743
H                    -5.745442047783    -5.049488252002    -1.057482369047
