59
0 1 C26FH26NO5
C                     1.062546758998     1.939480473189     0.509959034284
C                     0.510624823884     3.257004958064    -1.438070153865
C                    -1.297443426838     0.217908137297    -0.270578536811
C                     2.295167909027     2.577891565541     0.595590516974
C                     1.741807553834     3.902229461009    -1.355958324056
C                    -2.527612306171    -0.421569331803    -0.362074678856
C                    -5.758822039550    -8.361556056792    -1.462921125319
C                    -4.872546850020    -6.622825800732    -0.019607317431
C                    -4.822281682639    -9.265141357856    -0.965495981360
C                    -3.929852289152    -7.530081205049     0.482639445850
C                    -2.315884477143     2.270121808768    -1.006783895491
C                     0.144887492590     2.264262986237    -0.508797982442
C                    -1.164377948930     1.581296019430    -0.598169054643
C                     2.646617434465     3.566197513604    -0.336913842394
C                    -3.567033280215     1.653039315019    -1.099733888421
C                    -3.662301810175     0.288157454493    -0.779167060329
C                    -5.789330238184    -7.039095544481    -0.993671847313
C                    -3.919470954134    -8.832271340884     0.003943222195
C                     3.970875212503     4.218936639863    -0.206760299673
C                    -4.802678423997     2.427082516462    -1.507438570925
C                    -6.073497177915     1.667437554866    -1.115788675192
C                    -5.938883930750     0.199915747002    -1.516805647858
C                    -7.181638734402    -0.620786728932    -1.198470767531
C                    -8.249304727278    -2.806591674079    -1.401016477644
C                    -6.847610696426    -4.876342008431    -1.080386629838
C                    -8.015948473131    -4.252686805636    -1.831518627686
N                    -7.088039060028    -1.978603316972    -1.727644390379
O                     4.796389142265     3.968043193658     0.655478226878
O                    -4.837053569223    -0.414482987481    -0.823877248150
O                     4.204376773420     5.160715099728    -1.166589830294
O                    -9.225413082426    -4.966405556639    -1.581165958256
O                    -6.747007033578    -6.228252158576    -1.548959534700
F                    -3.003371612183    -9.713435377072     0.491737457339
H                     0.792589111100     1.198817198683     1.257165203992
H                    -0.166015998707     3.502924556539    -2.251482060116
H                    -0.423219782605    -0.354879625659     0.025469690741
H                     2.997384892812     2.331765434492     1.386089901977
H                     2.012204741615     4.658003586561    -2.085762601734
H                    -2.632526355529    -1.476969261524    -0.127956139645
H                    -6.475704719929    -8.664918809879    -2.220099517851
H                    -4.875027458155    -5.605813322517     0.354239823952
H                    -4.785633345578   -10.291228076920    -1.318283182118
H                    -3.210835574668    -7.227152012142     1.237610751364
H                    -2.250580807825     3.334359881633    -1.223380710493
H                    -4.790740847596     3.419559275254    -1.044938434939
H                    -4.795012138494     2.590060937436    -2.593152607663
H                    -6.232893889397     1.721407814697    -0.032457369972
H                    -6.950300603384     2.105592840357    -1.603127479262
H                    -5.727887117705     0.141409311328    -2.597120542434
H                    -8.062526714716    -0.071233893730    -1.577935913479
H                    -7.284454532619    -0.681561615013    -0.109279189835
H                    -9.189300780711    -2.456586072162    -1.859895242306
H                    -8.399084664268    -2.782215094119    -0.315628276481
H                    -7.052339040278    -4.870291031072    -0.001756963591
H                    -5.926068295895    -4.321447208664    -1.281265717493
H                    -7.781806120946    -4.280693562428    -2.908535880388
H                    -6.986985744721    -1.931807826976    -2.740955316340
H                     5.095044112632     5.512100451845    -0.977683318821
H                    -9.026994298376    -5.908239315523    -1.716507046339
