16   
torsion grid (-165,)
C        0.5970131253    0.9157580382    1.8622112914
C        0.2838647008    0.8821978045    3.2238531255
C       -0.2405809258    0.1869067763    1.0162882690
C       -4.2884636029   -1.9981693876    4.4362805696
C       -4.3209389191   -2.5869121815    3.2052489895
C       -1.4934574264   -0.4679939852    2.7986920476
C       -2.6556114368   -1.2100376719    3.3143745409
N       -0.7549434742    0.1943171477    3.7049792495
N       -1.2902889204   -0.5056211034    1.4705707385
N       -3.2196040156   -1.1199495214    4.4892690653
O       -3.2810542652   -2.0883835681    2.4728738170
H        1.4451333987    1.4773421850    1.4834020622
H        0.8856592476    1.4216745159    3.9541424614
H       -0.0706690223    0.1574853209   -0.0591568762
H       -4.9539498385   -2.1417882106    5.2769412639
H       -4.9506922875   -3.3182541129    2.7206127431
16   
torsion grid (-150,)
C        0.5902908975    0.9258686268    1.8631596416
C        0.3378308001    0.8147841741    3.2329304194
C       -0.2943970783    0.2613240951    1.0122321271
C       -4.3540621097   -1.9181803455    4.3896551030
C       -4.2611200829   -2.6556945671    3.2456129973
C       -1.4777485307   -0.4832505237    2.8063999510
C       -2.6427232931   -1.2214122549    3.3261249244
N       -0.6901448386    0.1118037112    3.7173672813
N       -1.3356506294   -0.4417877275    1.4708384906
N       -3.3131270022   -1.0040697325    4.4248018780
O       -3.1717960753   -2.2133289619    2.5477342703
H        1.4295598863    1.4985047482    1.4811251737
H        0.9800030103    1.3005008423    3.9664728048
H       -0.1727623991    0.2962962923   -0.0695287784
H       -5.0907933396   -1.9774269567    5.1794813645
H       -4.8250083772   -3.4649986977    2.8059951173
16   
torsion grid (-135,)
C        0.5781598391    0.9306938861    1.8672223365
C        0.3846369452    0.7427704759    3.2375691187
C       -0.3583427517    0.3359844863    1.0200195531
C       -4.4253349348   -1.8525454434    4.3358214857
C       -4.2089086206   -2.7219847190    3.3083444718
C       -1.4752868732   -0.4932140463    2.8191832216
C       -2.6448311678   -1.2267192502    3.3449560047
N       -0.6366014919    0.0311690040    3.7265296446
N       -1.3944195055   -0.3722258194    1.4839210487
N       -3.4176472079   -0.8981303824    4.3419992443
O       -3.0724723813   -2.3265811120    2.6551187658
H        1.4116576652    1.5093773737    1.4814627852
H        1.0686888036    1.1719196689    3.9683732528
H       -0.2852169938    0.4348877068   -0.0620870328
H       -5.2280990400   -1.8411668792    5.0606586441
H       -4.7052042296   -3.6034618215    2.9306185677
16   
torsion grid (-120,)
C        0.5749146087    0.9364188813    1.8608529283
C        0.4353102451    0.6658115593    3.2232430512
C       -0.4164881571    0.4282073327    1.0198998359
C       -4.4953739859   -1.7990252725    4.2458721221
C       -4.1483987325   -2.7816808405    3.3692105989
C       -1.4813659113   -0.4822927027    2.8107203112
C       -2.6595615748   -1.2108315929    3.3375980307
N       -0.5889240875   -0.0445091397    3.7109422193
N       -1.4549741790   -0.2768830609    1.4846621381
N       -3.5330313195   -0.7959082184    4.2082998021
O       -2.9723400904   -2.4125267522    2.7676223692
H        1.4098912096    1.5134360180    1.4756252107
H        1.1640338644    1.0251308807    3.9483724287
H       -0.3868462475    0.5957811645   -0.0557245393
H       -5.3606794628   -1.7364200100    4.8917121643
H       -4.5680264677   -3.7316939857    3.0740028003
16   
torsion grid (-105,)
C        0.5886335725    0.9251071618    1.8657800970
C        0.4895409524    0.5615328890    3.2094246671
C       -0.4584750846    0.5279456192    1.0327741016
C       -4.5559434736   -1.7686699906    4.1612885812
C       -4.0672979011   -2.8427788896    3.4846921984
C       -1.4997790959   -0.4566918059    2.7973540474
C       -2.6907735856   -1.1803805901    3.3168236645
N       -0.5520657343   -0.1319270944    3.6873213266
N       -1.5121986685   -0.1604926539    1.4896711324
N       -3.6616826455   -0.7073333013    4.0382560556
O       -2.8653322798   -2.4774843276    2.9271893444
H        1.4364876025    1.4880637218    1.4877687564
H        1.2637342352    0.8295612640    3.9267567238
H       -0.4605040349    0.7702370257   -0.0288639168
H       -5.4770956573   -1.6764926216    4.7203960100
H       -4.3947071713   -3.8566761967    3.3105443107
16   
torsion grid (-90,)
C        0.5975591180    0.9105659796    1.8776998385
C        0.5162883053    0.4287234869    3.1848764210
C       -0.4957628420    0.6548912655    1.0490463828
C       -4.6211684423   -1.7482129199    4.0726537091
C       -3.9852411301   -2.8737564906    3.6520652388
C       -1.5489515600   -0.4156588252    2.7548200597
C       -2.7533241130   -1.1393400387    3.2498843830
N       -0.5543090614   -0.2388423553    3.6349712261
N       -1.5764887673   -0.0104606335    1.4779390185
N       -3.8145591175   -0.6419063409    3.8064449631
O       -2.7750149260   -2.4976275526    3.1162331978
H        1.4682703166    1.4532387785    1.5225551695
H        1.3281139386    0.5786483089    3.8949005600
H       -0.5115152598    0.9896128483    0.0129972101
H       -5.5895940352   -1.6476841949    4.5433898636
H       -4.2101435593   -3.9295915759    3.6473271469
16   
torsion grid (-75,)
C        0.6047903627    0.9077322539    1.8895427580
C        0.5413239466    0.3053627987    3.1469528484
C       -0.5231348548    0.7784999266    1.0780062856
C       -4.6601467466   -1.7545323805    3.9680229685
C       -3.9033091267   -2.8738515168    3.8114701436
C       -1.5753468746   -0.4000755544    2.7110928245
C       -2.7829049469   -1.1348428835    3.1739521941
N       -0.5453050019   -0.3541631224    3.5682906380
N       -1.6187552090    0.1188600620    1.4763414413
N       -3.9230297181   -0.6454711342    3.5578167071
O       -2.6836574488   -2.4902700466    3.3066931778
H        1.4888539455    1.4431547186    1.5572329006
H        1.3808422057    0.3497255599    3.8390613344
H       -0.5527626235    1.2079369169    0.0777738850
H       -5.6699619497   -1.6613462498    4.3438225999
H       -4.0474602032   -3.9303105978    3.9806338345
16   
torsion grid (-60,)
C        0.6060285418    0.9222561341    1.9005742685
C        0.5732009027    0.2186266405    3.1056071741
C       -0.5548356917    0.8859405154    1.1260073748
C       -4.6857522246   -1.7576917929    3.8689906404
C       -3.8550766348   -2.8331787710    3.9570637359
C       -1.5766022750   -0.3981201878    2.6974949811
C       -2.7800950254   -1.1407988103    3.1415163425
N       -0.5132037288   -0.4478530399    3.5145741265
N       -1.6504798497    0.2192979901    1.5091581270
N       -3.9783582143   -0.6785841827    3.3504314798
O       -2.6193844630   -2.4487593255    3.5021510820
H        1.4910353026    1.4622385875    1.5785102944
H        1.4390923290    0.1853495226    3.7651717601
H       -0.6094481946    1.3955781001    0.1651513856
H       -5.7291943546   -1.6786437302    4.1424234677
H       -3.9575016217   -3.8594764100    4.2763948967
16   
torsion grid (-45,)
C        0.6040859516    0.9280685230    1.9017180553
C        0.6053887824    0.1393652576    3.0534508343
C       -0.5895319396    0.9667804620    1.1775929403
C       -4.7051939636   -1.7876066608    3.7609949630
C       -3.8353543593   -2.7915002440    4.0672460937
C       -1.5707780845   -0.4111715468    2.6943563101
C       -2.7686448286   -1.1575246774    3.1312692697
N       -0.4750906557   -0.5365292503    3.4606366372
N       -1.6808218775    0.2929536315    1.5568380515
N       -4.0049204869   -0.7459772194    3.1683723653
O       -2.5834270162   -2.3968536648    3.6771414453
H        1.4856190021    1.4748075291    1.5816799274
H        1.4967116995    0.0441616464    3.6719196504
H       -0.6738996111    1.5457675353    0.2590046709
H       -5.7727227763   -1.7371036998    3.9276708129
H       -3.9192600743   -3.7713729456    4.5130893435
16   
torsion grid (-30,)
C        0.6002362894    0.9283800315    1.8967519248
C        0.6337236835    0.0681279146    2.9955440482
C       -0.6228342633    1.0359004630    1.2298729864
C       -4.7176350200   -1.8316093068    3.6561615010
C       -3.8334720746   -2.7405779909    4.1594663103
C       -1.5667029768   -0.4218527948    2.6951372551
C       -2.7608634384   -1.1667585363    3.1327694691
N       -0.4420410904   -0.6128714120    3.4051147697
N       -1.7105255632    0.3603975091    1.6127084464
N       -4.0153906220   -0.8292405454    3.0061083341
O       -2.5717895036   -2.3227732127    3.8379798722
H        1.4784721034    1.4785223677    1.5737684579
H        1.5479381663   -0.0818937573    3.5681732560
H       -0.7343345389    1.6757560475    0.3555141530
H       -5.7974911874   -1.8256471848    3.7192232446
H       -3.9134216347   -3.6632615370    4.7148525756
16   
torsion grid (-15,)
C        0.5977681887    0.9275478295    1.8908434411
C        0.6552773748    0.0042204063    2.9360976701
C       -0.6504229631    1.1037014236    1.2873591746
C       -4.7216027217   -1.8842529763    3.5645110032
C       -3.8429593218   -2.6753122453    4.2466154498
C       -1.5674459390   -0.4204459159    2.7012368295
C       -2.7603103464   -1.1609470917    3.1439203288
N       -0.4188520563   -0.6753193712    3.3511851126
N       -1.7378430150    0.4339713597    1.6783095621
N       -4.0140612469   -0.9205855646    2.8664555212
O       -2.5806197197   -2.2200039447    3.9905626891
H        1.4750967919    1.4757031515    1.5622124394
H        1.5883408617   -0.1990684326    3.4599236060
H       -0.7835520606    1.8000393465    0.4603732263
H       -5.8013928805   -1.9395344346    3.5297538578
H       -3.9282004359   -3.5309105087    4.9000706526
16   
torsion grid (0,)
C        0.5997993909    0.9219861028    1.8881195768
C        0.6730786237   -0.0608422731    2.8765563955
C       -0.6668607906    1.1665993682    1.3503042776
C       -4.7119833278   -1.9510148188    3.4804122634
C       -3.8607084299   -2.6033892473    4.3250033050
C       -1.5672844947   -0.4194499138    2.7059292717
C       -2.7615364940   -1.1545351270    3.1522045978
N       -0.4012989088   -0.7382386200    3.2940862689
N       -1.7560101248    0.5048650834    1.7489058497
N       -3.9947184077   -1.0285277673    2.7389728046
O       -2.6055620406   -2.1036404370    4.1248563431
H        1.4779832168    1.4662965647    1.5554762726
H        1.6199820486   -0.3162669673    3.3503618187
H       -0.8146289893    1.9168029075    0.5744463013
H       -5.7789460981   -2.0798245236    3.3569937938
H       -3.9624022948   -3.3801970692    5.0683874308
16   
torsion grid (15,)
C        0.6022633392    0.9131263473    1.8829609008
C        0.6844904284   -0.1279518401    2.8090948057
C       -0.6768688252    1.2251116314    1.4142082689
C       -4.6912065649   -2.0300667432    3.4073781904
C       -3.8848051079   -2.5276993932    4.3898330968
C       -1.5694816132   -0.4189195793    2.7038523396
C       -2.7662644027   -1.1489632743    3.1532214158
N       -0.3920972220   -0.8018889225    3.2270381839
N       -1.7694762140    0.5722735393    1.8189654399
N       -3.9608238924   -1.1526412497    2.6243723081
O       -2.6448832593   -1.9751586816    4.2364725474
H        1.4824592011    1.4530200821    1.5483537740
H        1.6407291664   -0.4349598834    3.2306007653
H       -0.8330764462    2.0277468375    0.6945686652
H       -5.7334952422   -2.2421331447    3.2102146953
H       -4.0118784751   -3.2173109105    5.2111812754
16   
torsion grid (30,)
C        0.6197408347    0.9019073318    1.9026585851
C       -0.4111088926    1.4626424837    2.6585386219
C        0.4926466587   -0.4535905130    1.5885610609
C       -3.9572897444   -2.8471858211    3.9001552209
C       -4.6401228116   -1.6660703129    3.8982585883
C       -1.4726478618   -0.5480639941    2.7248375560
C       -2.6255470551   -1.3481770411    3.1755768467
N       -1.4625388676    0.7489783413    3.0757803539
N       -0.5514017231   -1.1873327329    1.9853482101
N       -2.6694860045   -2.6259694332    3.4385352980
O       -3.7948656888   -0.6921730632    3.4435059395
H        1.4705070278    1.4888347447    1.5710306776
H       -0.3970903182    2.5142870622    2.9414976809
H        1.2457360777   -0.9676075623    0.9927532568
H       -4.2966767704   -3.8290104896    4.2017306277
H       -5.6426414237   -1.3583832593    4.1560911014
16   
torsion grid (45,)
C        0.6188091192    0.9006272280    1.9044267546
C       -0.3679254146    1.4316201083    2.7367209220
C        0.4500885854   -0.4283386113    1.5093679142
C       -3.9381325650   -2.8203351873    4.0014546892
C       -4.6692838452   -1.6889332006    3.7919503029
C       -1.4661311758   -0.5597739444    2.7231241670
C       -2.6216744328   -1.3634346617    3.1721706337
N       -1.4163638530    0.7117343502    3.1526135704
N       -0.5936417180   -1.1661993443    1.9027227832
N       -2.6276883134   -2.5930326109    3.6050375979
O       -3.8336613922   -0.7387635629    3.2689792591
H        1.4675516548    1.4917718840    1.5749002097
H       -0.3204203083    2.4628838979    3.0835779875
H        1.1655977664   -0.9161609048    0.8488798568
H       -4.2555875973   -3.7702596346    4.4098954087
H       -5.7016274440   -1.4048340584    3.9316949537
16   
torsion grid (60,)
C        0.6148966170    0.9105185917    1.9033797584
C       -0.3153260579    1.4041697824    2.8194950572
C        0.3983884670   -0.3858687873    1.4328664196
C       -3.9262854280   -2.7710153624    4.1134656781
C       -4.6865502974   -1.7238246666    3.6893787806
C       -1.4537990726   -0.5619596152    2.7370114606
C       -2.6089985386   -1.3690843296    3.1965685389
N       -1.3563101045    0.6770992275    3.2431101016
N       -0.6398045601   -1.1291638326    1.8345135817
N       -2.5951906178   -2.5240695498    3.7956896680
O       -3.8505658670   -0.8061325600    3.1057522780
H        1.4577276045    1.5067891083    1.5677582612
H       -0.2279828716    2.4096742567    3.2284349338
H        1.0677704456   -0.8422248722    0.7051140519
H       -4.2339756542   -3.6736253712    4.6237687320
H       -5.7389003052   -1.4827272753    3.7028916396
16   
torsion grid (75,)
C        0.6034653768    0.9094730576    1.8891123129
C       -0.2541139057    1.3666461279    2.8908649663
C        0.3194147074   -0.3456588023    1.3492348004
C       -3.9376090814   -2.7185523006    4.2006219007
C       -4.7064388552   -1.8022870461    3.5528972529
C       -1.4582474981   -0.5563155566    2.7487695322
C       -2.6115793554   -1.3634291565    3.2290932886
N       -1.2914820428    0.6413909608    3.3280536950
N       -0.7156809003   -1.0860521157    1.7670544950
N       -2.5938736624   -2.4188605595    3.9857115505
O       -3.8650079887   -0.9140691564    2.9263614200
H        1.4440421041    1.5029190172    1.5428065138
H       -0.1103038330    2.3392417812    3.3589993626
H        0.9310332852   -0.7717786665    0.5554441077
H       -4.2447690090   -3.5628687070    4.8026337825
H       -5.7659534365   -1.6374433288    3.4273695353
16   
torsion grid (90,)
C        0.6065247878    0.8986005092    1.8805702798
C       -0.1561072442    1.3258300307    2.9683921189
C        0.2198848767   -0.2999493100    1.2794233770
C       -3.9431807973   -2.6528014807    4.2909175034
C       -4.6958692254   -1.9256114572    3.4232762849
C       -1.4743510111   -0.5152005624    2.7788132867
C       -2.6236329699   -1.3123755550    3.2916262908
N       -1.2024274038    0.6258750958    3.4263032538
N       -0.8227563827   -1.0161181971    1.7205716086
N       -2.6128513484   -2.2452500004    4.1933188972
O       -3.8572941010   -1.0536213578    2.7677909837
H        1.4548172311    1.4711881177    1.5182124397
H        0.0728930032    2.2533722955    3.4907868251
H        0.7561066974   -0.7016834279    0.4210759646
H       -4.2520572443   -3.4322605446    4.9739882510
H       -5.7407261103   -1.8874434340    3.1545600315
16   
torsion grid (105,)
C        0.6163736021    0.8810576822    1.8774876658
C       -0.0502267387    1.2745584178    3.0386481616
C        0.1150279529   -0.2430788924    1.2194514806
C       -3.9598614557   -2.5679415277    4.3566377602
C       -4.6542380323   -2.0664162887    3.2999493080
C       -1.5082705152   -0.4512972544    2.7972543260
C       -2.6578090320   -1.2296657812    3.3307620200
N       -1.1169781430    0.6148159889    3.5085703567
N       -0.9461705952   -0.9213660540    1.6742788490
N       -2.6771111146   -2.0238062842    4.3582657097
O       -3.8245966659   -1.2055582766    2.6218156873
H        1.4812091386    1.4214835050    1.5051198024
H        0.2747978445    2.1416295691    3.6116397756
H        0.5761003448   -0.6178936507    0.3069195284
H       -4.2803179667   -3.2756147760    5.1090637054
H       -5.6536821706   -2.1854372256    2.9094924152
16   
torsion grid (120,)
C        0.6272720413    0.8665804006    1.8777160205
C        0.0299077751    1.2067369503    3.0927361318
C        0.0409170789   -0.1820760161    1.1671752129
C       -3.9903445655   -2.4728224887    4.4084835958
C       -4.5975440844   -2.1823980427    3.2246333367
C       -1.5277884246   -0.4203439338    2.7957826876
C       -2.6806499499   -1.1826804094    3.3308210357
N       -1.0501681005    0.5709185825    3.5624542165
N       -1.0335642253   -0.8391444671    1.6203399368
N       -2.7588071147   -1.8288780358    4.4575650571
O       -3.7612077755   -1.3599798576    2.5136715732
H        1.5031125534    1.3890728963    1.5056404061
H        0.4238347014    2.0127564961    3.7100814998
H        0.4452129974   -0.5143862374    0.2121665275
H       -4.3418098747   -3.0957924191    5.2197558382
H       -5.5393067683   -2.4357643213    2.7613315843
16   
torsion grid (135,)
C        0.6215512931    0.8727997414    1.8811806002
C        0.0824208793    1.1460473514    3.1402637184
C       -0.0266314341   -0.1066175604    1.1268130518
C       -4.0384475826   -2.3686742292    4.4603084527
C       -4.5472853578   -2.2706171756    3.1993809075
C       -1.5379099889   -0.4096310305    2.7990516238
C       -2.6924616730   -1.1631352555    3.3296540869
N       -0.9981976802    0.5136881084    3.6101273686
N       -1.1030650719   -0.7609640152    1.5777475358
N       -2.8478543780   -1.6583065718    4.5254576052
O       -3.6872092814   -1.5063963318    2.4572318386
H        1.4986053713    1.3933586157    1.5094303748
H        0.5260343346    1.8960233915    3.7936502245
H        0.3288898005   -0.3845287331    0.1356245875
H       -4.4357770938   -2.8982238073    5.3156749964
H       -5.4306853668   -2.6356229696    2.6970196130
16   
torsion grid (150,)
C        0.6217072768    0.8839405592    1.8732778866
C        0.1357186397    1.0844474734    3.1678666750
C       -0.0743510690   -0.0322699520    1.0830683614
C       -4.0893616129   -2.2713422991    4.4748680745
C       -4.4878868077   -2.3531407132    3.1726068637
C       -1.5265769319   -0.4181015146    2.7906771086
C       -2.6826892177   -1.1680856812    3.3132570696
N       -0.9379749202    0.4424630756    3.6375814194
N       -1.1464677835   -0.6942016134    1.5317404229
N       -2.9323400452   -1.5121189580    4.5473900082
O       -3.5888870584   -1.6568357344    2.4134575390
H        1.4940930720    1.4123916564    1.5019060314
H        0.6181940854    1.7832373058    3.8499961336
H        0.2368170069   -0.2501743636    0.0623250212
H       -4.5463195848   -2.7038673723    5.3547656442
H       -5.3114168146   -2.8160254173    2.6494020561
16   
torsion grid (165,)
C        0.6146292370    0.8922537904    1.8678828203
C        0.1835851966    1.0159936725    3.1915693095
C       -0.1276223904    0.0361941856    1.0526540814
C       -4.1536853436   -2.1779944435    4.4796694699
C       -4.4335611291   -2.4366480664    3.1689906218
C       -1.5155538879   -0.4385122848    2.7915788352
C       -2.6734927132   -1.1861800680    3.3086177305
N       -0.8787165029    0.3594591005    3.6651320842
N       -1.1915712413   -0.6373325952    1.5023522670
N       -3.0253034613   -1.3791911023    4.5518217449
O       -3.4900431505   -1.8095439092    2.4055915731
H        1.4787810257    1.4324481511    1.4942348555
H        0.7041562833    1.6638412754    3.8957095241
H        0.1373453078   -0.1200536122    0.0078112291
H       -4.6782289079   -2.5096635333    5.3657045817
H       -5.1950862417   -2.9921761132    2.6419321626
16   
torsion grid (180,)
C        0.6024236515    0.9067828870    1.8613934913
C        0.2317310136    0.9522578639    3.2082505696
C       -0.1892156208    0.1143953381    1.0284654862
C       -4.2227062043   -2.0811996830    4.4697395765
C       -4.3823747055   -2.5081537269    3.1829571360
C       -1.5081921855   -0.4497872599    2.7943062460
C       -2.6678682716   -1.1944538534    3.3104153591
N       -0.8185176644    0.2807166881    3.6868738771
N       -1.2458842723   -0.5681690738    1.4812465813
N       -3.1237771498   -1.2424831363    4.5340643293
O       -3.3915779536   -1.9483845489    2.4278630917
H        1.4584794686    1.4572003582    1.4841012307
H        0.7940396955    1.5459183928    3.9279540908
H        0.0268601494    0.0212301555   -0.0350099162
H       -4.8159649298   -2.3164069894    5.3432220695
H       -5.0799264423   -3.1530550520    2.6692447276
