14   
torsion grid (-165,)
C       -0.2736197124    0.8123459640   -2.0412755272
C       -0.4546073774   -0.1050801222   -0.9694487464
C       -1.0325556343    0.4789833071   -3.1412770634
C       -1.3506904094   -1.1149881595   -1.2687441850
C       -1.7304189634   -2.2922542424   -0.4666155842
C       -1.3269306801   -2.2971206167    0.9978068310
O       -2.3294410649   -3.2374987462   -0.9720188084
S       -1.9587593241   -0.9545728299   -2.8960370471
H        0.3832229629    1.6751266676   -2.0048224796
H        0.0544414072   -0.0260286129   -0.0145443728
H       -1.0939480071    1.0082706595   -4.0844253691
H       -1.7435013122   -1.4285369342    1.5180923593
H       -0.2371810230   -2.2512472658    1.0973805158
H       -1.6911453694   -3.2142379526    1.4623288634
14   
torsion grid (-150,)
C       -0.2364873493    0.7906142860   -2.0710384621
C       -0.3905705624   -0.1379796506   -1.0036022178
C       -1.0831776465    0.5178993036   -3.1217596376
C       -1.3587964820   -1.0927951316   -1.2525441731
C       -1.6833279789   -2.3078107259   -0.4759225527
C       -1.3874005173   -2.2758561985    1.0130983672
O       -2.1351538760   -3.3085610144   -1.0232202962
S       -2.0522236356   -0.8804211757   -2.8395023200
H        0.4648723506    1.6183804997   -2.0651777558
H        0.1901669361   -0.1054967170   -0.0876394718
H       -1.1895401733    1.0734640820   -4.0455317621
H       -1.9278022867   -1.4552657754    1.4959331177
H       -0.3186755763   -2.1137766973    1.1902656068
H       -1.6825984378   -3.2276901759    1.4564987632
14   
torsion grid (-135,)
C       -0.1780075102    0.7236823374   -2.1150812006
C       -0.3015570580   -0.2145017827   -1.0503405982
C       -1.1310457723    0.5338031296   -3.0886103802
C       -1.3545346942   -1.0924866697   -1.2209321542
C       -1.6491233178   -2.3311895539   -0.4580831869
C       -1.4810718526   -2.2633044572    1.0479154053
O       -1.9728509278   -3.3657289987   -1.0291850209
S       -2.1611823579   -0.8059720976   -2.7412483040
H        0.5780467625    1.5005928818   -2.1591443110
H        0.3655077476   -0.2452857725   -0.1950359306
H       -1.2869782378    1.1192148712   -3.9864419832
H       -2.2415034722   -1.5989338033    1.4729909662
H       -0.5052872485   -1.8482215071    1.3199667880
H       -1.5866959149   -3.2627890480    1.4722279592
14   
torsion grid (-120,)
C       -0.1410017853    0.7042322233   -2.1552726827
C       -0.2200325341   -0.2596223630   -1.1067711677
C       -1.1770591040    0.5875340577   -3.0502726793
C       -1.3235467727   -1.0812306049   -1.2088634948
C       -1.5776257225   -2.3475242604   -0.4612915592
C       -1.5598623928   -2.2509862340    1.0507393631
O       -1.7322838612   -3.4089133012   -1.0488502085
S       -2.2365710210   -0.7161408547   -2.6483833088
H        0.6448172178    1.4473638583   -2.2414573729
H        0.5154032831   -0.3501572600   -0.3135039121
H       -1.3841603945    1.2080209900   -3.9133657508
H       -2.4208125834   -1.6630065575    1.3883946199
H       -0.6642178449   -1.7241405752    1.3967826969
H       -1.5985854542   -3.2494806354    1.4890873565
14   
torsion grid (-105,)
C       -0.5524964120    0.8445603366   -2.0187051781
C       -1.1450673673   -0.0649323521   -1.0889288637
C       -0.3658736741    0.2818317488   -3.2561709075
C       -1.4151218146   -1.2964546760   -1.6403825368
C       -1.8168231032   -2.5434725281   -0.9060896568
C       -3.2195135765   -2.5591894685   -0.3383076415
O       -1.0245459216   -3.4563701037   -0.7369378746
S       -0.8823487839   -1.3695819890   -3.2960328311
H       -0.2788612194    1.8667515870   -1.7787840540
H       -1.3539561132    0.1787501403   -0.0516879057
H        0.0290297051    0.7471021976   -4.1506184600
H       -3.9457879524   -2.5356336110   -1.1589623908
H       -3.3955163611   -1.6570216093    0.2581718773
H       -3.3733864610   -3.4511782748    0.2714193975
14   
torsion grid (-90,)
C       -0.5000580415    0.8362539925   -2.0417756710
C       -0.9173154618   -0.0855629711   -1.0284655636
C       -0.5656790638    0.3003136407   -3.3010814777
C       -1.2879365312   -1.3051368104   -1.5376543406
C       -1.7648398156   -2.5112652210   -0.7692474903
C       -3.2567078136   -2.5988688709   -0.5319092531
O       -0.9797240058   -3.3504287327   -0.3625348786
S       -1.1312717225   -1.3391725293   -3.2694579976
H       -0.1638325785    1.8481359218   -1.8406178231
H       -0.9336247123    0.1422209556    0.0327900746
H       -0.3078986737    0.7635465545   -4.2450381133
H       -3.7874646953   -2.5801207943   -1.4905383273
H       -3.5922189247   -1.7171287357    0.0259456352
H       -3.5027165281   -3.5086854510    0.0185631040
14   
torsion grid (-75,)
C       -0.4491625390    0.8203708184   -1.9943601411
C       -0.7440424579   -0.0978614637   -0.9381257435
C       -0.7464915092    0.3120508344   -3.2324014562
C       -1.2369859435   -1.2979390358   -1.3913631520
C       -1.7865041684   -2.4130672076   -0.5485150918
C       -3.2899565809   -2.5991745077   -0.5772415537
O       -1.0475530961   -3.1403802079    0.0954182556
S       -1.4008561893   -1.2895554369   -3.1265212716
H       -0.0300028704    1.8093092902   -1.8405507364
H       -0.5909767618    0.1115019249    0.1157274684
H       -0.5913697560    0.7681019055   -4.2020455518
H       -3.6164301837   -2.8289451779   -1.5983780535
H       -3.7912433688   -1.6688094667   -0.2902767432
H       -3.5794186176   -3.4105538921    0.0926624253
14   
torsion grid (-60,)
C       -0.3806091269    0.7973254807   -1.9906487493
C       -0.6382620395   -0.1261217226   -0.9330618408
C       -0.8331020233    0.3454119001   -3.2052901784
C       -1.2578316526   -1.2794127996   -1.3598066644
C       -1.8276033285   -2.3393573260   -0.4745412402
C       -3.3007562823   -2.6566918173   -0.6422690891
O       -1.1176410012   -2.9397652041    0.3196303189
S       -1.5966607046   -1.2019477030   -3.0709013994
H        0.1212827036    1.7501644749   -1.8584859873
H       -0.3755943472    0.0386257782    0.1067642229
H       -0.7331747649    0.8160128429   -4.1753925644
H       -3.4975023485   -3.0101908432   -1.6613856408
H       -3.9041570961   -1.7542422123   -0.4991823765
H       -3.5946848970   -3.4268366922    0.0724636390
14   
torsion grid (-45,)
C       -0.3056315747    0.7842126403   -2.0111180911
C       -0.5570474835   -0.1356684659   -0.9524832811
C       -0.8814288158    0.3925440796   -3.1960931280
C       -1.3000826142   -1.2283289441   -1.3470612194
C       -1.8651170774   -2.2571856934   -0.4338126692
C       -3.2880527546   -2.7168823781   -0.6884375159
O       -1.1824795281   -2.7286454394    0.4671187218
S       -1.7546613021   -1.0895585731   -3.0288622736
H        0.2768601268    1.6933070433   -1.9041496312
H       -0.2097023967   -0.0174702774    0.0684340889
H       -0.8192731018    0.8775742463   -4.1623662229
H       -3.3746166148   -3.1526257815   -1.6910157460
H       -3.9791563070   -1.8685951368   -0.6485420618
H       -3.5674758572   -3.4647815705    0.0548896084
14   
torsion grid (-30,)
C       -0.2408852585    0.7551030729   -2.0422294284
C       -0.5107855938   -0.1501515748   -0.9782813494
C       -0.9151125503    0.4265372512   -3.1958187035
C       -1.3729225588   -1.1669918289   -1.3360940853
C       -1.9360850343   -2.1781798779   -0.4091854376
C       -3.2956150942   -2.7657722615   -0.7382880314
O       -1.3019177901   -2.5312457577    0.5789156777
S       -1.8989835283   -0.9774689196   -2.9925333279
H        0.4214910116    1.6108416444   -1.9636683356
H       -0.0983587451   -0.0786189322    0.0223377156
H       -0.8729961064    0.9227296006   -4.1575678638
H       -3.2945519313   -3.2138771421   -1.7387354680
H       -4.0601295109   -1.9815282451   -0.7375491785
H       -3.5478485120   -3.5284402475   -0.0004857718
14   
torsion grid (-15,)
C       -0.1854698651    0.7259673744   -2.0660882889
C       -0.4698755230   -0.1626618955   -0.9935721069
C       -0.9516061981    0.4680680331   -3.1805752000
C       -1.4424022725   -1.0931799823   -1.3023095048
C       -1.9927744268   -2.1044411821   -0.3714737156
C       -3.2753781431   -2.8149315876   -0.7633107847
O       -1.4132213158   -2.3549667778    0.6803915395
S       -2.0321174303   -0.8537172131   -2.9306960410
H        0.5506666229    1.5218106257   -2.0223836466
H        0.0067726459   -0.1418875986   -0.0196807694
H       -0.9323575987    0.9780103392   -4.1359000686
H       -3.1676096283   -3.3077053953   -1.7362861967
H       -4.0980818948   -2.0970946643   -0.8521181669
H       -3.5206568686   -3.5597473561   -0.0053454737
14   
torsion grid (0,)
C       -0.1408852939    0.6749626005   -2.0772192210
C       -0.4399871957   -0.2006550471   -0.9985707203
C       -0.9891682678    0.5008408796   -3.1480025855
C       -1.5113534859   -1.0332462669   -1.2567250058
C       -2.0595460311   -2.0468083986   -0.3281698310
C       -3.2515624548   -2.8680015403   -0.7851774778
O       -1.5579650394   -2.2042587698    0.7805847574
S       -2.1593106682   -0.7315882883   -2.8525184992
H        0.6635365764    1.4029924152   -2.0693449346
H        0.0945497534   -0.2398910144   -0.0558397592
H       -0.9878402557    1.0303600150   -4.0928405479
H       -3.0276191396   -3.3963664196   -1.7182846288
H       -4.1134247003   -2.2187063005   -0.9763135191
H       -3.5084038870   -3.5904098327   -0.0096318892
14   
torsion grid (15,)
C       -0.1064798712    0.6285310491   -2.0819424671
C       -0.4080273122   -0.2373616704   -0.9956187519
C       -1.0405380744    0.5521146695   -3.0905960087
C       -1.5708556749   -0.9584952897   -1.1821622080
C       -2.1055823251   -1.9836155521   -0.2573903302
C       -3.1933668219   -2.9106882673   -0.7678908097
O       -1.6743239074   -2.0663171586    0.8881758882
S       -2.2896342170   -0.5825232386   -2.7309355712
H        0.7592937516    1.2812237954   -2.1221096025
H        0.1898000910   -0.3471965148   -0.0974983674
H       -1.0648335428    1.1068015578   -4.0205342448
H       -2.8121784433   -3.5282401760   -1.5885815636
H       -4.0442324581   -2.3409470364   -1.1581660350
H       -3.5298637077   -3.5538272406    0.0460949391
14   
torsion grid (30,)
C       -0.0834787616    0.5709950477   -2.1071683086
C       -0.3999018086   -0.2788661810   -1.0108766393
C       -1.0734592341    0.5871089496   -3.0626903559
C       -1.6328279267   -0.8873206646   -1.1334558714
C       -2.1730215039   -1.9205881465   -0.2173057448
C       -3.1444796392   -2.9377055956   -0.7861354265
O       -1.8476593257   -1.9289753437    0.9647555657
S       -2.3922598709   -0.4457117251   -2.6449785632
H        0.8322986602    1.1469506233   -2.1898106563
H        0.2382251683   -0.4530036225   -0.1512779792
H       -1.1067770429    1.1630138685   -3.9792986555
H       -2.6529559466   -3.5433381709   -1.5551111495
H       -3.9966322557   -2.4404249853   -1.2636741177
H       -3.5042227602   -3.5822584648    0.0168471807
14   
torsion grid (45,)
C       -0.0603198427    0.4998441866   -2.1150023314
C       -0.3906854369   -0.3332302826   -1.0072605039
C       -1.0932043322    0.6122050681   -3.0148020459
C       -1.6771762297   -0.8264757236   -1.0631017561
C       -2.2433086756   -1.8538899456   -0.1488017110
C       -3.0842558787   -2.9552157283   -0.7657482821
O       -2.0537410152   -1.7811951583    1.0589878438
S       -2.4706235304   -0.3143769166   -2.5334933920
H        0.8958059544    0.9969746182   -2.2410620041
H        0.2787279820   -0.5701651598   -0.1871316089
H       -1.1307484653    1.2068633806   -3.9191027585
H       -2.5074218452   -3.5049231545   -1.5166317096
H       -3.9535675417   -2.5283660260   -1.2802582524
H       -3.4263481108   -3.6338335592    0.0168199824
14   
torsion grid (60,)
C       -0.0540990933    0.4232992235   -2.1338119132
C       -0.3906637649   -0.4092956040   -1.0242414818
C       -1.1231139541    0.6499188578   -2.9645805108
C       -1.7159667548   -0.7826701887   -1.0095424528
C       -2.3234452772   -1.7980057382   -0.0974804404
C       -3.0170424331   -2.9790306098   -0.7479753054
O       -2.2862147958   -1.6511714747    1.1159010396
S       -2.5475134754   -0.1654444561   -2.4153214004
H        0.9331545470    0.8392475701   -2.3058050120
H        0.3072648074   -0.7230189938   -0.2549239057
H       -1.1650113069    1.2743517196   -3.8482525262
H       -2.3272048152   -3.5076407414   -1.4140251420
H       -3.8517956082   -2.6317392915   -1.3683763650
H       -3.3933566263   -3.6541725743    0.0220464896
14   
torsion grid (75,)
C       -0.0522412250    0.3685800401   -2.1809966267
C       -0.3938760248   -0.4943644469   -1.0927204987
C       -1.1438104588    0.7352046446   -2.9250471576
C       -1.7418168413   -0.7495758370   -1.0120217496
C       -2.4115923961   -1.7288538143   -0.0910236401
C       -2.9348013607   -3.0004588814   -0.7275327895
O       -2.5471716073   -1.4862147971    1.0974303515
S       -2.6022474120    0.0238754761   -2.3155188673
H        0.9565755876    0.7053750814   -2.3959645876
H        0.3227984146   -0.9053411603   -0.3889155421
H       -1.1848208684    1.4050752533   -3.7746622565
H       -2.1291680688   -3.5156145900   -1.2610880565
H       -3.6983781616   -2.7542199953   -1.4748726267
H       -3.3643999030   -3.6515303472    0.0356525780
14   
torsion grid (90,)
C       -0.6167509509    1.0062238951   -2.0669597762
C       -1.1464992168    0.3438662047   -0.9131344933
C       -0.4985146560    0.1705881424   -3.1463653386
C       -1.4240390760   -0.9810427042   -1.1402197025
C       -2.0007134538   -1.9753146253   -0.1647514920
C       -0.9994382744   -2.7365947952    0.6763988587
O       -3.2050988821   -2.1360305532   -0.0667223170
S       -1.0379130617   -1.4354081003   -2.7740127536
H       -0.3410741315    2.0554246269   -2.0914352504
H       -1.3227332464    0.8303094215    0.0411922777
H       -0.1366652240    0.4007282144   -4.1404388162
H       -0.3975266786   -2.0307895675    1.2600972024
H       -0.3014774422   -3.2756716763    0.0257475485
H       -1.5117438919   -3.4344745506    1.3410948269
14   
torsion grid (105,)
C       -0.5742955386    0.9933899853   -2.0431340972
C       -0.9474175821    0.2149029647   -0.9040269782
C       -0.6517359599    0.2810867194   -3.2133632834
C       -1.2838396252   -1.0800868617   -1.2256659659
C       -1.9347347177   -2.0913451448   -0.3261044609
C       -1.0678773016   -2.6561196361    0.7783572088
O       -3.1124630083   -2.3836774391   -0.4572350742
S       -1.2056501210   -1.3366572992   -2.9456452854
H       -0.2638488819    2.0319219771   -1.9942714893
H       -0.9754156699    0.6000322812    0.1107473198
H       -0.3989089235    0.6078884124   -4.2142328098
H       -0.6032125070   -1.8425663659    1.3466088717
H       -0.2480683821   -3.2360315071    0.3389645400
H       -1.6603396221   -3.2892299243    1.4411298969
14   
torsion grid (120,)
C       -0.5328269899    0.9617048461   -2.0104339855
C       -0.8243103332    0.1375058420   -0.8833358745
C       -0.7676641812    0.3184410896   -3.2017029315
C       -1.2573632326   -1.1247082472   -1.2333184443
C       -1.8960050770   -2.1382535991   -0.3434974011
C       -1.1070726391   -2.5484456825    0.8833687649
O       -3.0198246164   -2.5627678571   -0.5726443158
S       -1.3791028882   -1.2796755157   -2.9654519246
H       -0.1669274541    1.9807885605   -1.9413698644
H       -0.7283995896    0.4672726840    0.1464166676
H       -0.5977667596    0.6911462368   -4.2042249685
H       -0.7487589797   -1.6684496671    1.4280788754
H       -0.2184535682   -3.1102629730    0.5740398436
H       -1.7263719536   -3.1653659114    1.5364516869
14   
torsion grid (135,)
C       -0.4874086662    0.9269901149   -2.0007218509
C       -0.7374803756    0.0719920172   -0.8891603602
C       -0.8434062239    0.3447260042   -3.1950123240
C       -1.2639679765   -1.1519893030   -1.2544042827
C       -1.8611442254   -2.1918143055   -0.3796200566
C       -1.1403927900   -2.4870900651    0.9219986222
O       -2.9082104455   -2.7510248931   -0.6832086995
S       -1.5188832395   -1.2281056858   -2.9787464590
H       -0.0651644716    1.9232654067   -1.9213794447
H       -0.5434575412    0.3521043887    0.1410636945
H       -0.7333480781    0.7553046775   -4.1912230553
H       -0.9326243319   -1.5672396994    1.4780277610
H       -0.1742002068   -2.9574644643    0.7085642811
H       -1.7487547790   -3.1561472631    1.5322654173
14   
torsion grid (150,)
C       -0.4157461929    0.9016379162   -1.9870688541
C       -0.6420083589    0.0209014081   -0.8923398289
C       -0.9192988208    0.4021486834   -3.1669799056
C       -1.3014113054   -1.1379796028   -1.2575419808
C       -1.8598177519   -2.1968297947   -0.3906539550
C       -1.2012944428   -2.4005914308    0.9624630734
O       -2.8383148368   -2.8506174064   -0.7374372222
S       -1.6957292625   -1.1233173043   -2.9570942345
H        0.0922700535    1.8570845689   -1.9085061935
H       -0.3328180384    0.2326826673    0.1259449001
H       -0.8669614356    0.8526371851   -4.1506616630
H       -1.2902501408   -1.4948841945    1.5722921408
H       -0.1340412828   -2.6142971295    0.8459624590
H       -1.6929203981   -3.2265844917    1.4780139682
14   
torsion grid (165,)
C       -0.3518482821    0.8641048458   -2.0121997196
C       -0.5657071907   -0.0318940024   -0.9283245060
C       -0.9409386533    0.4194282244   -3.1750733547
C       -1.3066922130   -1.1437346955   -1.2849040571
C       -1.8115506736   -2.2397525507   -0.4379147247
C       -1.2347630902   -2.3568297148    0.9623888904
O       -2.6770618997   -3.0098391095   -0.8449378957
S       -1.7699078882   -1.0779387788   -2.9655316440
H        0.2074463944    1.7909628755   -1.9395475148
H       -0.1895780464    0.1344312261    0.0757094678
H       -0.9252103124    0.8980848093   -4.1467163793
H       -1.4472127813   -1.4532906547    1.5438597451
H       -0.1472848347   -2.4779808642    0.9251261742
H       -1.6844287577   -3.2171739717    1.4594750727
14   
torsion grid (180,)
C       -0.3098013231    0.8464489129   -2.0331948923
C       -0.5085709803   -0.0624513166   -0.9575428196
C       -0.9853134676    0.4588893643   -3.1695044648
C       -1.3294726232   -1.1237158352   -1.2930209892
C       -1.7724036372   -2.2610633412   -0.4683689128
C       -1.2793786305   -2.3167502693    0.9673788461
O       -2.5113576738   -3.1274168776   -0.9287936929
S       -1.8662467475   -1.0067918954   -2.9486222688
H        0.3002086682    1.7417470151   -1.9741859167
H       -0.0651994618    0.0582590309    0.0253324959
H       -1.0077511238    0.9646025572   -4.1272274263
H       -1.5962169551   -1.4262327110    1.5202919205
H       -0.1854612312   -2.3552050712    0.9996845388
H       -1.6882623552   -3.2067780030    1.4471009873
