24   
torsion grid (-165,)
C        1.9161476890   -1.1813833210   -0.0939260864
C        3.0244232498   -0.8483907421    0.6936825076
C        0.7004227618   -1.4972317138    0.5191303664
C        2.9229121672   -0.8324564615    2.0857644497
C        0.5992691539   -1.4787353025    1.9135256451
C        1.7059786034   -1.1500698864    2.7100632719
C        2.5657288988   -2.0203512646    4.9804044807
C        0.1748170495    1.3613299361    4.2627487055
C        1.5667203638   -1.1490783888    4.2105362679
O        1.5111567677    0.4575651965    6.3654969619
O        2.8442231306    1.2539135614    4.3394467657
S        1.6682522940    0.5678326856    4.9026965639
H        2.0003184412   -1.1934861117   -1.1774663395
H        3.9697990536   -0.5949383884    0.2212716872
H       -0.1654055924   -1.7586942569   -0.0835726535
H        3.7794335312   -0.5464499126    2.6869307102
H       -0.3483119757   -1.7288045632    2.3866530552
H        3.5949411495   -1.6955378109    4.8080249523
H        2.3636571747   -1.9816331709    6.0524592380
H        2.4709099310   -3.0523764831    4.6313537882
H        0.1987453098    2.3856615930    4.6393021634
H        0.2009991219    1.3525124825    3.1724306500
H       -0.6973763356    0.8340569976    4.6513153814
H        0.5521189787   -1.4575047598    4.4835140342
24   
torsion grid (-150,)
C        1.9965995267   -1.2155922287   -0.1529188146
C        3.1136100049   -0.9363393843    0.6435827467
C        0.7552769511   -1.4407669672    0.4481192787
C        2.9934010975   -0.8843275833    2.0325353235
C        0.6369315468   -1.3872480235    1.8404521240
C        1.7514951995   -1.1129770983    2.6459471455
C        2.5349486409   -1.9718401380    4.9517828482
C        0.0950011736    1.3520874431    4.4766718246
C        1.5960010685   -1.0713852611    4.1423700025
O        1.8921693330    0.5828800322    6.2575540797
O        2.7251509040    1.4224543550    3.9954776142
S        1.7410505789    0.6708494029    4.7922102384
H        2.0941412031   -1.2553703379   -1.2346694424
H        4.0790216733   -0.7513764892    0.1800311500
H       -0.1171027787   -1.6596539117   -0.1620619955
H        3.8591412828   -0.6399924936    2.6391593569
H       -0.3304950060   -1.5697808558    2.3046033789
H        3.5840815907   -1.7118321174    4.7886716114
H        2.3231716894   -1.8896047679    6.0188260630
H        2.3873431360   -3.0062120972    4.6281609526
H        0.1397432723    2.3987271796    4.7834946791
H       -0.1258502753    1.2783880044    3.4102814957
H       -0.6313965643    0.8077040818    5.0809979129
H        0.5652893996   -1.3343652994    4.4034762778
24   
torsion grid (-135,)
C        2.0973712356   -1.2951278207   -0.2031794369
C        3.1975875295   -1.0310860924    0.6214591071
C        0.8314287256   -1.4619724833    0.3642679724
C        3.0362403891   -0.9373246808    2.0036933630
C        0.6717466015   -1.3665004647    1.7502165974
C        1.7694159927   -1.1086967161    2.5829232644
C        2.4545908039   -1.9384303412    4.9251347325
C        0.0405539616    1.3276983220    4.7243604996
C        1.5719269782   -1.0233299292    4.0715017677
O        2.2203960676    0.6947740031    6.0780353425
O        2.4909100587    1.5456110409    3.6870352376
S        1.7540443568    0.7458336126    4.6787675400
H        2.2269486435   -1.3671894190   -1.2799045491
H        4.1823755423   -0.8897578666    0.1841477313
H       -0.0286917557   -1.6675853131   -0.2675389647
H        3.8920416965   -0.7061802384    2.6302432188
H       -0.3154524241   -1.5035251580    2.1877573539
H        3.5164360448   -1.7201206009    4.7876139606
H        2.2224036294   -1.8268215620    5.9850512662
H        2.2766629013   -2.9734035622    4.6182134279
H        0.0872616166    2.3787168221    5.0156974004
H       -0.3981120595    1.2307016040    3.7292699578
H       -0.5080074670    0.7490709444    5.4685562382
H        0.5254018251   -1.2473876448    4.3032134587
24   
torsion grid (-120,)
C        2.1960435806   -1.3956326426   -0.2681931153
C        3.2648253233   -1.1043239097    0.5877468366
C        0.9075043765   -1.5349543962    0.2541203972
C        3.0470247982   -0.9576572799    1.9574565608
C        0.6920427354   -1.3842892534    1.6274267591
C        1.7573030397   -1.0999807188    2.4916706099
C        2.3454159259   -1.8754558179    4.8633721109
C        0.0620947400    1.3388381491    4.9598078304
C        1.5062511177   -0.9596126148    3.9683696959
O        2.5373795220    0.8308952394    5.7596038229
O        2.1702380259    1.6502830026    3.3702354564
S        1.7428865080    0.8318464951    4.5162804774
H        2.3673679666   -1.5086931910   -1.3354880515
H        4.2669893513   -0.9832123375    0.1852303207
H        0.0721416915   -1.7596926676   -0.4038289981
H        3.8798813271   -0.7092684261    2.6089397231
H       -0.3133796357   -1.4945543075    2.0293443349
H        3.4125455726   -1.6691154251    4.7600464694
H        2.0836881035   -1.7508487873    5.9157480351
H        2.1626528092   -2.9123954135    4.5655757649
H        0.1398075650    2.3743529403    5.2965447380
H       -0.5755538685    1.2740668576    4.0763199872
H       -0.3011000182    0.7032295109    5.7691381789
H        0.4452886695   -1.1410919276    4.1667527145
24   
torsion grid (-105,)
C        1.6917258817   -1.0161346297   -0.1385620249
C        2.8877650873   -0.7264404699    0.5281477114
C        0.5522592628   -1.3508013429    0.5980209122
C        2.9463243896   -0.7777121948    1.9210167499
C        0.6124274094   -1.3957429800    1.9939093451
C        1.8078641457   -1.1168619852    2.6676272248
C        2.9565372710   -2.0960962322    4.7260544979
C        0.7401268146    0.6395208008    6.1095362507
C        1.8577725493   -1.1861630593    4.1717996528
O        3.3554481043    0.6047346227    5.5987854535
O        1.7576859370    1.5387255705    3.8392909193
S        2.0680167894    0.5466013967    4.8810094201
H        1.6481696142   -0.9759669956   -1.2238056313
H        3.7739360740   -0.4535251787   -0.0386383967
H       -0.3815946267   -1.5738096687    0.0887069145
H        3.8760442302   -0.5329178292    2.4275108551
H       -0.2793461552   -1.6510990244    2.5627879602
H        3.9471161506   -1.7384329948    4.4421490038
H        2.9241823078   -2.1457359280    5.8175377131
H        2.8150804574   -3.1028154944    4.3214895910
H        0.8456670656    1.6123097537    6.5935968749
H       -0.2200559957    0.5726805439    5.5958307890
H        0.8640197295   -0.1613658351    6.8411132697
H        0.8802404916   -1.5020989194    4.5483598752
24   
torsion grid (-90,)
C        1.8008444566   -1.0362195713   -0.1425915475
C        2.9738708736   -0.7670450646    0.5712048228
C        0.6231758896   -1.3346317337    0.5486114029
C        2.9724834218   -0.8054022532    1.9663170455
C        0.6218774884   -1.3643353371    1.9458213631
C        1.7948838083   -1.1089608847    2.6663633858
C        2.8602514126   -2.0493638801    4.7825314374
C        0.9347938605    0.5788436746    6.3150879243
C        1.7783819882   -1.1541748802    4.1744981448
O        3.3736507012    0.7838930478    5.2359279389
O        1.3351065112    1.5205207105    3.8822180416
S        1.9697575551    0.5884545986    4.8275935875
H        1.8041432226   -1.0075227956   -1.2290795550
H        3.8897260095   -0.5214786029    0.0401683749
H       -0.2937823393   -1.5390540659    0.0021884628
H        3.8849950704   -0.5766710873    2.5098901009
H       -0.3003686806   -1.5845262223    2.4791103967
H        3.8567523253   -1.6870944766    4.5285153215
H        2.7888203311   -2.0861483638    5.8739149388
H        2.7402493693   -3.0647142120    4.3933623673
H        1.0709338760    1.5561444515    6.7820926091
H       -0.1050197227    0.4419742260    6.0156456470
H        1.2676013700   -0.2103940166    6.9919789258
H        0.7834132461   -1.4548112097    4.5162881228
24   
torsion grid (-75,)
C        1.8769603107   -1.0457138984   -0.1842594328
C        3.0347622596   -0.8286715480    0.5701867059
C        0.6613029503   -1.2804647168    0.4653216606
C        2.9814407523   -0.8562784928    1.9652344165
C        0.6077109870   -1.3006036416    1.8610929282
C        1.7658830707   -1.0995307168    2.6228192210
C        2.7646407800   -1.9777098758    4.8047878626
C        1.0911182741    0.5523036554    6.4029742961
C        1.6869155689   -1.1256579266    4.1305296999
O        3.2199868377    0.9929775650    4.8511144823
O        0.8782805326    1.4522590136    3.9287658530
S        1.7952459489    0.6301178521    4.7343914340
H        1.9209642261   -1.0255092677   -1.2700888987
H        3.9803610084   -0.6322582771    0.0717763802
H       -0.2446313340   -1.4414092051   -0.1130175140
H        3.8821558506   -0.6648209715    2.5403704009
H       -0.3430321162   -1.4661432496    2.3623342782
H        3.7590989252   -1.5669420378    4.6255551012
H        2.6151267305   -2.0387217616    5.8871029493
H        2.7227127758   -2.9922717945    4.3983504394
H        1.1367240651    1.5725746606    6.7886614761
H        0.0537244560    0.2221635431    6.3331292768
H        1.6866299505   -0.1130989859    7.0292628577
H        0.6855941232   -1.4450152713    4.4348249763
24   
torsion grid (-60,)
C        1.9321268153   -1.0422249310   -0.1812555108
C        3.0693311499   -0.8945708638    0.6197459849
C        0.6811285205   -1.2194624822    0.4178622452
C        2.9605351966   -0.9327839312    2.0114803756
C        0.5723069077   -1.2540812267    1.8098963391
C        1.7097819375   -1.1229012499    2.6181528594
C        2.6352480710   -1.9618433644    4.8598812211
C        1.1933343719    0.4796230593    6.4829790371
C        1.5646829643   -1.1559770661    4.1204130419
O        2.9218200548    1.1434311263    4.5746695254
O        0.4129773883    1.2836217361    4.0808116148
S        1.5566277550    0.6035081886    4.7108361193
H        2.0196191889   -1.0125131729   -1.2642720469
H        4.0424613311   -0.7425169447    0.1603508537
H       -0.2089650985   -1.3245466441   -0.1967365997
H        3.8461584634   -0.7921914460    2.6225724750
H       -0.4039147859   -1.3723240989    2.2732953817
H        3.6145653811   -1.4847569051    4.7842898968
H        2.3916810494   -2.0789971651    5.9195244285
H        2.7009341419   -2.9595337747    4.4169086459
H        1.0542621336    1.5086091894    6.8203426031
H        0.2717972274   -0.0878958346    6.6239822988
H        2.0353005317    0.0225652622    7.0024578931
H        0.5635752921   -1.5143063790    4.3778248047
24   
torsion grid (-45,)
C        2.0117112071   -1.0074285150   -0.1788046350
C        3.1187208707   -0.8618698006    0.6642466834
C        0.7391587499   -1.1862492632    0.3721437610
C        2.9574749198   -0.9022219376    2.0504021464
C        0.5783644428   -1.2259666570    1.7592808996
C        1.6852823833   -1.0956502982    2.6094702587
C        2.5215285133   -1.9376574722    4.8919615699
C        1.3848230319    0.5030327076    6.5098792039
C        1.4823889623   -1.1363430150    4.1034709510
O        2.6551801947    1.2963939400    4.3323621287
O        0.0973878731    1.1706621341    4.2782073301
S        1.3971452075    0.6217205050    4.7003545609
H        2.1396847825   -0.9749501906   -1.2577164045
H        4.1080784195   -0.7080178450    0.2415784502
H       -0.1272620410   -1.2902306592   -0.2755673794
H        3.8188423678   -0.7608147700    2.6949081016
H       -0.4138352161   -1.3477388748    2.1862590912
H        3.5012562084   -1.4530379180    4.8792109396
H        2.2179241790   -2.0783643340    5.9322033475
H        2.6274999952   -2.9257562694    4.4353692897
H        1.2001553114    1.5215324216    6.8573522074
H        0.5742551524   -0.1537587260    6.8315156455
H        2.3550973781    0.1538001708    6.8608239741
H        0.4782219068   -1.5128774660    4.3184549605
24   
torsion grid (-30,)
C        2.0838339675   -1.0038513380   -0.1718178975
C        3.1608377260   -0.8536393913    0.7088873753
C        0.7945894558   -1.1975721340    0.3328601776
C        2.9500694254   -0.9028794345    2.0875397736
C        0.5854098519   -1.2484703545    1.7134159335
C        1.6615089177   -1.1119319083    2.6012717767
C        2.4058702464   -1.9819842744    4.9073040093
C        1.5865837458    0.5282150523    6.4840100459
C        1.4055727297   -1.1654877616    4.0849614329
O        2.3506655481    1.3852458964    4.1194774075
O       -0.1503807286    0.9978324036    4.5148550441
S        1.2534949464    0.5918102871    4.7021004381
H        2.2484837609   -0.9632542765   -1.2454413963
H        4.1626672762   -0.6879603619    0.3214720332
H       -0.0475024239   -1.3058592969   -0.3454961120
H        3.7871622273   -0.7560526813    2.7624752095
H       -0.4194211129   -1.3850420203    2.1052786203
H        3.4012304846   -1.5292145663    4.9158219467
H        2.0726200567   -2.1084761364    5.9397961664
H        2.4969357182   -2.9752743956    4.4583919378
H        1.4235021933    1.5512085439    6.8293182536
H        0.8842647656   -0.1475400755    6.9754275291
H        2.6214303737    0.2335880755    6.6525863974
H        0.3980621135   -1.5523358958    4.2592329572
24   
torsion grid (-15,)
C        2.1684205494   -0.9815756883   -0.1574482122
C        3.2017839575   -0.7990432516    0.7687207582
C        0.8666428135   -1.2159428146    0.2939426515
C        2.9362542097   -0.8557912877    2.1371094210
C        0.6032197138   -1.2741116892    1.6652896105
C        1.6350744110   -1.1044318127    2.5984286525
C        2.2753995232   -2.0227414472    4.9100441449
C        1.7910708726    0.5840135628    6.4134517472
C        1.3184121543   -1.1740210248    4.0687624266
O        2.0041155937    1.4717193227    3.9524511102
O       -0.3238857836    0.8395107239    4.8141675622
S        1.1244519763    0.5781109063    4.7259560057
H        2.3765683094   -0.9344730061   -1.2232179933
H        4.2131649170   -0.6018723763    0.4232135568
H        0.0569058847   -1.3507281292   -0.4182233928
H        3.7414533761   -0.6836167133    2.8448314506
H       -0.4121878741   -1.4458809941    2.0142325841
H        3.2916387847   -1.6197194451    4.9222398947
H        1.9289698569   -2.1248274747    5.9410818363
H        2.3237162888   -3.0232183897    4.4703830563
H        1.6620094482    1.6151129570    6.7488583631
H        1.2187367645   -0.0912549971    7.0508060233
H        2.8493479967    0.3260141340    6.3932487200
H        0.3030542900   -1.5558218937    4.1983489619
24   
torsion grid (0,)
C        2.2460656813   -0.9447609821   -0.1131723179
C        3.2411857759   -0.7704427902    0.8554731587
C        0.9292579433   -1.1926018408    0.2837143836
C        2.9210009369   -0.8487259069    2.2109349742
C        0.6120162184   -1.2700561600    1.6426964453
C        1.6041223327   -1.1073671271    2.6186929374
C        2.1589619571   -2.0645077438    4.9281900918
C        1.9868278022    0.6464062084    6.2928756993
C        1.2300335058   -1.1973836695    4.0740805518
O        1.5873161807    1.5174499679    3.8401601939
O       -0.4173121330    0.6405498407    5.1706838640
S        1.0002902609    0.5419622957    4.7734789486
H        2.4957152092   -0.8817764830   -1.1691145196
H        4.2646794997   -0.5650104104    0.5530823239
H        0.1491405874   -1.3225598532   -0.4616465534
H        3.7001537007   -0.6888081764    2.9509326519
H       -0.4155730049   -1.4533386404    1.9478686389
H        3.1798213315   -1.6769344925    4.9669004114
H        1.7874478223   -2.1708720158    5.9505320377
H        2.2029987929   -3.0620359907    4.4815422080
H        1.8279491925    1.6681404748    6.6436856135
H        1.6215573055   -0.0654986168    7.0328214091
H        3.0409775809    0.4903458127    6.0633047117
H        0.2095472180   -1.5759949399    4.1648863893
24   
torsion grid (15,)
C        1.5553963164   -1.3463332948   -0.2836083649
C        2.8077120993   -1.1212916727    0.2982067651
C        0.4211029176   -1.4347975150    0.5283393080
C        2.9242088507   -0.9895816009    1.6828236412
C        0.5421068860   -1.3000532551    1.9135113544
C        1.7929511971   -1.0822892041    2.5065815991
C        3.0803380597   -1.6246791992    4.6515124030
C        3.3942761319    1.3572949886    5.1726301087
C        1.8832018420   -0.9260235456    4.0021924217
O        1.6125575067    1.7046803156    3.2443617842
O        0.8078589146    0.9844902114    5.5644802088
S        1.7882560452    0.9005462329    4.4635602251
H        1.4651459926   -1.4483591584   -1.3618633339
H        3.6926071763   -1.0445020432   -0.3281815419
H       -0.5564826502   -1.6040874487    0.0848345315
H        3.9042115598   -0.8058848963    2.1149272281
H       -0.3448883635   -1.3568666798    2.5401392000
H        4.0381608962   -1.2358105595    4.3004667501
H        3.0487577876   -1.5403878069    5.7413188020
H        3.0405939072   -2.6874868604    4.3961832944
H        3.2857525340    2.4148877701    5.4215020267
H        3.5879622442    0.7754007777    6.0725992970
H        4.1807557091    1.2301335756    4.4273006170
H        0.9610003193   -1.2801313773    4.4689170013
24   
torsion grid (30,)
C        1.6350004270   -1.2493904206   -0.2518055501
C        2.8897435049   -1.2263563657    0.3634412026
C        0.4791682776   -1.1946828402    0.5344061464
C        2.9885435050   -1.1507175166    1.7556033224
C        0.5814515148   -1.1165831333    1.9236332109
C        1.8355689732   -1.0970969495    2.5522598386
C        3.1356572580   -1.6073445902    4.7070425297
C        3.3770999956    1.4417132426    4.8863497215
C        1.9020956094   -0.9814978504    4.0544085065
O        1.1340267203    1.5871680879    3.4627573423
O        1.0263599220    0.7765664524    5.8852883692
S        1.7062375484    0.8128240434    4.5745795710
H        1.5582131370   -1.3090649393   -1.3342940655
H        3.7929520431   -1.2691072619   -0.2397166492
H       -0.5008891826   -1.2074185034    0.0651087579
H        3.9744962250   -1.1400337714    2.2109709401
H       -0.3202478969   -1.0547903853    2.5275726219
H        4.0693881094   -1.1588538900    4.3642842718
H        3.0881874317   -1.5181074467    5.7959166621
H        3.1658466132   -2.6715211566    4.4560145920
H        3.2311394174    2.4969823823    5.1257477144
H        3.8167325582    0.9183968919    5.7339016632
H        3.9837528665    1.3453613710    3.9840829596
H        0.9970780806   -1.3989893084    4.5046651418
24   
torsion grid (45,)
C        1.7270090154   -1.1912151724   -0.2336409820
C        2.9586281921   -1.2391568587    0.4244652006
C        0.5466162225   -1.1150874026    0.5141383359
C        3.0105762704   -1.2119222619    1.8215955690
C        0.6016611983   -1.0854391708    1.9075075990
C        1.8329923066   -1.1354918281    2.5799411488
C        3.0726581367   -1.6925895160    4.7675656337
C        3.2727744801    1.4306213343    4.6168256289
C        1.8515705020   -1.0713032424    4.0878826532
O        0.7697495080    1.4067149222    3.7067337596
O        1.2313141567    0.6051804097    6.0883474285
S        1.6220120729    0.6883604320    4.6670143266
H        1.6862764139   -1.2141017888   -1.3194850736
H        3.8806008702   -1.3021054663   -0.1477595675
H       -0.4159172246   -1.0734186004    0.0114215987
H        3.9791156413   -1.2617746228    2.3099994219
H       -0.3170492572   -1.0030624181    2.4814252599
H        4.0109142937   -1.2365449007    4.4471279553
H        2.9961338551   -1.5984825440    5.8538326527
H        3.1176611187   -2.7564747503    4.5173908028
H        3.1130067083    2.4869518160    4.8419008849
H        3.9032741140    0.9723457713    5.3773744875
H        3.6903762858    1.3203933718    3.6143025023
H        0.9390732827   -1.5188215761    4.4944721776
24   
torsion grid (60,)
C        1.8294317848   -1.1391695051   -0.2356589573
C        3.0347147746   -1.2712678043    0.4589512059
C        0.6313382004   -1.0168448230    0.4771038841
C        3.0427443827   -1.2801645608    1.8573053006
C        0.6413999522   -1.0243277047    1.8721333532
C        1.8467972969   -1.1561505636    2.5804273912
C        3.0064648501   -1.7986186706    4.7973744187
C        3.1768589472    1.4342293372    4.3106976475
C        1.8246294855   -1.1333938562    4.0909388533
O        0.5497042587    1.2563216528    3.9279766052
O        1.5149374118    0.5331086795    6.1784964682
S        1.6167732938    0.6081933471    4.7082663622
H        1.8225187413   -1.1339374010   -1.3224688942
H        3.9700099947   -1.3721644963   -0.0855321555
H       -0.3108913975   -0.9116013708   -0.0540168775
H        3.9899393772   -1.3944564570    2.3756249008
H       -0.2887632485   -0.9055773314    2.4197226663
H        3.9625810436   -1.3357530698    4.5427893393
H        2.8791175857   -1.7448984284    5.8804718261
H        3.0569013718   -2.8504825437    4.5013940577
H        3.0201783918    2.4814415897    4.5766123658
H        3.9792741848    1.0081786029    4.9122947113
H        3.3712101298    1.3402194401    3.2414518874
H        0.8889079430   -1.5721861758    4.4539261919
24   
torsion grid (75,)
C        1.9203415752   -1.0575133600   -0.1913444928
C        3.1035188828   -1.2967453687    0.5132862456
C        0.7235723464   -0.8772950887    0.5111091117
C        3.0898510600   -1.3521937970    1.9102130843
C        0.7107865347   -0.9334535030    1.9057430942
C        1.8951340222   -1.1700661285    2.6229423665
C        3.0140320823   -1.9044839387    4.8385984634
C        3.0483532092    1.4563263026    4.0617920982
C        1.8587808576   -1.1946025205    4.1341375858
O        0.4232011546    1.0915541207    4.2631911963
O        1.8991709294    0.4803796699    6.2545352875
S        1.6781524678    0.5329645534    4.7972761354
H        1.9296271937   -1.0153215244   -1.2773310872
H        4.0375760636   -1.4439747363   -0.0226958284
H       -0.2015526538   -0.6908522506   -0.0277651844
H        4.0188193393   -1.5451854837    2.4378226519
H       -0.2163145404   -0.7698465560    2.4466936382
H        3.9789309167   -1.4294632419    4.6414497004
H        2.8552317416   -1.9024045676    5.9178979956
H        3.0706869096   -2.9391700455    4.4877979873
H        2.9678582075    2.4636991652    4.4746709327
H        3.9947781399    1.0023364549    4.3576779175
H        2.9305417939    1.4726882335    2.9785924106
H        0.9075249539   -1.6227816929    4.4687142281
24   
torsion grid (90,)
C        2.0152533949   -0.9960775095   -0.1648673393
C        3.1714226081   -1.3240382579    0.5490316785
C        0.8187607570   -0.7680451495    0.5245913931
C        3.1338392310   -1.4175051764    1.9435328049
C        0.7810888440   -0.8642858554    1.9166874170
C        1.9401292024   -1.1865851760    2.6427067550
C        2.9840622572   -2.0041469026    4.8728049770
C        2.8696590351    1.4944214079    3.8356277183
C        1.8800217394   -1.2354696148    4.1510191287
O        0.3729525827    0.9607739909    4.5585393029
O        2.2530475078    0.4887379260    6.2227227311
S        1.7441680935    0.4940820247    4.8388030873
H        2.0444404726   -0.9229368281   -1.2488169683
H        4.1035936060   -1.5093522649    0.0217015010
H       -0.0856863666   -0.5147787762   -0.0221347961
H        4.0414714700   -1.6756480709    2.4804156090
H       -0.1434984794   -0.6655406463    2.4511614429
H        3.9722442012   -1.5635884912    4.7127170089
H        2.7980154430   -2.0106369675    5.9472946064
H        3.0062071324   -3.0347812092    4.5055821670
H        2.8520025824    2.4850554138    4.2942255210
H        3.8747471525    1.0729551719    3.8885052226
H        2.5062527151    1.5321532001    2.8099288617
H        0.9044955479   -1.6281072130    4.4570572870
24   
torsion grid (105,)
C        2.1222411108   -1.0589614336   -0.3299375343
C        3.2221975561   -1.3675355391    0.4759518453
C        0.8770217800   -0.8229197122    0.2642420634
C        3.0820828489   -1.4321366621    1.8655872541
C        0.7367183519   -0.8911460122    1.6514695404
C        1.8393062546   -1.1918366584    2.4686224347
C        2.6500042026   -2.0230163895    4.7881796239
C        2.5024330849    1.5855191829    3.4428983769
C        1.6643288738   -1.1979695606    3.9657035078
O        0.1710190809    0.9708898821    4.5385232165
O        2.3018320840    0.6166388523    5.9098103236
S        1.5867290066    0.5602944307    4.6214286059
H        2.2321715246   -1.0079696055   -1.4099418139
H        4.1914592540   -1.5592209842    0.0231274151
H        0.0147923111   -0.5864022012   -0.3535566745
H        3.9475325427   -1.6725785943    2.4758848342
H       -0.2277856996   -0.6915908748    2.1115721382
H        3.6754409621   -1.6538048430    4.7040587726
H        2.3805966756   -1.9932645445    5.8445736029
H        2.6255101539   -3.0606021433    4.4406196857
H        2.4889455294    2.5854242998    3.8813780247
H        3.5278336503    1.2222384189    3.3617332315
H        1.9993521473    1.5748478599    2.4778417976
H        0.6435256562   -1.5151717621    4.1992526426
24   
torsion grid (120,)
C        2.1867685583   -1.0515568934   -0.2856979867
C        3.2847248553   -1.2999629576    0.5447389920
C        0.9195423078   -0.8705771363    0.2787791410
C        3.1192201054   -1.3601013250    1.9307326061
C        0.7564201351   -0.9318403622    1.6646602930
C        1.8535144692   -1.1730446219    2.5068103705
C        2.5466110928   -2.1208338698    4.8015692231
C        2.4041716838    1.6362000640    3.3929121561
C        1.6513382112   -1.1785503051    3.9994329697
O        0.4054751275    0.9960330548    5.0136443065
O        2.8100000669    0.5561757892    5.7754622722
S        1.7849108772    0.5637715023    4.7142990037
H        2.3167132020   -1.0050913516   -1.3636321048
H        4.2711567708   -1.4473717776    0.1128631965
H        0.0596971439   -0.6833581417   -0.3589796688
H        3.9820752284   -1.5513739676    2.5621303617
H       -0.2285372409   -0.7829567105    2.1011643510
H        3.5985594398   -1.8335173935    4.7510293981
H        2.2613691335   -2.1182431925    5.8550364233
H        2.4360627752   -3.1351743036    4.4056811552
H        2.4690621889    2.6224682683    3.8570656124
H        3.3894075265    1.2969813984    3.0742186049
H        1.7000939785    1.6441285675    2.5622145183
H        0.6009744697   -1.3873565658    4.2163041767
24   
torsion grid (135,)
C        1.5910080840   -1.0348087585   -0.1042726040
C        2.7696809946   -0.6922440327    0.5677967871
C        0.4840206513   -1.4795753543    0.6253972119
C        2.8403781417   -0.7898029627    1.9591654760
C        0.5563182381   -1.5737520593    2.0177886184
C        1.7321794252   -1.2291563988    2.7010400109
C        3.0672167475   -1.8521665882    4.7938087820
C        0.9658655717    1.5082963441    3.6461591974
C        1.7682605180   -1.2996594751    4.2058222871
O        0.2842301099    0.2281277929    5.8779879981
O        2.7281018041    0.8986893491    5.5106618061
S        1.4473040608    0.3868692899    4.9840475544
H        1.5377535146   -0.9595108115   -1.1870785958
H        3.6348160637   -0.3477681568    0.0072998156
H       -0.4337866224   -1.7536618014    0.1119411763
H        3.7593822760   -0.5128425028    2.4676033244
H       -0.3088157018   -1.9164289154    2.5812912357
H        3.9169735379   -1.2028143809    4.5805448128
H        2.9931336047   -1.9480484475    5.8796292861
H        3.2532822972   -2.8414755128    4.3649308883
H        0.7443039397    2.4498068597    4.1530317367
H        1.7959772247    1.6286107316    2.9521634716
H        0.0791574588    1.1258127763    3.1410359815
H        0.9093694081   -1.8682614428    4.5684221623
24   
torsion grid (150,)
C        1.6667857725   -1.0384360841   -0.1133892428
C        2.8058032019   -0.6381767838    0.5952152620
C        0.5523689607   -1.5167134224    0.5821707558
C        2.8312542672   -0.7157366703    1.9890143610
C        0.5774063283   -1.5881659582    1.9781884484
C        1.7142170319   -1.1908207967    2.6960913713
C        2.9451946956   -1.9212339209    4.8056465462
C        0.8084524207    1.5082744518    3.6871520876
C        1.7092797465   -1.2475571298    4.2028019889
O        0.6928328923    0.3841765046    6.1041362861
O        2.9720287904    0.9792379341    5.1033479843
S        1.5964428381    0.4674938999    4.9414878286
H        1.6496432225   -0.9791544804   -1.1983858638
H        3.6746971234   -0.2629792236    0.0608708581
H       -0.3349345456   -1.8334144234    0.0403553683
H        3.7136480557   -0.3859892912    2.5297248955
H       -0.2938751801   -1.9574973714    2.5149384381
H        3.8570978694   -1.3806645337    4.5510066043
H        2.8739898498   -1.9672846168    5.8956801486
H        3.0122490239   -2.9411209953    4.4157718655
H        0.6676024773    2.4722691208    4.1803232733
H        1.4657943640    1.6036402685    2.8250160601
H       -0.1549900199    1.0804504671    3.4069646972
H        0.7937021770   -1.7239094252    4.5605861062
24   
torsion grid (165,)
C        1.7475686744   -1.0611351433   -0.1411355274
C        2.8717662619   -0.6490273899    0.5841178733
C        0.6177368478   -1.5248291782    0.5392224214
C        2.8698834341   -0.7012857998    1.9794536903
C        0.6139180168   -1.5709459168    1.9365807531
C        1.7370103302   -1.1630083964    2.6699431840
C        2.8658114340   -1.9710870569    4.8168737672
C        0.6613767745    1.4844541260    3.8017219038
C        1.7029009419   -1.2044867909    4.1773410332
O        1.0926272407    0.4448226538    6.2191493071
O        3.0976326837    1.0413656628    4.7499151996
S        1.7278938977    0.5094800199    4.8901521358
H        1.7530548055   -1.0208573454   -1.2271740643
H        3.7514869183   -0.2830208328    0.0612610416
H       -0.2590111313   -1.8492529434   -0.0150819358
H        3.7366153908   -0.3569293847    2.5352442923
H       -0.2691359171   -1.9294970972    2.4614409542
H        3.8246712919   -1.5166907617    4.5627893774
H        2.7693305259   -1.9886176090    5.9057502081
H        2.8536734200   -2.9998922485    4.4461805623
H        0.6002517902    2.4679681667    4.2718988835
H        1.1144248123    1.5522711816    2.8139052691
H       -0.3267406251    1.0236808573    3.7573639554
H        0.7471087333   -1.6064913973    4.5239399867
24   
torsion grid (180,)
C        1.8256636182   -1.1129651699   -0.1628501064
C        2.9520214059   -0.7311829595    0.5751769907
C        0.6602664405   -1.5008750516    0.5048301513
C        2.9181123876   -0.7385427007    1.9710800010
C        0.6250776933   -1.5039223744    1.9024005233
C        1.7508681638   -1.1264288997    2.6488636329
C        2.7696219464   -1.9641238155    4.8541583372
C        0.4714889480    1.4707305133    3.9727906389
C        1.6831482849   -1.1383572539    4.1553350229
O        1.3944001006    0.4960981581    6.2688635772
O        3.0723648632    1.1685185070    4.4653800318
S        1.7768907189    0.5757871845    4.8467974355
H        1.8566541150   -1.1073761664   -1.2492423244
H        3.8589494471   -0.4228665868    0.0617396806
H       -0.2190204690   -1.8007716968   -0.0592106201
H        3.7864689953   -0.4152051448    2.5356408694
H       -0.2845277472   -1.8067224444    2.4171569983
H        3.7661376866   -1.5784105015    4.6283721430
H        2.6275489632   -1.9518428396    5.9373402029
H        2.7094340438   -2.9964620841    4.4986627313
H        0.4736200990    2.4766669703    4.3969222172
H        0.7025863163    1.4985529763    2.9082307879
H       -0.4843871175    0.9807100654    4.1642855507
H        0.6972766108   -1.4833936511    4.4816749780
