
  -OEChem-05262117493D

 47 49  0     1  0  0  0  0  0999 V2000
    3.9643    5.2489   -4.1918 C   0  0  0  0  0  0  0  0  0  0  0  0
    1.9601    3.9216   -4.2129 C   0  0  0  0  0  0  0  0  0  0  0  0
    4.7395    4.1002   -4.0313 C   0  0  0  0  0  0  0  0  0  0  0  0
    2.7185    2.7578   -4.0530 C   0  0  0  0  0  0  0  0  0  0  0  0
    2.5642    5.1841   -4.2765 C   0  0  0  0  0  0  0  0  0  0  0  0
    4.1048    2.8592   -3.9586 C   0  0  0  0  0  0  0  0  0  0  0  0
    3.3621    2.6768   -0.4397 C   0  0  0  0  0  0  0  0  0  0  0  0
    1.1587    2.5085   -0.9978 C   0  0  0  0  0  0  0  0  0  0  0  0
    0.9413    4.9724   -1.4859 C   0  0  0  0  0  0  0  0  0  0  0  0
    5.5418    3.1577    0.8518 C   0  0  0  0  0  0  0  0  0  0  0  0
    5.9068    3.0181   -0.5977 C   0  0  0  0  0  0  0  0  0  0  0  0
    4.7124    2.2519   -0.0508 C   0  0  0  0  0  0  0  0  0  0  0  0
    1.5577    8.5074   -1.1235 C   0  0  0  0  0  0  0  0  0  0  0  0
    2.2791   -0.3312   -1.6845 C   0  0  0  0  0  0  0  0  0  0  0  0
    1.7360    6.4393   -4.4761 C   0  0  0  0  0  0  0  0  0  0  0  0
    1.9633    7.5625   -3.4444 C   0  0  0  0  0  0  0  0  0  0  0  0
    1.2937    7.3377   -2.0770 C   0  0  1  0  0  0  0  0  0  0  0  0
    2.9869    3.9027   -0.6770 N   0  0  0  0  0  0  0  0  0  0  0  0
    2.3138    1.7990   -0.6156 N   0  0  0  0  0  0  0  0  0  0  0  0
    1.6275    3.8227   -1.0062 N   0  0  0  0  0  0  0  0  0  0  0  0
    1.7199    6.0870   -1.4545 N   0  0  0  0  0  0  0  0  0  0  0  0
    2.3593    0.4153   -0.4134 N   0  0  0  0  0  0  0  0  0  0  0  0
    0.0641    2.0225   -1.2214 O   0  0  0  0  0  0  0  0  0  0  0  0
   -0.2150    4.9107   -1.8762 O   0  0  0  0  0  0  0  0  0  0  0  0
    5.0785    1.4057   -3.7521 Cl  0  0  0  0  0  0  0  0  0  0  0  0
    4.4671    6.2111   -4.2564 H   0  0  0  0  0  0  0  0  0  0  0  0
    0.8776    3.8397   -4.2570 H   0  0  0  0  0  0  0  0  0  0  0  0
    5.8217    4.1632   -3.9722 H   0  0  0  0  0  0  0  0  0  0  0  0
    2.2310    1.7900   -3.9998 H   0  0  0  0  0  0  0  0  0  0  0  0
    6.1627    2.6707    1.5975 H   0  0  0  0  0  0  0  0  0  0  0  0
    5.0689    4.0817    1.1690 H   0  0  0  0  0  0  0  0  0  0  0  0
    5.6752    3.8448   -1.2604 H   0  0  0  0  0  0  0  0  0  0  0  0
    6.7802    2.4334   -0.8681 H   0  0  0  0  0  0  0  0  0  0  0  0
    4.8099    1.1805    0.0786 H   0  0  0  0  0  0  0  0  0  0  0  0
    2.6291    8.6082   -0.9121 H   0  0  0  0  0  0  0  0  0  0  0  0
    1.2134    9.4497   -1.5617 H   0  0  0  0  0  0  0  0  0  0  0  0
    1.0356    8.3535   -0.1751 H   0  0  0  0  0  0  0  0  0  0  0  0
    3.1771   -0.1268   -2.2699 H   0  0  0  0  0  0  0  0  0  0  0  0
    1.3873   -0.0810   -2.2702 H   0  0  0  0  0  0  0  0  0  0  0  0
    2.2610   -1.3960   -1.4356 H   0  0  0  0  0  0  0  0  0  0  0  0
    1.9657    6.8442   -5.4698 H   0  0  0  0  0  0  0  0  0  0  0  0
    0.6746    6.1728   -4.4886 H   0  0  0  0  0  0  0  0  0  0  0  0
    1.5644    8.4985   -3.8533 H   0  0  0  0  0  0  0  0  0  0  0  0
    3.0383    7.7305   -3.2989 H   0  0  0  0  0  0  0  0  0  0  0  0
    0.2170    7.2341   -2.2304 H   0  0  0  0  0  0  0  0  0  0  0  0
    2.6968    5.9498   -1.2188 H   0  0  0  0  0  0  0  0  0  0  0  0
    1.5523    0.1866    0.1667 H   0  0  0  0  0  0  0  0  0  0  0  0
  1  3  1  0  0  0  0
  1  5  2  0  0  0  0
  1 26  1  0  0  0  0
  2  4  2  0  0  0  0
  2  5  1  0  0  0  0
  2 27  1  0  0  0  0
  3  6  2  0  0  0  0
  3 28  1  0  0  0  0
  4  6  1  0  0  0  0
  4 29  1  0  0  0  0
  5 15  1  0  0  0  0
  6 25  1  0  0  0  0
  7 12  1  0  0  0  0
  7 18  2  0  0  0  0
  7 19  1  0  0  0  0
  8 19  1  0  0  0  0
  8 20  1  0  0  0  0
  8 23  2  0  0  0  0
  9 20  1  0  0  0  0
  9 21  1  0  0  0  0
  9 24  2  0  0  0  0
 10 11  1  0  0  0  0
 10 12  1  0  0  0  0
 10 30  1  0  0  0  0
 10 31  1  0  0  0  0
 11 12  1  0  0  0  0
 11 32  1  0  0  0  0
 11 33  1  0  0  0  0
 12 34  1  0  0  0  0
 13 17  1  0  0  0  0
 13 35  1  0  0  0  0
 13 36  1  0  0  0  0
 13 37  1  0  0  0  0
 14 22  1  0  0  0  0
 14 38  1  0  0  0  0
 14 39  1  0  0  0  0
 14 40  1  0  0  0  0
 15 16  1  0  0  0  0
 15 41  1  0  0  0  0
 15 42  1  0  0  0  0
 16 17  1  0  0  0  0
 16 43  1  0  0  0  0
 16 44  1  0  0  0  0
 17 21  1  0  0  0  0
 17 45  1  0  0  0  0
 18 20  1  0  0  0  0
 19 22  1  0  0  0  0
 21 46  1  0  0  0  0
 22 47  1  0  0  0  0
M  END
$$$$
