35
-1 1 C16H15O4
C                    -5.489572912311    -1.100563363115     1.497076053449
C                    -6.000001041025    -1.908929638746     0.474724626979
C                    -4.391030889722    -0.266709547595     1.261601296549
C                    -4.326239114686    -1.049687424689    -1.023021560615
C                    -5.421723583103    -1.892453404661    -0.801272565162
C                    -3.795896761634    -0.239594533779    -0.008914641002
C                     0.432847098307    -1.546324502071    -0.696727225317
C                    -1.001597075101     0.315476238577     1.632642862072
C                     0.985447115808    -2.615299023187    -1.278303764475
C                    -5.973045939271    -2.779599281207    -1.947241915338
C                     1.125209278400    -0.216467791014    -0.465188313882
C                    -1.008681456176    -1.439170466747    -0.222631292616
C                     0.164367569361     1.976700586226     0.509537306506
C                    -0.020767273877     0.815435305276    -0.465289698944
C                    -1.216397624520     0.044002466220     0.140673575085
C                    -2.592400969645     0.628300696066    -0.303559861015
O                    -5.358256698466    -2.679193022626    -3.046010859698
O                    -1.379337018674    -0.320761999231     2.586449805691
O                    -6.966263535575    -3.495377595206    -1.644484964321
O                    -0.264431466162     1.468866203735     1.795157004128
H                    -5.944997530940    -1.117340810160     2.486420178406
H                    -6.851783089395    -2.565549189741     0.630329619702
H                    -3.990177723861     0.345980045040     2.065911899828
H                    -3.907574849351    -1.049005828567    -2.027658986337
H                     0.421735668076    -3.533442349156    -1.428423819534
H                     2.017042643720    -2.605165819363    -1.625472473825
H                     1.607646372177    -0.221828821834     0.522728662473
H                     1.901538964610    -0.001260981667    -1.205806819995
H                    -1.702253155452    -1.744174563497    -1.010142487995
H                    -1.219846404696    -2.079046697335     0.638954054629
H                     1.202652897361     2.303231966455     0.618829979776
H                    -0.457650486147     2.840565422516     0.251542122214
H                    -0.232979495848     1.163255389438    -1.480505308314
H                    -2.526160762499     0.774216930321    -1.387433943299
H                    -2.716379231280     1.624299203281     0.140899475545
