
  -OEChem-05262117493D

 46 48  0     0  0  0  0  0  0999 V2000
   -2.1151    1.2587   -0.8490 C   0  0  0  0  0  0  0  0  0  0  0  0
   -2.7745    2.4767   -0.7337 C   0  0  0  0  0  0  0  0  0  0  0  0
   -2.9884    1.7150    5.8765 C   0  0  0  0  0  0  0  0  0  0  0  0
   -1.9622    0.4211    0.2665 C   0  0  0  0  0  0  0  0  0  0  0  0
   -3.1992    2.0341    1.6241 C   0  0  0  0  0  0  0  0  0  0  0  0
   -3.3357    2.8516    0.4905 C   0  0  0  0  0  0  0  0  0  0  0  0
   -2.5014    0.8131    1.5032 C   0  0  0  0  0  0  0  0  0  0  0  0
   -0.2789   -1.5133   -2.1589 C   0  0  0  0  0  0  0  0  0  0  0  0
   -1.6547   -3.1436   -0.7197 C   0  0  0  0  0  0  0  0  0  0  0  0
   -1.1549   -0.8373    0.1094 C   0  0  0  0  0  0  0  0  0  0  0  0
    0.7427   -2.6290   -2.2279 C   0  0  0  0  0  0  0  0  0  0  0  0
   -0.4309   -3.9974   -0.4376 C   0  0  0  0  0  0  0  0  0  0  0  0
    0.8994   -3.3820   -0.8998 C   0  0  0  0  0  0  0  0  0  0  0  0
   -1.4349   -1.6840   -1.1490 C   0  0  0  0  0  0  0  0  0  0  0  0
   -5.8129    3.9450   -0.2806 C   0  0  0  0  0  0  0  0  0  0  0  0
   -5.1307    2.4128    4.6881 C   0  0  0  0  0  0  0  0  0  0  0  0
   -4.9857    2.0897    3.2105 C   0  0  0  0  0  0  0  0  0  0  0  0
   -2.5915    0.6196    6.4975 N   0  0  0  0  0  0  0  0  0  0  0  0
   -3.6663   -0.2213    6.4840 N   0  0  0  0  0  0  0  0  0  0  0  0
   -4.6792    0.3272    5.8871 N   0  0  0  0  0  0  0  0  0  0  0  0
   -4.2755    1.5646    5.5035 N   0  0  0  0  0  0  0  0  0  0  0  0
   -0.2393   -0.5265   -2.8726 O   0  0  0  0  0  0  0  0  0  0  0  0
   -2.7894   -3.5761   -0.6378 O   0  0  0  0  0  0  0  0  0  0  0  0
   -0.3194   -1.1757    0.9274 O   0  0  0  0  0  0  0  0  0  0  0  0
   -4.5422    4.8600    1.8620 O   0  0  0  0  0  0  0  0  0  0  0  0
   -3.5519    5.3162   -0.4489 O   0  0  0  0  0  0  0  0  0  0  0  0
   -3.6344    2.4227    2.8560 O   0  0  0  0  0  0  0  0  0  0  0  0
   -4.2474    4.4279    0.4910 S   0  0  0  0  0  0  0  0  0  0  0  0
   -2.3802   -0.1843    2.9224 Cl  0  0  0  0  0  0  0  0  0  0  0  0
   -1.6776    0.9671   -1.7997 H   0  0  0  0  0  0  0  0  0  0  0  0
   -2.8423    3.1486   -1.5834 H   0  0  0  0  0  0  0  0  0  0  0  0
   -2.3958    2.5959    5.6766 H   0  0  0  0  0  0  0  0  0  0  0  0
    0.3887   -3.3156   -3.0120 H   0  0  0  0  0  0  0  0  0  0  0  0
    1.6836   -2.2030   -2.5850 H   0  0  0  0  0  0  0  0  0  0  0  0
   -0.4173   -4.1912    0.6404 H   0  0  0  0  0  0  0  0  0  0  0  0
   -0.6183   -4.9618   -0.9222 H   0  0  0  0  0  0  0  0  0  0  0  0
    1.2748   -2.6983   -0.1362 H   0  0  0  0  0  0  0  0  0  0  0  0
    1.6449   -4.1734   -1.0188 H   0  0  0  0  0  0  0  0  0  0  0  0
   -2.3527   -1.3369   -1.6242 H   0  0  0  0  0  0  0  0  0  0  0  0
   -6.4190    4.8529   -0.3177 H   0  0  0  0  0  0  0  0  0  0  0  0
   -5.6155    3.5742   -1.2868 H   0  0  0  0  0  0  0  0  0  0  0  0
   -6.2994    3.1839    0.3309 H   0  0  0  0  0  0  0  0  0  0  0  0
   -6.1625    2.2532    5.0066 H   0  0  0  0  0  0  0  0  0  0  0  0
   -4.8600    3.4560    4.8626 H   0  0  0  0  0  0  0  0  0  0  0  0
   -5.1763    1.0277    3.0234 H   0  0  0  0  0  0  0  0  0  0  0  0
   -5.6857    2.7084    2.6399 H   0  0  0  0  0  0  0  0  0  0  0  0
  1  2  1  0  0  0  0
  1  4  2  0  0  0  0
  1 30  1  0  0  0  0
  2  6  2  0  0  0  0
  2 31  1  0  0  0  0
  3 18  2  0  0  0  0
  3 21  1  0  0  0  0
  3 32  1  0  0  0  0
  4  7  1  0  0  0  0
  4 10  1  0  0  0  0
  5  6  1  0  0  0  0
  5  7  2  0  0  0  0
  5 27  1  0  0  0  0
  6 28  1  0  0  0  0
  7 29  1  0  0  0  0
  8 11  1  0  0  0  0
  8 14  1  0  0  0  0
  8 22  2  0  0  0  0
  9 12  1  0  0  0  0
  9 14  1  0  0  0  0
  9 23  2  0  0  0  0
 10 14  1  0  0  0  0
 10 24  2  0  0  0  0
 11 13  1  0  0  0  0
 11 33  1  0  0  0  0
 11 34  1  0  0  0  0
 12 13  1  0  0  0  0
 12 35  1  0  0  0  0
 12 36  1  0  0  0  0
 13 37  1  0  0  0  0
 13 38  1  0  0  0  0
 14 39  1  0  0  0  0
 15 28  1  0  0  0  0
 15 40  1  0  0  0  0
 15 41  1  0  0  0  0
 15 42  1  0  0  0  0
 16 17  1  0  0  0  0
 16 21  1  0  0  0  0
 16 43  1  0  0  0  0
 16 44  1  0  0  0  0
 17 27  1  0  0  0  0
 17 45  1  0  0  0  0
 17 46  1  0  0  0  0
 18 19  1  0  0  0  0
 19 20  2  0  0  0  0
 20 21  1  0  0  0  0
 25 28  2  0  0  0  0
 26 28  2  0  0  0  0
M  END
$$$$
