
  -OEChem-05262117493D

 52 54  0     1  0  0  0  0  0999 V2000
    3.2154   -1.8282    0.6657 C   0  0  0  0  0  0  0  0  0  0  0  0
    2.0466   -1.8577   -0.1050 C   0  0  0  0  0  0  0  0  0  0  0  0
   -3.3202    0.4339    0.6213 C   0  0  0  0  0  0  0  0  0  0  0  0
   -3.3406   -1.9628    0.4565 C   0  0  0  0  0  0  0  0  0  0  0  0
    1.8667    0.5634    0.1248 C   0  0  0  0  0  0  0  0  0  0  0  0
   -2.1040    0.4922   -0.0611 C   0  0  0  0  0  0  0  0  0  0  0  0
    3.7145   -0.6326    1.1694 C   0  0  0  0  0  0  0  0  0  0  0  0
   -3.9631   -0.7865    0.8798 C   0  0  0  0  0  0  0  0  0  0  0  0
   -2.1182   -1.9265   -0.2248 C   0  0  0  0  0  0  0  0  0  0  0  0
    3.0335    0.5792    0.8995 C   0  0  0  0  0  0  0  0  0  0  0  0
    1.3746   -0.6702   -0.3646 C   0  0  0  0  0  0  0  0  0  0  0  0
   -1.4930   -0.7011   -0.5063 C   0  0  0  0  0  0  0  0  0  0  0  0
    1.0051    1.7342   -0.2611 C   0  0  0  0  0  0  0  0  0  0  0  0
    6.2560   -1.4388    5.0822 C   0  0  0  0  0  0  0  0  0  0  0  0
    5.7791   -0.3703    4.4222 C   0  0  0  0  0  0  0  0  0  0  0  0
   -1.4026    1.8192   -0.2321 C   0  0  0  0  0  0  0  0  0  0  0  0
   -5.2930   -0.8235    1.5951 C   0  0  0  0  0  0  0  0  0  0  0  0
    6.4514    0.9793    4.4814 C   0  0  0  0  0  0  0  0  0  0  0  0
   -1.9070   -3.6292   -1.8503 C   0  0  0  0  0  0  0  0  0  0  0  0
    2.9842    2.9627    1.4251 C   0  0  0  0  0  0  0  0  0  0  0  0
    4.5591   -0.4714    3.5370 C   0  0  0  0  0  0  0  0  0  0  0  0
    4.9506   -0.6084    2.0414 C   0  0  1  0  0  0  0  0  0  0  0  0
    1.2260    2.5404   -1.1366 O   0  0  0  0  0  0  0  0  0  0  0  0
   -0.1418    1.6973    0.4782 O   0  0  0  0  0  0  0  0  0  0  0  0
    5.6856   -1.8120    1.8238 O   0  0  0  0  0  0  0  0  0  0  0  0
   -1.5195   -3.1194   -0.5677 O   0  0  0  0  0  0  0  0  0  0  0  0
    3.6124    1.6800    1.4737 O   0  0  0  0  0  0  0  0  0  0  0  0
   -0.0116   -0.6805   -1.5266 S   0  0  0  0  0  0  0  0  0  0  0  0
    3.7614   -2.7414    0.8749 H   0  0  0  0  0  0  0  0  0  0  0  0
    1.6613   -2.7899   -0.5042 H   0  0  0  0  0  0  0  0  0  0  0  0
   -3.7708    1.3585    0.9768 H   0  0  0  0  0  0  0  0  0  0  0  0
   -3.7826   -2.9338    0.6670 H   0  0  0  0  0  0  0  0  0  0  0  0
    5.7449   -2.3988    5.0522 H   0  0  0  0  0  0  0  0  0  0  0  0
    7.1518   -1.3772    5.6964 H   0  0  0  0  0  0  0  0  0  0  0  0
   -1.1984    2.0670   -1.2760 H   0  0  0  0  0  0  0  0  0  0  0  0
   -1.9727    2.6296    0.2259 H   0  0  0  0  0  0  0  0  0  0  0  0
   -6.1192   -0.6889    0.8865 H   0  0  0  0  0  0  0  0  0  0  0  0
   -5.4472   -1.7793    2.1035 H   0  0  0  0  0  0  0  0  0  0  0  0
   -5.3678   -0.0253    2.3397 H   0  0  0  0  0  0  0  0  0  0  0  0
    6.6976    1.3460    3.4779 H   0  0  0  0  0  0  0  0  0  0  0  0
    7.3702    0.9522    5.0732 H   0  0  0  0  0  0  0  0  0  0  0  0
    5.7754    1.7199    4.9264 H   0  0  0  0  0  0  0  0  0  0  0  0
   -1.3879   -4.5818   -1.9720 H   0  0  0  0  0  0  0  0  0  0  0  0
   -1.6047   -2.9429   -2.6493 H   0  0  0  0  0  0  0  0  0  0  0  0
   -2.9913   -3.7923   -1.8943 H   0  0  0  0  0  0  0  0  0  0  0  0
    3.5802    3.5990    2.0813 H   0  0  0  0  0  0  0  0  0  0  0  0
    1.9584    2.9151    1.8067 H   0  0  0  0  0  0  0  0  0  0  0  0
    2.9865    3.3703    0.4118 H   0  0  0  0  0  0  0  0  0  0  0  0
    3.9336    0.4192    3.6483 H   0  0  0  0  0  0  0  0  0  0  0  0
    3.9591   -1.3474    3.8020 H   0  0  0  0  0  0  0  0  0  0  0  0
    5.5621    0.2567    1.7555 H   0  0  0  0  0  0  0  0  0  0  0  0
    6.3424   -1.8749    2.5392 H   0  0  0  0  0  0  0  0  0  0  0  0
  1  2  1  0  0  0  0
  1  7  2  0  0  0  0
  1 29  1  0  0  0  0
  2 11  2  0  0  0  0
  2 30  1  0  0  0  0
  3  6  1  0  0  0  0
  3  8  2  0  0  0  0
  3 31  1  0  0  0  0
  4  8  1  0  0  0  0
  4  9  2  0  0  0  0
  4 32  1  0  0  0  0
  5 10  2  0  0  0  0
  5 11  1  0  0  0  0
  5 13  1  0  0  0  0
  6 12  2  0  0  0  0
  6 16  1  0  0  0  0
  7 10  1  0  0  0  0
  7 22  1  0  0  0  0
  8 17  1  0  0  0  0
  9 12  1  0  0  0  0
  9 26  1  0  0  0  0
 10 27  1  0  0  0  0
 11 28  1  0  0  0  0
 12 28  1  0  0  0  0
 13 23  2  0  0  0  0
 13 24  1  0  0  0  0
 14 15  2  0  0  0  0
 14 33  1  0  0  0  0
 14 34  1  0  0  0  0
 15 18  1  0  0  0  0
 15 21  1  0  0  0  0
 16 24  1  0  0  0  0
 16 35  1  0  0  0  0
 16 36  1  0  0  0  0
 17 37  1  0  0  0  0
 17 38  1  0  0  0  0
 17 39  1  0  0  0  0
 18 40  1  0  0  0  0
 18 41  1  0  0  0  0
 18 42  1  0  0  0  0
 19 26  1  0  0  0  0
 19 43  1  0  0  0  0
 19 44  1  0  0  0  0
 19 45  1  0  0  0  0
 20 27  1  0  0  0  0
 20 46  1  0  0  0  0
 20 47  1  0  0  0  0
 20 48  1  0  0  0  0
 21 22  1  0  0  0  0
 21 49  1  0  0  0  0
 21 50  1  0  0  0  0
 22 25  1  0  0  0  0
 22 51  1  0  0  0  0
 25 52  1  0  0  0  0
M  END
$$$$
