
  -OEChem-05262117493D

 36 38  0     1  0  0  0  0  0999 V2000
   -2.3550    0.6073   -4.7813 C   0  0  0  0  0  0  0  0  0  0  0  0
   -1.8459    1.8282   -5.2205 C   0  0  0  0  0  0  0  0  0  0  0  0
   -2.3976    0.3146   -3.4141 C   0  0  0  0  0  0  0  0  0  0  0  0
   -1.4389    2.4635   -2.9114 C   0  0  0  0  0  0  0  0  0  0  0  0
   -1.3902    2.7627   -4.2795 C   0  0  0  0  0  0  0  0  0  0  0  0
   -1.9286    1.2316   -2.4608 C   0  0  0  0  0  0  0  0  0  0  0  0
    1.2419   -1.0438   -1.3474 C   0  0  0  0  0  0  0  0  0  0  0  0
   -0.7774    0.1665    1.0593 C   0  0  0  0  0  0  0  0  0  0  0  0
    1.9256   -1.8754   -2.1375 C   0  0  0  0  0  0  0  0  0  0  0  0
   -0.8679    4.0623   -4.7769 C   0  0  0  0  0  0  0  0  0  0  0  0
    1.8104    0.1496   -0.6110 C   0  0  0  0  0  0  0  0  0  0  0  0
   -0.2578   -1.0904   -1.0999 C   0  0  0  0  0  0  0  0  0  0  0  0
    0.5815    2.0044    0.6992 C   0  0  0  0  0  0  0  0  0  0  0  0
    0.6459    1.1614   -0.5737 C   0  0  2  0  0  0  0  0  0  0  0  0
   -0.6133    0.2724   -0.4637 C   0  0  2  0  0  0  0  0  0  0  0  0
   -1.9371    0.9024   -0.9873 C   0  0  0  0  0  0  0  0  0  0  0  0
   -1.4221   -0.6505    1.6730 O   0  0  0  0  0  0  0  0  0  0  0  0
   -0.8149    4.3937   -5.9478 O   0  0  0  0  0  0  0  0  0  0  0  0
   -0.1018    1.1787    1.6770 O   0  0  0  0  0  0  0  0  0  0  0  0
   -0.4326    4.8836   -3.7782 O   0  0  0  0  0  0  0  0  0  0  0  0
   -2.7249   -0.1177   -5.5010 H   0  0  0  0  0  0  0  0  0  0  0  0
   -1.8028    2.0784   -6.2757 H   0  0  0  0  0  0  0  0  0  0  0  0
   -2.8145   -0.6335   -3.0826 H   0  0  0  0  0  0  0  0  0  0  0  0
   -1.1043    3.2088   -2.1967 H   0  0  0  0  0  0  0  0  0  0  0  0
    1.4391   -2.7020   -2.6508 H   0  0  0  0  0  0  0  0  0  0  0  0
    2.9959   -1.7612   -2.2932 H   0  0  0  0  0  0  0  0  0  0  0  0
    2.0722   -0.1433    0.4157 H   0  0  0  0  0  0  0  0  0  0  0  0
    2.7134    0.5526   -1.0768 H   0  0  0  0  0  0  0  0  0  0  0  0
   -0.7901   -1.2427   -2.0412 H   0  0  0  0  0  0  0  0  0  0  0  0
   -0.5445   -1.9062   -0.4283 H   0  0  0  0  0  0  0  0  0  0  0  0
    1.5603    2.2551    1.1140 H   0  0  0  0  0  0  0  0  0  0  0  0
    0.0032    2.9252    0.5677 H   0  0  0  0  0  0  0  0  0  0  0  0
    0.6508    1.7784   -1.4740 H   0  0  0  0  0  0  0  0  0  0  0  0
   -2.1478    1.8128   -0.4147 H   0  0  0  0  0  0  0  0  0  0  0  0
   -2.7438    0.1991   -0.7586 H   0  0  0  0  0  0  0  0  0  0  0  0
   -0.1224    5.6965   -4.2209 H   0  0  0  0  0  0  0  0  0  0  0  0
  1  2  1  0  0  0  0
  1  3  2  0  0  0  0
  1 21  1  0  0  0  0
  2  5  2  0  0  0  0
  2 22  1  0  0  0  0
  3  6  1  0  0  0  0
  3 23  1  0  0  0  0
  4  5  1  0  0  0  0
  4  6  2  0  0  0  0
  4 24  1  0  0  0  0
  5 10  1  0  0  0  0
  6 16  1  0  0  0  0
  7  9  2  0  0  0  0
  7 11  1  0  0  0  0
  7 12  1  0  0  0  0
  8 15  1  0  0  0  0
  8 17  2  0  0  0  0
  8 19  1  0  0  0  0
  9 25  1  0  0  0  0
  9 26  1  0  0  0  0
 10 18  2  0  0  0  0
 10 20  1  0  0  0  0
 11 14  1  0  0  0  0
 11 27  1  0  0  0  0
 11 28  1  0  0  0  0
 12 15  1  0  0  0  0
 12 29  1  0  0  0  0
 12 30  1  0  0  0  0
 13 14  1  0  0  0  0
 13 19  1  0  0  0  0
 13 31  1  0  0  0  0
 13 32  1  0  0  0  0
 14 15  1  0  0  0  0
 14 33  1  0  0  0  0
 15 16  1  0  0  0  0
 16 34  1  0  0  0  0
 16 35  1  0  0  0  0
 20 36  1  0  0  0  0
M  END
$$$$
