23
0 1 C9FH8N3O2
C                     5.979694701666    -2.256332233840    -1.379611920944
C                     1.590747484253    -1.237414749417    -0.247584321187
C                     0.530360461497    -0.620926474050     0.418649993426
C                     1.490609449725    -1.328058773274     2.535441350709
C                     2.632465018599    -1.883413242825     0.432671797773
C                     2.549282091781    -1.899287971759     1.832392230467
C                     0.499610947471    -0.681278865046     1.807427141948
C                     4.992940803903    -1.672844412433    -0.463420195235
C                     3.728932026218    -2.566326212390    -0.371668862772
N                     6.731460145802    -2.762782987262    -2.108806406555
N                     4.072515655217    -3.852063662525     0.236574037887
N                     3.600227227822    -2.508609171528     2.679539342651
O                     3.251982669452    -3.408871446088     3.440999006364
O                     4.729561564290    -2.017561142134     2.616829684144
F                    -0.526285484760    -0.106359041817     2.472944548442
H                     1.605445688203    -1.227915198261    -1.334445555908
H                    -0.267237655868    -0.119540274623    -0.120130127293
H                     1.441656467198    -1.379660494120     3.617809944996
H                     5.439576318240    -1.560924665359     0.526406666341
H                     4.717310339264    -0.679401582432    -0.828962731105
H                     3.344489666972    -2.668254712718    -1.397920976173
H                     4.879652302931    -4.263603186440    -0.230287312081
H                     3.299021300502    -4.505867239327     0.134169627326
