
  -OEChem-05262117483D

 23 23  0     1  0  0  0  0  0999 V2000
    5.4119    0.1311   -0.7851 C   0  0  0  0  0  0  0  0  0  0  0  0
    2.2312   -0.5864    0.0484 C   0  0  0  0  0  0  0  0  0  0  0  0
    1.2217    0.0117    0.8031 C   0  0  0  0  0  0  0  0  0  0  0  0
    2.1434   -1.0196    2.8010 C   0  0  0  0  0  0  0  0  0  0  0  0
    3.2273   -1.3845    0.6273 C   0  0  0  0  0  0  0  0  0  0  0  0
    3.1560   -1.5668    2.0159 C   0  0  0  0  0  0  0  0  0  0  0  0
    1.1942   -0.2226    2.1731 C   0  0  0  0  0  0  0  0  0  0  0  0
    5.6071   -1.2315   -0.2813 C   0  0  0  0  0  0  0  0  0  0  0  0
    4.2752   -2.0268   -0.2689 C   0  0  1  0  0  0  0  0  0  0  0  0
    5.2175    1.2005   -1.1985 N   0  0  0  0  0  0  0  0  0  0  0  0
    4.5516   -3.3927    0.1814 N   0  0  0  0  0  0  0  0  0  0  0  0
    4.1752   -2.3365    2.7656 N   0  3  0  0  0  0  0  0  0  0  0  0
    3.7820   -3.3069    3.4113 O   0  5  0  0  0  0  0  0  0  0  0  0
    5.3313   -1.9076    2.7497 O   0  0  0  0  0  0  0  0  0  0  0  0
    0.2144    0.3315    2.9212 F   0  0  0  0  0  0  0  0  0  0  0  0
    2.2512   -0.4251   -1.0256 H   0  0  0  0  0  0  0  0  0  0  0  0
    0.4639    0.6384    0.3442 H   0  0  0  0  0  0  0  0  0  0  0  0
    2.1000   -1.1999    3.8696 H   0  0  0  0  0  0  0  0  0  0  0  0
    6.3266   -1.7380   -0.9349 H   0  0  0  0  0  0  0  0  0  0  0  0
    6.0274   -1.1960    0.7253 H   0  0  0  0  0  0  0  0  0  0  0  0
    3.8757   -1.9865   -1.2934 H   0  0  0  0  0  0  0  0  0  0  0  0
    5.2934   -3.8141   -0.3750 H   0  0  0  0  0  0  0  0  0  0  0  0
    3.7220   -3.9723    0.0689 H   0  0  0  0  0  0  0  0  0  0  0  0
  1  8  1  0  0  0  0
  1 10  3  0  0  0  0
  2  3  1  0  0  0  0
  2  5  2  0  0  0  0
  2 16  1  0  0  0  0
  3  7  2  0  0  0  0
  3 17  1  0  0  0  0
  4  6  2  0  0  0  0
  4  7  1  0  0  0  0
  4 18  1  0  0  0  0
  5  6  1  0  0  0  0
  5  9  1  0  0  0  0
  6 12  1  0  0  0  0
  7 15  1  0  0  0  0
  8  9  1  0  0  0  0
  8 19  1  0  0  0  0
  8 20  1  0  0  0  0
  9 11  1  0  0  0  0
  9 21  1  0  0  0  0
 11 22  1  0  0  0  0
 11 23  1  0  0  0  0
 12 13  1  0  0  0  0
 12 14  2  0  0  0  0
M  CHG  2  12   1  13  -1
M  END
$$$$
