
  -OEChem-05262117483D

 18 18  0     0  0  0  0  0  0999 V2000
    1.7667   -1.1633    0.1780 C   0  0  0  0  0  0  0  0  0  0  0  0
    0.6820   -0.5921    0.8446 C   0  0  0  0  0  0  0  0  0  0  0  0
    2.6844   -1.9084    2.2953 C   0  0  0  0  0  0  0  0  0  0  0  0
    1.5987   -1.3341    2.9458 C   0  0  0  0  0  0  0  0  0  0  0  0
    2.7682   -1.8205    0.9019 C   0  0  0  0  0  0  0  0  0  0  0  0
    0.5908   -0.6752    2.2362 C   0  0  0  0  0  0  0  0  0  0  0  0
    5.3197   -1.1624    0.0578 C   0  0  0  0  0  0  0  0  0  0  0  0
    6.6549   -1.5218   -0.5614 C   0  0  0  0  0  0  0  0  0  0  0  0
    5.0556   -0.0809    0.5305 O   0  0  0  0  0  0  0  0  0  0  0  0
    1.5224   -1.4193    4.2892 F   0  0  0  0  0  0  0  0  0  0  0  0
    4.1521   -2.5594    0.0491 S   0  0  0  0  0  0  0  0  0  0  0  0
   -0.7566    0.0291    3.0858 Cl  0  0  0  0  0  0  0  0  0  0  0  0
    1.8362   -1.0922   -0.9026 H   0  0  0  0  0  0  0  0  0  0  0  0
   -0.0977   -0.0785    0.2912 H   0  0  0  0  0  0  0  0  0  0  0  0
    3.4491   -2.4076    2.8813 H   0  0  0  0  0  0  0  0  0  0  0  0
    7.3571   -1.7499    0.2476 H   0  0  0  0  0  0  0  0  0  0  0  0
    7.0353   -0.6569   -1.1095 H   0  0  0  0  0  0  0  0  0  0  0  0
    6.5902   -2.3896   -1.2217 H   0  0  0  0  0  0  0  0  0  0  0  0
  1  2  1  0  0  0  0
  1  5  2  0  0  0  0
  1 13  1  0  0  0  0
  2  6  2  0  0  0  0
  2 14  1  0  0  0  0
  3  4  2  0  0  0  0
  3  5  1  0  0  0  0
  3 15  1  0  0  0  0
  4  6  1  0  0  0  0
  4 10  1  0  0  0  0
  5 11  1  0  0  0  0
  6 12  1  0  0  0  0
  7  8  1  0  0  0  0
  7  9  2  0  0  0  0
  7 11  1  0  0  0  0
  8 16  1  0  0  0  0
  8 17  1  0  0  0  0
  8 18  1  0  0  0  0
M  END
$$$$
