
  -OEChem-05262117483D

 26 27  0     0  0  0  0  0  0999 V2000
    2.3031   -3.2126   -1.1544 C   0  0  0  0  0  0  0  0  0  0  0  0
    4.0283   -2.5567   -2.7272 C   0  0  0  0  0  0  0  0  0  0  0  0
    1.7706    0.1689    0.0721 C   0  0  0  0  0  0  0  0  0  0  0  0
    1.8377   -4.1645   -2.0633 C   0  0  0  0  0  0  0  0  0  0  0  0
    3.5748   -3.5177   -3.6328 C   0  0  0  0  0  0  0  0  0  0  0  0
    0.6348    0.5952    0.7540 C   0  0  0  0  0  0  0  0  0  0  0  0
    1.2687   -0.8167    2.6206 C   0  0  0  0  0  0  0  0  0  0  0  0
    2.4127   -1.2619    1.9362 C   0  0  0  0  0  0  0  0  0  0  0  0
    3.3967   -2.4047   -1.4862 C   0  0  0  0  0  0  0  0  0  0  0  0
    2.6600   -0.7548    0.6405 C   0  0  0  0  0  0  0  0  0  0  0  0
    2.4786   -4.3140   -3.2950 C   0  0  0  0  0  0  0  0  0  0  0  0
    0.3965    0.0942    2.0362 C   0  0  0  0  0  0  0  0  0  0  0  0
    3.2307   -2.2850    2.7192 C   0  0  0  0  0  0  0  0  0  0  0  0
    2.8690   -2.6509    3.8192 O   0  0  0  0  0  0  0  0  0  0  0  0
    4.3515   -2.7861    2.1739 O   0  0  0  0  0  0  0  0  0  0  0  0
    4.0918   -1.1882   -0.3603 S   0  0  0  0  0  0  0  0  0  0  0  0
    1.8964   -5.5124   -4.4337 Cl  0  0  0  0  0  0  0  0  0  0  0  0
   -1.0195    0.6223    2.9176 Cl  0  0  0  0  0  0  0  0  0  0  0  0
    1.8029   -3.1042   -0.1976 H   0  0  0  0  0  0  0  0  0  0  0  0
    4.8701   -1.9239   -2.9954 H   0  0  0  0  0  0  0  0  0  0  0  0
    1.9740    0.5529   -0.9227 H   0  0  0  0  0  0  0  0  0  0  0  0
    0.9876   -4.7905   -1.8112 H   0  0  0  0  0  0  0  0  0  0  0  0
    4.0619   -3.6375   -4.5952 H   0  0  0  0  0  0  0  0  0  0  0  0
   -0.0481    1.3081    0.3032 H   0  0  0  0  0  0  0  0  0  0  0  0
    1.0836   -1.2101    3.6136 H   0  0  0  0  0  0  0  0  0  0  0  0
    4.5222   -2.3857    1.2871 H   0  0  0  0  0  0  0  0  0  0  0  0
  1  4  1  0  0  0  0
  1  9  2  0  0  0  0
  1 19  1  0  0  0  0
  2  5  2  0  0  0  0
  2  9  1  0  0  0  0
  2 20  1  0  0  0  0
  3  6  2  0  0  0  0
  3 10  1  0  0  0  0
  3 21  1  0  0  0  0
  4 11  2  0  0  0  0
  4 22  1  0  0  0  0
  5 11  1  0  0  0  0
  5 23  1  0  0  0  0
  6 12  1  0  0  0  0
  6 24  1  0  0  0  0
  7  8  1  0  0  0  0
  7 12  2  0  0  0  0
  7 25  1  0  0  0  0
  8 10  2  0  0  0  0
  8 13  1  0  0  0  0
  9 16  1  0  0  0  0
 10 16  1  0  0  0  0
 11 17  1  0  0  0  0
 12 18  1  0  0  0  0
 13 14  2  0  0  0  0
 13 15  1  0  0  0  0
 15 26  1  0  0  0  0
M  END
$$$$
