26
0 1 C13Cl2H8O2S
C                     5.469428723433    -0.187914690503     0.219770534156
C                     6.924576542450    -2.124571209507     0.118198879187
C                     1.908485188099    -1.311609601312    -0.137360486529
C                     6.570122893862     0.626239540247     0.489268835068
C                     8.031496429845    -1.311103538562     0.368412316801
C                     0.827350169391    -0.701270687930     0.498267705206
C                     1.819930408787    -1.251211822786     2.641778145915
C                     2.892918379205    -1.895228642792     2.009555421202
C                     5.644419250126    -1.564777906261     0.038280435998
C                     2.941285615477    -1.908363207460     0.597248836641
C                     7.845399150847     0.059633509048     0.555333360672
C                     0.799135668209    -0.670711555990     1.893013787452
C                     3.896157316562    -2.514448266332     2.969189574304
O                     3.952709574881    -2.159005818376     4.127522679039
O                     4.683070832741    -3.512789441058     2.522545376169
S                     4.268999862636    -2.653719463600    -0.359612697758
Cl                    9.228886818599     1.083580547686     0.884918590833
Cl                   -0.534631043297     0.110344587605     2.713361719946
H                     4.479799678882     0.254652943364     0.164549696282
H                     7.064414557303    -3.195533764734     0.000431882689
H                     1.961064928973    -1.315958416671    -1.221716998510
H                     6.438481378910     1.692825487728     0.641351116266
H                     9.025195148777    -1.742056584629     0.435955040734
H                     0.030460826690    -0.244967719800    -0.080193038535
H                     1.802877937762    -1.222178859088     3.725559410517
H                     4.571187096176    -3.632888505649     1.552220314089
