
  -OEChem-05262117483D

 50 52  0     1  0  0  0  0  0999 V2000
   -0.0407   -4.2522    1.5386 C   0  0  0  0  0  0  0  0  0  0  0  0
    0.9096   -5.2776    1.6142 C   0  0  0  0  0  0  0  0  0  0  0  0
    0.0802   -3.2538    0.5709 C   0  0  0  0  0  0  0  0  0  0  0  0
    1.9734   -5.2946    0.7118 C   0  0  0  0  0  0  0  0  0  0  0  0
    5.1752   -4.0287   -2.0693 C   0  0  0  0  0  0  0  0  0  0  0  0
    1.1487   -3.2511   -0.3372 C   0  0  0  0  0  0  0  0  0  0  0  0
    2.0885   -4.2879   -0.2516 C   0  0  0  0  0  0  0  0  0  0  0  0
    4.2251   -4.4874   -3.0224 C   0  0  0  0  0  0  0  0  0  0  0  0
    4.4834   -3.9214   -0.8730 C   0  0  0  0  0  0  0  0  0  0  0  0
    1.5140    0.9522    0.7399 C   0  0  0  0  0  0  0  0  0  0  0  0
    1.9316   -0.3819    0.1231 C   0  0  0  0  0  0  0  0  0  0  0  0
    0.7268    0.1412   -1.8999 C   0  0  0  0  0  0  0  0  0  0  0  0
    0.2726    1.5025   -1.3583 C   0  0  1  0  0  0  0  0  0  0  0  0
    1.2670    2.0485   -0.3113 C   0  0  2  0  0  0  0  0  0  0  0  0
    4.4315   -4.7823   -4.4783 C   0  0  0  0  0  0  0  0  0  0  0  0
    4.9155   -3.4563    0.4821 C   0  0  0  0  0  0  0  0  0  0  0  0
   -0.0132    2.4785   -2.5049 C   0  0  0  0  0  0  0  0  0  0  0  0
    2.5837    2.5464   -0.9238 C   0  0  0  0  0  0  0  0  0  0  0  0
    1.2633   -2.1555   -1.3780 C   0  0  0  0  0  0  0  0  0  0  0  0
    3.0252   -4.6506   -2.4604 N   0  0  0  0  0  0  0  0  0  0  0  0
    3.2008   -4.3134   -1.1464 N   0  0  0  0  0  0  0  0  0  0  0  0
    0.9225   -0.8409   -0.8330 N   0  0  1  0  0  0  0  0  0  0  0  0
    0.5896    3.1620    0.3115 O   0  0  0  0  0  0  0  0  0  0  0  0
   -0.8751   -4.2321    2.2352 H   0  0  0  0  0  0  0  0  0  0  0  0
    0.8182   -6.0596    2.3632 H   0  0  0  0  0  0  0  0  0  0  0  0
   -0.6393   -2.4418    0.5184 H   0  0  0  0  0  0  0  0  0  0  0  0
    2.7166   -6.0867    0.7365 H   0  0  0  0  0  0  0  0  0  0  0  0
    6.2219   -3.8046   -2.2308 H   0  0  0  0  0  0  0  0  0  0  0  0
    0.5835    0.8081    1.2987 H   0  0  0  0  0  0  0  0  0  0  0  0
    2.2818    1.2838    1.4516 H   0  0  0  0  0  0  0  0  0  0  0  0
    2.9256   -0.2945   -0.3586 H   0  0  0  0  0  0  0  0  0  0  0  0
    2.0293   -1.1328    0.9131 H   0  0  0  0  0  0  0  0  0  0  0  0
   -0.0446   -0.2410   -2.5776 H   0  0  0  0  0  0  0  0  0  0  0  0
    1.6447    0.2657   -2.5081 H   0  0  0  0  0  0  0  0  0  0  0  0
   -0.6614    1.3362   -0.8085 H   0  0  0  0  0  0  0  0  0  0  0  0
    5.1521   -5.5953   -4.6210 H   0  0  0  0  0  0  0  0  0  0  0  0
    3.4845   -5.0773   -4.9362 H   0  0  0  0  0  0  0  0  0  0  0  0
    4.8169   -3.9052   -5.0100 H   0  0  0  0  0  0  0  0  0  0  0  0
    4.2949   -2.6248    0.8333 H   0  0  0  0  0  0  0  0  0  0  0  0
    4.8452   -4.2530    1.2299 H   0  0  0  0  0  0  0  0  0  0  0  0
    5.9529   -3.1168    0.4426 H   0  0  0  0  0  0  0  0  0  0  0  0
    0.8475    2.5853   -3.1740 H   0  0  0  0  0  0  0  0  0  0  0  0
   -0.2708    3.4667   -2.1158 H   0  0  0  0  0  0  0  0  0  0  0  0
   -0.8546    2.1202   -3.1081 H   0  0  0  0  0  0  0  0  0  0  0  0
    2.4010    3.3964   -1.5853 H   0  0  0  0  0  0  0  0  0  0  0  0
    3.0979    1.7690   -1.4955 H   0  0  0  0  0  0  0  0  0  0  0  0
    3.2674    2.8752   -0.1313 H   0  0  0  0  0  0  0  0  0  0  0  0
    2.2695   -2.1648   -1.8263 H   0  0  0  0  0  0  0  0  0  0  0  0
    0.5651   -2.3778   -2.1930 H   0  0  0  0  0  0  0  0  0  0  0  0
    1.1860    3.5333    0.9817 H   0  0  0  0  0  0  0  0  0  0  0  0
  1  2  1  0  0  0  0
  1  3  2  0  0  0  0
  1 24  1  0  0  0  0
  2  4  2  0  0  0  0
  2 25  1  0  0  0  0
  3  6  1  0  0  0  0
  3 26  1  0  0  0  0
  4  7  1  0  0  0  0
  4 27  1  0  0  0  0
  5  8  1  0  0  0  0
  5  9  2  0  0  0  0
  5 28  1  0  0  0  0
  6  7  2  0  0  0  0
  6 19  1  0  0  0  0
  7 21  1  0  0  0  0
  8 15  1  0  0  0  0
  8 20  2  0  0  0  0
  9 16  1  0  0  0  0
  9 21  1  0  0  0  0
 10 11  1  0  0  0  0
 10 14  1  0  0  0  0
 10 29  1  0  0  0  0
 10 30  1  0  0  0  0
 11 22  1  0  0  0  0
 11 31  1  0  0  0  0
 11 32  1  0  0  0  0
 12 13  1  0  0  0  0
 12 22  1  0  0  0  0
 12 33  1  0  0  0  0
 12 34  1  0  0  0  0
 13 14  1  0  0  0  0
 13 17  1  0  0  0  0
 13 35  1  0  0  0  0
 14 18  1  0  0  0  0
 14 23  1  0  0  0  0
 15 36  1  0  0  0  0
 15 37  1  0  0  0  0
 15 38  1  0  0  0  0
 16 39  1  0  0  0  0
 16 40  1  0  0  0  0
 16 41  1  0  0  0  0
 17 42  1  0  0  0  0
 17 43  1  0  0  0  0
 17 44  1  0  0  0  0
 18 45  1  0  0  0  0
 18 46  1  0  0  0  0
 18 47  1  0  0  0  0
 19 22  1  0  0  0  0
 19 48  1  0  0  0  0
 19 49  1  0  0  0  0
 20 21  1  0  0  0  0
 23 50  1  0  0  0  0
M  END
$$$$
