
  -OEChem-05262117483D

 26 26  0     0  0  0  0  0  0999 V2000
    1.8792   -0.9169    0.3790 C   0  0  0  0  0  0  0  0  0  0  0  0
    0.8155   -0.3244    1.0505 C   0  0  0  0  0  0  0  0  0  0  0  0
    1.7687   -1.0823    3.1542 C   0  0  0  0  0  0  0  0  0  0  0  0
    2.9094   -1.5892    1.0543 C   0  0  0  0  0  0  0  0  0  0  0  0
    0.7657   -0.4039    2.4480 C   0  0  0  0  0  0  0  0  0  0  0  0
    2.8360   -1.6775    2.4606 C   0  0  0  0  0  0  0  0  0  0  0  0
    4.0128   -2.1920    0.2644 C   0  0  0  0  0  0  0  0  0  0  0  0
   -0.3941    0.1680    4.4660 C   0  0  0  0  0  0  0  0  0  0  0  0
    3.7936   -2.4712    4.5080 C   0  0  0  0  0  0  0  0  0  0  0  0
    5.2364   -1.9259    0.5853 N   0  0  0  0  0  0  0  0  0  0  0  0
    3.6401   -2.9308   -0.8544 N   0  0  0  0  0  0  0  0  0  0  0  0
    6.1230   -2.6104   -0.3137 O   0  0  0  0  0  0  0  0  0  0  0  0
   -0.3028    0.2068    3.0461 O   0  0  0  0  0  0  0  0  0  0  0  0
    3.8149   -2.3866    3.0894 O   0  0  0  0  0  0  0  0  0  0  0  0
    1.9344   -0.8465   -0.7034 H   0  0  0  0  0  0  0  0  0  0  0  0
    0.0308    0.2060    0.5208 H   0  0  0  0  0  0  0  0  0  0  0  0
    1.7195   -1.1568    4.2310 H   0  0  0  0  0  0  0  0  0  0  0  0
   -1.3008    0.7178    4.7216 H   0  0  0  0  0  0  0  0  0  0  0  0
    0.4694    0.6547    4.9363 H   0  0  0  0  0  0  0  0  0  0  0  0
   -0.4801   -0.8620    4.8344 H   0  0  0  0  0  0  0  0  0  0  0  0
    4.6736   -3.0550    4.7809 H   0  0  0  0  0  0  0  0  0  0  0  0
    2.8930   -2.9840    4.8701 H   0  0  0  0  0  0  0  0  0  0  0  0
    3.8612   -1.4785    4.9701 H   0  0  0  0  0  0  0  0  0  0  0  0
    2.7850   -3.4617   -0.7421 H   0  0  0  0  0  0  0  0  0  0  0  0
    4.4034   -3.4602   -1.2626 H   0  0  0  0  0  0  0  0  0  0  0  0
    6.9910   -2.3668    0.0423 H   0  0  0  0  0  0  0  0  0  0  0  0
  1  2  1  0  0  0  0
  1  4  2  0  0  0  0
  1 15  1  0  0  0  0
  2  5  2  0  0  0  0
  2 16  1  0  0  0  0
  3  5  1  0  0  0  0
  3  6  2  0  0  0  0
  3 17  1  0  0  0  0
  4  6  1  0  0  0  0
  4  7  1  0  0  0  0
  5 13  1  0  0  0  0
  6 14  1  0  0  0  0
  7 10  2  0  0  0  0
  7 11  1  0  0  0  0
  8 13  1  0  0  0  0
  8 18  1  0  0  0  0
  8 19  1  0  0  0  0
  8 20  1  0  0  0  0
  9 14  1  0  0  0  0
  9 21  1  0  0  0  0
  9 22  1  0  0  0  0
  9 23  1  0  0  0  0
 10 12  1  0  0  0  0
 11 24  1  0  0  0  0
 11 25  1  0  0  0  0
 12 26  1  0  0  0  0
M  END
$$$$
