20
0 1 C10F3H4NOS
C                     1.855233127579    -1.458396813629    -0.110989718126
C                     1.869737202868    -0.721379718275     2.596062981778
C                    -1.182516751976     3.511447310066    -1.129881299325
C                    -0.008999044767     3.998037926353    -0.600033806341
C                     0.958413558240    -0.474172525811     0.338254840947
C                     2.758501488536    -2.035697251668     0.764033846254
C                     0.980377084828    -0.141331882119     1.695982215001
C                     2.766776624170    -1.665280125837     2.113093572770
C                    -0.229642694861     1.573903540800    -0.669451114083
C                    -0.013262625553     0.098216480949    -0.655574531839
N                    -1.291324122118     2.149971165274    -1.175454035416
O                    -0.555281776477    -0.624953713710    -1.476435803270
F                     3.636203552160    -2.962264496737     0.333474460405
F                     0.082425864733     0.743406820213     2.186171114610
F                     3.646877125293    -2.240780430008     2.947973235355
S                     1.005298272806     2.696643366120    -0.112614397998
H                     1.839523258513    -1.765691644440    -1.151814927400
H                     1.855902610835    -0.454794051065     3.647384214647
H                    -1.994987442472     4.126036823516    -1.502497336386
H                     0.299319415856     5.029188273352    -0.483994568143
