
  -OEChem-05262117483D

 50 52  0     1  0  0  0  0  0999 V2000
    3.7296   -4.2813    2.0235 C   0  0  0  0  0  0  0  0  0  0  0  0
    5.0270   -3.9315    2.4176 C   0  0  0  0  0  0  0  0  0  0  0  0
    2.8276   -3.2891    1.6377 C   0  0  0  0  0  0  0  0  0  0  0  0
    5.4075   -2.5897    2.4193 C   0  0  0  0  0  0  0  0  0  0  0  0
    5.3932    1.7962    2.7902 C   0  0  0  0  0  0  0  0  0  0  0  0
    3.1896   -1.9350    1.6376 C   0  0  0  0  0  0  0  0  0  0  0  0
    4.4932   -1.6013    2.0380 C   0  0  0  0  0  0  0  0  0  0  0  0
    5.2826    1.7512    1.3739 C   0  0  0  0  0  0  0  0  0  0  0  0
    5.1394    0.5062    3.2284 C   0  0  0  0  0  0  0  0  0  0  0  0
    1.4679    0.8786    3.7884 C   0  0  0  0  0  0  0  0  0  0  0  0
    1.2682   -0.6200    3.5138 C   0  0  0  0  0  0  0  0  0  0  0  0
   -0.1457   -0.1419    1.6216 C   0  0  0  0  0  0  0  0  0  0  0  0
   -0.0689    1.3934    1.8351 C   0  0  1  0  0  0  0  0  0  0  0  0
    0.2566    1.7099    3.3214 C   0  0  2  0  0  0  0  0  0  0  0  0
    5.4557    2.8669    0.3872 C   0  0  0  0  0  0  0  0  0  0  0  0
    5.0896   -0.0636    4.6111 C   0  0  0  0  0  0  0  0  0  0  0  0
    0.8670    2.0996    0.8371 C   0  0  0  0  0  0  0  0  0  0  0  0
    0.4900    3.1984    3.5682 C   0  0  0  0  0  0  0  0  0  0  0  0
    2.1723   -0.8847    1.2433 C   0  0  0  0  0  0  0  0  0  0  0  0
    4.9777    0.5201    0.9586 N   0  0  0  0  0  0  0  0  0  0  0  0
    4.9000   -0.2335    2.0993 N   0  0  0  0  0  0  0  0  0  0  0  0
    0.9860   -0.9352    2.1098 N   0  0  1  0  0  0  0  0  0  0  0  0
   -0.8961    1.3965    4.1407 O   0  0  0  0  0  0  0  0  0  0  0  0
    3.4254   -5.3248    2.0167 H   0  0  0  0  0  0  0  0  0  0  0  0
    5.7385   -4.6981    2.7122 H   0  0  0  0  0  0  0  0  0  0  0  0
    1.8115   -3.5496    1.3535 H   0  0  0  0  0  0  0  0  0  0  0  0
    6.4134   -2.2963    2.7055 H   0  0  0  0  0  0  0  0  0  0  0  0
    5.6217    2.6529    3.4112 H   0  0  0  0  0  0  0  0  0  0  0  0
    1.6134    1.0459    4.8619 H   0  0  0  0  0  0  0  0  0  0  0  0
    2.3738    1.2304    3.2840 H   0  0  0  0  0  0  0  0  0  0  0  0
    2.1450   -1.1904    3.8306 H   0  0  0  0  0  0  0  0  0  0  0  0
    0.4333   -1.0032    4.1180 H   0  0  0  0  0  0  0  0  0  0  0  0
   -1.0455   -0.5236    2.1264 H   0  0  0  0  0  0  0  0  0  0  0  0
   -0.2881   -0.3575    0.5572 H   0  0  0  0  0  0  0  0  0  0  0  0
   -1.0819    1.7797    1.6618 H   0  0  0  0  0  0  0  0  0  0  0  0
    6.4692    3.2808    0.4286 H   0  0  0  0  0  0  0  0  0  0  0  0
    5.2735    2.4999   -0.6255 H   0  0  0  0  0  0  0  0  0  0  0  0
    4.7578    3.6868    0.5905 H   0  0  0  0  0  0  0  0  0  0  0  0
    4.2052   -0.6907    4.7557 H   0  0  0  0  0  0  0  0  0  0  0  0
    5.9667   -0.6818    4.8308 H   0  0  0  0  0  0  0  0  0  0  0  0
    5.0573    0.7481    5.3412 H   0  0  0  0  0  0  0  0  0  0  0  0
    1.9250    1.9875    1.0868 H   0  0  0  0  0  0  0  0  0  0  0  0
    0.6538    3.1716    0.7955 H   0  0  0  0  0  0  0  0  0  0  0  0
    0.7264    1.6985   -0.1725 H   0  0  0  0  0  0  0  0  0  0  0  0
   -0.3541    3.7873    3.1949 H   0  0  0  0  0  0  0  0  0  0  0  0
    1.4049    3.5457    3.0826 H   0  0  0  0  0  0  0  0  0  0  0  0
    0.5797    3.3761    4.6441 H   0  0  0  0  0  0  0  0  0  0  0  0
    2.6584    0.0913    1.2123 H   0  0  0  0  0  0  0  0  0  0  0  0
    1.8350   -1.0897    0.2208 H   0  0  0  0  0  0  0  0  0  0  0  0
   -1.1117    0.4586    4.0257 H   0  0  0  0  0  0  0  0  0  0  0  0
  1  2  1  0  0  0  0
  1  3  2  0  0  0  0
  1 24  1  0  0  0  0
  2  4  2  0  0  0  0
  2 25  1  0  0  0  0
  3  6  1  0  0  0  0
  3 26  1  0  0  0  0
  4  7  1  0  0  0  0
  4 27  1  0  0  0  0
  5  8  1  0  0  0  0
  5  9  2  0  0  0  0
  5 28  1  0  0  0  0
  6  7  2  0  0  0  0
  6 19  1  0  0  0  0
  7 21  1  0  0  0  0
  8 15  1  0  0  0  0
  8 20  2  0  0  0  0
  9 16  1  0  0  0  0
  9 21  1  0  0  0  0
 10 11  1  0  0  0  0
 10 14  1  0  0  0  0
 10 29  1  0  0  0  0
 10 30  1  0  0  0  0
 11 22  1  0  0  0  0
 11 31  1  0  0  0  0
 11 32  1  0  0  0  0
 12 13  1  0  0  0  0
 12 22  1  0  0  0  0
 12 33  1  0  0  0  0
 12 34  1  0  0  0  0
 13 14  1  0  0  0  0
 13 17  1  0  0  0  0
 13 35  1  0  0  0  0
 14 18  1  0  0  0  0
 14 23  1  0  0  0  0
 15 36  1  0  0  0  0
 15 37  1  0  0  0  0
 15 38  1  0  0  0  0
 16 39  1  0  0  0  0
 16 40  1  0  0  0  0
 16 41  1  0  0  0  0
 17 42  1  0  0  0  0
 17 43  1  0  0  0  0
 17 44  1  0  0  0  0
 18 45  1  0  0  0  0
 18 46  1  0  0  0  0
 18 47  1  0  0  0  0
 19 22  1  0  0  0  0
 19 48  1  0  0  0  0
 19 49  1  0  0  0  0
 20 21  1  0  0  0  0
 23 50  1  0  0  0  0
M  END
$$$$
