
  -OEChem-05262117483D

 50 52  0     1  0  0  0  0  0999 V2000
    1.9447   -4.1329    1.7131 C   0  0  0  0  0  0  0  0  0  0  0  0
    1.2270   -5.2994    1.4202 C   0  0  0  0  0  0  0  0  0  0  0  0
    2.0430   -3.1151    0.7640 C   0  0  0  0  0  0  0  0  0  0  0  0
    0.6071   -5.4307    0.1775 C   0  0  0  0  0  0  0  0  0  0  0  0
   -0.3779   -4.9797   -4.1423 C   0  0  0  0  0  0  0  0  0  0  0  0
    1.4373   -3.2368   -0.4950 C   0  0  0  0  0  0  0  0  0  0  0  0
    0.7133   -4.4054   -0.7676 C   0  0  0  0  0  0  0  0  0  0  0  0
   -1.4227   -4.2275   -3.5396 C   0  0  0  0  0  0  0  0  0  0  0  0
    0.5654   -5.1749   -3.1450 C   0  0  0  0  0  0  0  0  0  0  0  0
    1.0518    1.6016   -1.2182 C   0  0  0  0  0  0  0  0  0  0  0  0
    1.4826    0.2716   -1.8379 C   0  0  0  0  0  0  0  0  0  0  0  0
   -0.3492   -0.8600   -0.7466 C   0  0  0  0  0  0  0  0  0  0  0  0
   -0.8454    0.4318   -0.0889 C   0  0  1  0  0  0  0  0  0  0  0  0
   -0.4582    1.6684   -0.9269 C   0  0  2  0  0  0  0  0  0  0  0  0
   -2.6984   -3.7372   -4.1572 C   0  0  0  0  0  0  0  0  0  0  0  0
    1.8921   -5.8667   -3.1540 C   0  0  0  0  0  0  0  0  0  0  0  0
   -2.3437    0.3416    0.2212 C   0  0  0  0  0  0  0  0  0  0  0  0
   -1.2746    1.8060   -2.2196 C   0  0  0  0  0  0  0  0  0  0  0  0
    1.5807   -2.1159   -1.5039 C   0  0  0  0  0  0  0  0  0  0  0  0
   -1.1488   -3.9708   -2.2582 N   0  0  0  0  0  0  0  0  0  0  0  0
    0.0623   -4.5638   -2.0299 N   0  0  0  0  0  0  0  0  0  0  0  0
    1.1021   -0.8400   -0.9677 N   0  0  1  0  0  0  0  0  0  0  0  0
   -0.7270    2.8079   -0.0798 O   0  0  0  0  0  0  0  0  0  0  0  0
    2.4235   -4.0184    2.6823 H   0  0  0  0  0  0  0  0  0  0  0  0
    1.1429   -6.0933    2.1574 H   0  0  0  0  0  0  0  0  0  0  0  0
    2.5794   -2.1981    0.9922 H   0  0  0  0  0  0  0  0  0  0  0  0
    0.0255   -6.3145   -0.0693 H   0  0  0  0  0  0  0  0  0  0  0  0
   -0.3192   -5.3339   -5.1636 H   0  0  0  0  0  0  0  0  0  0  0  0
    1.5805    1.7381   -0.2692 H   0  0  0  0  0  0  0  0  0  0  0  0
    1.3410    2.4266   -1.8832 H   0  0  0  0  0  0  0  0  0  0  0  0
    1.0487    0.1613   -2.8511 H   0  0  0  0  0  0  0  0  0  0  0  0
    2.5720    0.2613   -1.9590 H   0  0  0  0  0  0  0  0  0  0  0  0
   -0.5874   -1.7042   -0.0946 H   0  0  0  0  0  0  0  0  0  0  0  0
   -0.8919   -1.0471   -1.6909 H   0  0  0  0  0  0  0  0  0  0  0  0
   -0.3051    0.5441    0.8589 H   0  0  0  0  0  0  0  0  0  0  0  0
   -3.3268   -4.5714   -4.4886 H   0  0  0  0  0  0  0  0  0  0  0  0
   -3.2623   -3.1500   -3.4286 H   0  0  0  0  0  0  0  0  0  0  0  0
   -2.4997   -3.1086   -5.0323 H   0  0  0  0  0  0  0  0  0  0  0  0
    2.6992   -5.1876   -2.8582 H   0  0  0  0  0  0  0  0  0  0  0  0
    1.9113   -6.7147   -2.4613 H   0  0  0  0  0  0  0  0  0  0  0  0
    2.1090   -6.2401   -4.1572 H   0  0  0  0  0  0  0  0  0  0  0  0
   -2.9294    0.0940   -0.6706 H   0  0  0  0  0  0  0  0  0  0  0  0
   -2.7135    1.2871    0.6262 H   0  0  0  0  0  0  0  0  0  0  0  0
   -2.5298   -0.4443    0.9610 H   0  0  0  0  0  0  0  0  0  0  0  0
   -2.3303    1.9663   -1.9890 H   0  0  0  0  0  0  0  0  0  0  0  0
   -1.1926    0.9232   -2.8594 H   0  0  0  0  0  0  0  0  0  0  0  0
   -0.9201    2.6666   -2.8008 H   0  0  0  0  0  0  0  0  0  0  0  0
    2.6456   -1.9943   -1.7382 H   0  0  0  0  0  0  0  0  0  0  0  0
    1.0731   -2.3825   -2.4446 H   0  0  0  0  0  0  0  0  0  0  0  0
   -0.4991    3.6078   -0.5808 H   0  0  0  0  0  0  0  0  0  0  0  0
  1  2  1  0  0  0  0
  1  3  2  0  0  0  0
  1 24  1  0  0  0  0
  2  4  2  0  0  0  0
  2 25  1  0  0  0  0
  3  6  1  0  0  0  0
  3 26  1  0  0  0  0
  4  7  1  0  0  0  0
  4 27  1  0  0  0  0
  5  8  1  0  0  0  0
  5  9  2  0  0  0  0
  5 28  1  0  0  0  0
  6  7  2  0  0  0  0
  6 19  1  0  0  0  0
  7 21  1  0  0  0  0
  8 15  1  0  0  0  0
  8 20  2  0  0  0  0
  9 16  1  0  0  0  0
  9 21  1  0  0  0  0
 10 11  1  0  0  0  0
 10 14  1  0  0  0  0
 10 29  1  0  0  0  0
 10 30  1  0  0  0  0
 11 22  1  0  0  0  0
 11 31  1  0  0  0  0
 11 32  1  0  0  0  0
 12 13  1  0  0  0  0
 12 22  1  0  0  0  0
 12 33  1  0  0  0  0
 12 34  1  0  0  0  0
 13 14  1  0  0  0  0
 13 17  1  0  0  0  0
 13 35  1  0  0  0  0
 14 18  1  0  0  0  0
 14 23  1  0  0  0  0
 15 36  1  0  0  0  0
 15 37  1  0  0  0  0
 15 38  1  0  0  0  0
 16 39  1  0  0  0  0
 16 40  1  0  0  0  0
 16 41  1  0  0  0  0
 17 42  1  0  0  0  0
 17 43  1  0  0  0  0
 17 44  1  0  0  0  0
 18 45  1  0  0  0  0
 18 46  1  0  0  0  0
 18 47  1  0  0  0  0
 19 22  1  0  0  0  0
 19 48  1  0  0  0  0
 19 49  1  0  0  0  0
 20 21  1  0  0  0  0
 23 50  1  0  0  0  0
M  END
$$$$
