
  -OEChem-05262117483D

 20 21  0     0  0  0  0  0  0999 V2000
    2.2257   -0.7884   -0.0899 C   0  0  0  0  0  0  0  0  0  0  0  0
    1.5382   -1.3291    2.5759 C   0  0  0  0  0  0  0  0  0  0  0  0
   -3.5687   -0.8166   -1.2682 C   0  0  0  0  0  0  0  0  0  0  0  0
   -3.3674   -2.0938   -0.7962 C   0  0  0  0  0  0  0  0  0  0  0  0
    0.9030   -0.5772    0.3353 C   0  0  0  0  0  0  0  0  0  0  0  0
    3.1725   -1.2882    0.7868 C   0  0  0  0  0  0  0  0  0  0  0  0
    0.5971   -0.8412    1.6737 C   0  0  0  0  0  0  0  0  0  0  0  0
    2.8278   -1.5602    2.1152 C   0  0  0  0  0  0  0  0  0  0  0  0
   -1.4351   -0.6131   -0.7389 C   0  0  0  0  0  0  0  0  0  0  0  0
   -0.0730   -0.0108   -0.6577 C   0  0  0  0  0  0  0  0  0  0  0  0
   -2.4752    0.0026   -1.2430 N   0  0  0  0  0  0  0  0  0  0  0  0
    0.2706    0.8739   -1.4258 O   0  0  0  0  0  0  0  0  0  0  0  0
    4.4357   -1.5148    0.3781 F   0  0  0  0  0  0  0  0  0  0  0  0
   -0.6432   -0.5782    2.1447 F   0  0  0  0  0  0  0  0  0  0  0  0
    3.7618   -2.0393    2.9523 F   0  0  0  0  0  0  0  0  0  0  0  0
   -1.7392   -2.2824   -0.2733 S   0  0  0  0  0  0  0  0  0  0  0  0
    2.5049   -0.5591   -1.1133 H   0  0  0  0  0  0  0  0  0  0  0  0
    1.2774   -1.5122    3.6128 H   0  0  0  0  0  0  0  0  0  0  0  0
   -4.5119   -0.4387   -1.6481 H   0  0  0  0  0  0  0  0  0  0  0  0
   -4.0772   -2.9092   -0.7402 H   0  0  0  0  0  0  0  0  0  0  0  0
  1  5  1  0  0  0  0
  1  6  2  0  0  0  0
  1 17  1  0  0  0  0
  2  7  1  0  0  0  0
  2  8  2  0  0  0  0
  2 18  1  0  0  0  0
  3  4  2  0  0  0  0
  3 11  1  0  0  0  0
  3 19  1  0  0  0  0
  4 16  1  0  0  0  0
  4 20  1  0  0  0  0
  5  7  2  0  0  0  0
  5 10  1  0  0  0  0
  6  8  1  0  0  0  0
  6 13  1  0  0  0  0
  7 14  1  0  0  0  0
  8 15  1  0  0  0  0
  9 10  1  0  0  0  0
  9 11  2  0  0  0  0
  9 16  1  0  0  0  0
 10 12  2  0  0  0  0
M  END
$$$$
