25
0 1 C9Cl2H8N6
C                     1.709147604242    -2.605980037878     0.628222674178
C                     0.610577863351    -2.163071301673     1.352777730890
C                     1.772200423587    -0.075890764311     1.801968017548
C                     4.590149886348    -7.017384049124    -2.983823329761
C                     2.862743636298    -1.813088046909     0.457700350515
C                     0.651166692053    -0.892182019017     1.937507552378
C                     2.862775842023    -0.543203534190     1.066231541627
C                     5.117666919939    -5.110415250072    -2.092748270092
C                     4.009717719368    -2.305491902402    -0.309402104423
N                     5.838402343793    -7.100068459259    -2.597108064435
N                     6.177200850823    -5.879952195352    -2.010964196772
N                     3.937928755786    -3.403035817395    -0.979174799497
N                     4.078824056122    -5.770371273963    -2.701109632362
N                     2.796749612973    -5.310049247252    -3.055450026443
N                     5.050540790765    -3.778355950003    -1.694384729546
Cl                   -0.720189445267    -0.317334507853     2.859195947609
Cl                    4.246573549411     0.532249968104     0.918763124778
H                     1.699119368010    -3.596317571338     0.185409830176
H                    -0.265318335417    -2.791758021931     1.474526605978
H                     1.799779795697     0.907599967474     2.257441532151
H                     4.000733052346    -7.792321237255    -3.454465867861
H                     4.926439537763    -1.709988011737    -0.293516490314
H                     2.910240190846    -4.600410500169    -3.780941525730
H                     2.413557794728    -4.839100336714    -2.236261134918
H                     5.955093814070    -3.423400487958    -1.380213865312
