55
0 1 C19H28O6S2
C                    -1.731861662868     2.781764409764     0.462891838249
C                    -0.709497779566     3.233676625241    -0.390905480984
C                    -1.755959683944     1.448636240522     0.852001937376
C                     0.268395024637     2.359822849419    -0.859798522183
C                    -0.770736246051     0.551936037688     0.398712665211
C                     0.234034606413     1.014429167367    -0.469791827525
C                    -0.749863433071    -0.844722856130     0.874222443001
C                     0.451477337645    -1.711315992531     0.446815535132
C                     0.953778018793    -1.238851624297    -0.962191597769
C                     2.308511683905    -1.832189433885    -1.351323959381
C                    -0.998352673747    -1.112646971259    -4.392334247900
C                    -1.027661714488    -6.350625796155     2.918004898019
C                     3.962571755304     1.326745625318     3.357152279653
C                     0.011304839210    -3.200242357095     0.345501557715
C                     1.530992873001    -1.587308440938     1.561753499749
C                    -0.109941608576    -1.512680304035    -2.053165835901
C                     0.099164755927    -0.769129081945    -3.378608404672
C                    -0.224954555199    -3.929420395879     1.670203601189
C                     2.161259091981    -0.210917759262     1.787155045645
O                    -1.613945295518    -1.282570419781     1.628438930141
O                    -2.004458248722    -5.599465693705     0.557258459738
O                     0.438909124887    -6.326093500509     0.693233777293
O                     2.675180255962    -0.781171329598     4.353991236697
O                     4.507157664414    -1.173582986510     2.616553972233
O                     1.220648097587     0.203035034988    -0.928874875757
S                    -0.723666192459    -5.637264239769     1.285508665660
S                     3.381832067571    -0.369582655704     3.127666385291
H                    -2.492338506914     3.471719648481     0.816324296531
H                    -0.683176256394     4.275920077065    -0.698559728956
H                    -2.521114396323     1.065926476257     1.520698672303
H                     1.055242785256     2.692083499014    -1.530531996693
H                     2.629385376569    -1.411151464794    -2.305871989225
H                     2.250676874655    -2.916414836920    -1.462566708882
H                     3.079609336824    -1.601458766554    -0.614123186617
H                    -1.013518617432    -2.185332871450    -4.615715030074
H                    -0.845539635863    -0.577079686474    -5.334985934831
H                    -1.988543815623    -0.839722157948    -4.010195619306
H                    -1.319255233028    -7.387841159585     2.742469869143
H                    -0.108482079619    -6.309372447879     3.504467446782
H                    -1.839303390674    -5.803743257951     3.400128660677
H                     4.722042601723     1.280856134332     4.139925338707
H                     4.401554245319     1.683747791352     2.424204125818
H                     3.126321439076     1.951136141014     3.675256248213
H                     0.775200437918    -3.753645760854    -0.205396181368
H                    -0.913361188559    -3.257646225592    -0.230532098875
H                     2.324146674395    -2.311911875030     1.357047127334
H                     1.065850052484    -1.883009163107     2.504396931515
H                    -0.124487218984    -2.589256392280    -2.248014234852
H                    -1.107224010830    -1.263673512172    -1.672550782582
H                     0.106923245267     0.310319433118    -3.199607153939
H                     1.076793283739    -1.019768332585    -3.804290628759
H                     0.678435336596    -4.021318225761     2.276101823463
H                    -1.030118938282    -3.470524898634     2.243903723865
H                     2.702896722012     0.163106820532     0.919253232835
H                     1.430292159053     0.532137306276     2.113959015639
