
  -OEChem-05262117483D

 55 56  0     1  0  0  0  0  0999 V2000
   -1.0506    2.7289   -0.9543 C   0  0  0  0  0  0  0  0  0  0  0  0
   -0.1127    3.0347    0.0490 C   0  0  0  0  0  0  0  0  0  0  0  0
   -1.2271    1.4078   -1.3410 C   0  0  0  0  0  0  0  0  0  0  0  0
    0.6283    2.0315    0.6670 C   0  0  0  0  0  0  0  0  0  0  0  0
   -0.4760    0.3796   -0.7402 C   0  0  0  0  0  0  0  0  0  0  0  0
    0.4426    0.6985    0.2775 C   0  0  0  0  0  0  0  0  0  0  0  0
   -0.6054   -1.0116   -1.1999 C   0  0  0  0  0  0  0  0  0  0  0  0
    0.4841   -1.9840   -0.6841 C   0  0  0  0  0  0  0  0  0  0  0  0
    0.7342   -1.6348    0.8257 C   0  0  1  0  0  0  0  0  0  0  0  0
   -0.5535   -1.7721    1.6619 C   0  0  0  0  0  0  0  0  0  0  0  0
    3.4261   -2.8448    3.4253 C   0  0  0  0  0  0  0  0  0  0  0  0
    4.0629   -2.9520   -3.6460 C   0  0  0  0  0  0  0  0  0  0  0  0
   -0.9244   -6.6019   -1.0504 C   0  0  0  0  0  0  0  0  0  0  0  0
    1.7494   -1.6901   -1.5407 C   0  0  0  0  0  0  0  0  0  0  0  0
   -0.0250   -3.4327   -0.8767 C   0  0  0  0  0  0  0  0  0  0  0  0
    1.8696   -2.4448    1.4683 C   0  0  0  0  0  0  0  0  0  0  0  0
    2.2169   -2.0543    2.9128 C   0  0  0  0  0  0  0  0  0  0  0  0
    1.5069   -1.8081   -3.0448 C   0  0  0  0  0  0  0  0  0  0  0  0
    1.0458   -4.5252   -0.9985 C   0  0  0  0  0  0  0  0  0  0  0  0
   -1.4621   -1.3659   -2.0045 O   0  0  0  0  0  0  0  0  0  0  0  0
    2.6536   -1.5890   -5.4338 O   0  0  0  0  0  0  0  0  0  0  0  0
    3.6913   -0.3241   -3.4643 O   0  0  0  0  0  0  0  0  0  0  0  0
    1.6204   -7.0579   -0.4097 O   0  0  0  0  0  0  0  0  0  0  0  0
    0.1656   -5.7164    1.2113 O   0  0  0  0  0  0  0  0  0  0  0  0
    1.1898   -0.2471    0.9032 O   0  0  0  0  0  0  0  0  0  0  0  0
    3.0205   -1.5161   -4.0105 S   0  0  0  0  0  0  0  0  0  0  0  0
    0.5593   -6.0676   -0.1673 S   0  0  0  0  0  0  0  0  0  0  0  0
   -1.6242    3.5216   -1.4251 H   0  0  0  0  0  0  0  0  0  0  0  0
    0.0342    4.0676    0.3540 H   0  0  0  0  0  0  0  0  0  0  0  0
   -1.9315    1.1345   -2.1209 H   0  0  0  0  0  0  0  0  0  0  0  0
    1.3460    2.2543    1.4507 H   0  0  0  0  0  0  0  0  0  0  0  0
   -0.4389   -1.2082    2.5891 H   0  0  0  0  0  0  0  0  0  0  0  0
   -0.7316   -2.8174    1.9245 H   0  0  0  0  0  0  0  0  0  0  0  0
   -1.4395   -1.3916    1.1482 H   0  0  0  0  0  0  0  0  0  0  0  0
    3.2367   -3.9237    3.3934 H   0  0  0  0  0  0  0  0  0  0  0  0
    3.6621   -2.5774    4.4605 H   0  0  0  0  0  0  0  0  0  0  0  0
    4.3170   -2.6437    2.8189 H   0  0  0  0  0  0  0  0  0  0  0  0
    4.9510   -2.8316   -4.2693 H   0  0  0  0  0  0  0  0  0  0  0  0
    4.3439   -2.9513   -2.5925 H   0  0  0  0  0  0  0  0  0  0  0  0
    3.5321   -3.8641   -3.9238 H   0  0  0  0  0  0  0  0  0  0  0  0
   -1.2505   -7.5197   -0.5576 H   0  0  0  0  0  0  0  0  0  0  0  0
   -1.6941   -5.8337   -0.9682 H   0  0  0  0  0  0  0  0  0  0  0  0
   -0.6642   -6.8017   -2.0910 H   0  0  0  0  0  0  0  0  0  0  0  0
    2.5414   -2.3797   -1.2430 H   0  0  0  0  0  0  0  0  0  0  0  0
    2.1247   -0.6887   -1.3262 H   0  0  0  0  0  0  0  0  0  0  0  0
   -0.6546   -3.4456   -1.7678 H   0  0  0  0  0  0  0  0  0  0  0  0
   -0.6846   -3.6693   -0.0404 H   0  0  0  0  0  0  0  0  0  0  0  0
    1.5833   -3.5000    1.4609 H   0  0  0  0  0  0  0  0  0  0  0  0
    2.7750   -2.3369    0.8616 H   0  0  0  0  0  0  0  0  0  0  0  0
    2.4228   -0.9809    2.9631 H   0  0  0  0  0  0  0  0  0  0  0  0
    1.3609   -2.2469    3.5677 H   0  0  0  0  0  0  0  0  0  0  0  0
    1.1241   -2.7808   -3.3621 H   0  0  0  0  0  0  0  0  0  0  0  0
    0.8196   -1.0458   -3.4206 H   0  0  0  0  0  0  0  0  0  0  0  0
    1.2799   -4.7963   -2.0314 H   0  0  0  0  0  0  0  0  0  0  0  0
    1.9859   -4.2944   -0.4964 H   0  0  0  0  0  0  0  0  0  0  0  0
  1  2  1  0  0  0  0
  1  3  2  0  0  0  0
  1 28  1  0  0  0  0
  2  4  2  0  0  0  0
  2 29  1  0  0  0  0
  3  5  1  0  0  0  0
  3 30  1  0  0  0  0
  4  6  1  0  0  0  0
  4 31  1  0  0  0  0
  5  6  2  0  0  0  0
  5  7  1  0  0  0  0
  6 25  1  0  0  0  0
  7  8  1  0  0  0  0
  7 20  2  0  0  0  0
  8  9  1  0  0  0  0
  8 14  1  0  0  0  0
  8 15  1  0  0  0  0
  9 10  1  0  0  0  0
  9 16  1  0  0  0  0
  9 25  1  0  0  0  0
 10 32  1  0  0  0  0
 10 33  1  0  0  0  0
 10 34  1  0  0  0  0
 11 17  1  0  0  0  0
 11 35  1  0  0  0  0
 11 36  1  0  0  0  0
 11 37  1  0  0  0  0
 12 26  1  0  0  0  0
 12 38  1  0  0  0  0
 12 39  1  0  0  0  0
 12 40  1  0  0  0  0
 13 27  1  0  0  0  0
 13 41  1  0  0  0  0
 13 42  1  0  0  0  0
 13 43  1  0  0  0  0
 14 18  1  0  0  0  0
 14 44  1  0  0  0  0
 14 45  1  0  0  0  0
 15 19  1  0  0  0  0
 15 46  1  0  0  0  0
 15 47  1  0  0  0  0
 16 17  1  0  0  0  0
 16 48  1  0  0  0  0
 16 49  1  0  0  0  0
 17 50  1  0  0  0  0
 17 51  1  0  0  0  0
 18 26  1  0  0  0  0
 18 52  1  0  0  0  0
 18 53  1  0  0  0  0
 19 27  1  0  0  0  0
 19 54  1  0  0  0  0
 19 55  1  0  0  0  0
 21 26  2  0  0  0  0
 22 26  2  0  0  0  0
 23 27  2  0  0  0  0
 24 27  2  0  0  0  0
M  END
$$$$
