
  -OEChem-05262117483D

 61 64  0     0  0  0  0  0  0999 V2000
   -4.5384   -8.3845    5.1849 C   0  0  0  0  0  0  0  0  0  0  0  0
   -4.3237   -6.4078    3.7868 C   0  0  0  0  0  0  0  0  0  0  0  0
   -3.2155   -8.2557    5.5884 C   0  0  0  0  0  0  0  0  0  0  0  0
   -2.9973   -6.2838    4.1901 C   0  0  0  0  0  0  0  0  0  0  0  0
   -9.2837   -7.0774    1.9648 C   0  0  0  0  0  0  0  0  0  0  0  0
   -5.1113   -7.4716    4.2727 C   0  0  0  0  0  0  0  0  0  0  0  0
   -2.4446   -7.2070    5.0786 C   0  0  0  0  0  0  0  0  0  0  0  0
   -8.9215   -5.9685    1.2188 C   0  0  0  0  0  0  0  0  0  0  0  0
   -7.6322   -5.4159    1.4361 C   0  0  0  0  0  0  0  0  0  0  0  0
   -7.2625   -7.0623    2.9947 C   0  0  0  0  0  0  0  0  0  0  0  0
   -3.3647   -3.9126    0.5888 C   0  0  0  0  0  0  0  0  0  0  0  0
   -4.4559   -1.6614    0.7546 C   0  0  0  0  0  0  0  0  0  0  0  0
   -4.7399   -4.5400    0.3283 C   0  0  0  0  0  0  0  0  0  0  0  0
   -5.8336   -2.2900    0.5131 C   0  0  0  0  0  0  0  0  0  0  0  0
    0.4223   -1.8794    0.7477 C   0  0  0  0  0  0  0  0  0  0  0  0
   -0.6360    0.2378   -0.0179 C   0  0  0  0  0  0  0  0  0  0  0  0
   -0.8302   -2.6363    0.2918 C   0  0  0  0  0  0  0  0  0  0  0  0
   -1.8486   -0.5904   -0.4445 C   0  0  0  0  0  0  0  0  0  0  0  0
   -3.3047   -2.4552    0.1026 C   0  0  0  0  0  0  0  0  0  0  0  0
   -5.8577   -3.7370    1.0043 C   0  0  0  0  0  0  0  0  0  0  0  0
    0.6304   -0.6046   -0.0677 C   0  0  0  0  0  0  0  0  0  0  0  0
   -8.4689   -7.6488    2.8637 N   0  0  0  0  0  0  0  0  0  0  0  0
   -6.8150   -5.9880    2.3410 N   0  0  0  0  0  0  0  0  0  0  0  0
   -2.0202   -1.7849    0.3945 N   0  0  0  0  0  0  0  0  0  0  0  0
    0.1037   -7.9114    4.3645 N   0  0  0  0  0  0  0  0  0  0  0  0
   -6.4432   -7.6872    3.9172 N   0  0  0  0  0  0  0  0  0  0  0  0
   -7.1795   -4.3239    0.7795 N   0  0  0  0  0  0  0  0  0  0  0  0
   -0.3424   -5.6438    5.4021 O   0  0  0  0  0  0  0  0  0  0  0  0
   -0.5642   -7.7744    6.8300 O   0  0  0  0  0  0  0  0  0  0  0  0
    1.7093    0.1977    0.4280 O   0  0  0  0  0  0  0  0  0  0  0  0
   -0.7393   -7.0464    5.5682 S   0  0  0  0  0  0  0  0  0  0  0  0
  -10.1241   -5.2005   -0.0594 Br  0  0  0  0  0  0  0  0  0  0  0  0
   -5.1415   -9.1984    5.5811 H   0  0  0  0  0  0  0  0  0  0  0  0
   -4.7613   -5.6936    3.1074 H   0  0  0  0  0  0  0  0  0  0  0  0
   -2.7854   -8.9497    6.3032 H   0  0  0  0  0  0  0  0  0  0  0  0
   -2.3944   -5.4569    3.8275 H   0  0  0  0  0  0  0  0  0  0  0  0
  -10.2652   -7.5293    1.8367 H   0  0  0  0  0  0  0  0  0  0  0  0
   -3.1404   -3.9448    1.6637 H   0  0  0  0  0  0  0  0  0  0  0  0
   -2.6096   -4.5218    0.0859 H   0  0  0  0  0  0  0  0  0  0  0  0
   -4.4711   -0.6307    0.3918 H   0  0  0  0  0  0  0  0  0  0  0  0
   -4.2541   -1.6092    1.8312 H   0  0  0  0  0  0  0  0  0  0  0  0
   -4.9367   -4.5737   -0.7515 H   0  0  0  0  0  0  0  0  0  0  0  0
   -4.7556   -5.5714    0.6898 H   0  0  0  0  0  0  0  0  0  0  0  0
   -6.6063   -1.7064    1.0263 H   0  0  0  0  0  0  0  0  0  0  0  0
   -6.0704   -2.2674   -0.5606 H   0  0  0  0  0  0  0  0  0  0  0  0
    0.3168   -1.6082    1.8038 H   0  0  0  0  0  0  0  0  0  0  0  0
    1.2936   -2.5419    0.6563 H   0  0  0  0  0  0  0  0  0  0  0  0
   -0.5304    1.1109   -0.6706 H   0  0  0  0  0  0  0  0  0  0  0  0
   -0.7774    0.5988    1.0065 H   0  0  0  0  0  0  0  0  0  0  0  0
   -0.6826   -3.0093   -0.7426 H   0  0  0  0  0  0  0  0  0  0  0  0
   -0.9503   -3.5083    0.9350 H   0  0  0  0  0  0  0  0  0  0  0  0
   -2.7420    0.0325   -0.3739 H   0  0  0  0  0  0  0  0  0  0  0  0
   -1.7461   -0.8776   -1.5109 H   0  0  0  0  0  0  0  0  0  0  0  0
   -3.4737   -2.4785   -0.9932 H   0  0  0  0  0  0  0  0  0  0  0  0
   -5.6849   -3.7411    2.0861 H   0  0  0  0  0  0  0  0  0  0  0  0
    0.8287   -0.8824   -1.1167 H   0  0  0  0  0  0  0  0  0  0  0  0
    0.8239   -7.3039    3.9751 H   0  0  0  0  0  0  0  0  0  0  0  0
    0.5213   -8.7434    4.7800 H   0  0  0  0  0  0  0  0  0  0  0  0
   -6.8971   -8.4907    4.3354 H   0  0  0  0  0  0  0  0  0  0  0  0
   -7.7898   -3.9091    0.0870 H   0  0  0  0  0  0  0  0  0  0  0  0
    2.5081   -0.3528    0.4488 H   0  0  0  0  0  0  0  0  0  0  0  0
  1  3  1  0  0  0  0
  1  6  2  0  0  0  0
  1 33  1  0  0  0  0
  2  4  2  0  0  0  0
  2  6  1  0  0  0  0
  2 34  1  0  0  0  0
  3  7  2  0  0  0  0
  3 35  1  0  0  0  0
  4  7  1  0  0  0  0
  4 36  1  0  0  0  0
  5  8  1  0  0  0  0
  5 22  2  0  0  0  0
  5 37  1  0  0  0  0
  6 26  1  0  0  0  0
  7 31  1  0  0  0  0
  8  9  2  0  0  0  0
  8 32  1  0  0  0  0
  9 23  1  0  0  0  0
  9 27  1  0  0  0  0
 10 22  1  0  0  0  0
 10 23  2  0  0  0  0
 10 26  1  0  0  0  0
 11 13  1  0  0  0  0
 11 19  1  0  0  0  0
 11 38  1  0  0  0  0
 11 39  1  0  0  0  0
 12 14  1  0  0  0  0
 12 19  1  0  0  0  0
 12 40  1  0  0  0  0
 12 41  1  0  0  0  0
 13 20  1  0  0  0  0
 13 42  1  0  0  0  0
 13 43  1  0  0  0  0
 14 20  1  0  0  0  0
 14 44  1  0  0  0  0
 14 45  1  0  0  0  0
 15 17  1  0  0  0  0
 15 21  1  0  0  0  0
 15 46  1  0  0  0  0
 15 47  1  0  0  0  0
 16 18  1  0  0  0  0
 16 21  1  0  0  0  0
 16 48  1  0  0  0  0
 16 49  1  0  0  0  0
 17 24  1  0  0  0  0
 17 50  1  0  0  0  0
 17 51  1  0  0  0  0
 18 24  1  0  0  0  0
 18 52  1  0  0  0  0
 18 53  1  0  0  0  0
 19 24  1  0  0  0  0
 19 54  1  0  0  0  0
 20 27  1  0  0  0  0
 20 55  1  0  0  0  0
 21 30  1  0  0  0  0
 21 56  1  0  0  0  0
 25 31  1  0  0  0  0
 25 57  1  0  0  0  0
 25 58  1  0  0  0  0
 26 59  1  0  0  0  0
 27 60  1  0  0  0  0
 28 31  2  0  0  0  0
 29 31  2  0  0  0  0
 30 61  1  0  0  0  0
M  END
$$$$
