
  -OEChem-05262117483D

 43 45  0     1  0  0  0  0  0999 V2000
    2.1179   -6.7457    3.8341 C   0  0  0  0  0  0  0  0  0  0  0  0
    0.4817   -5.2930    4.8607 C   0  0  0  0  0  0  0  0  0  0  0  0
    2.4614   -5.7214    2.9494 C   0  0  0  0  0  0  0  0  0  0  0  0
    0.8288   -4.2757    3.9786 C   0  0  0  0  0  0  0  0  0  0  0  0
    3.6645   -0.6760    3.8941 C   0  0  0  0  0  0  0  0  0  0  0  0
    3.7865   -1.8750    3.2281 C   0  0  0  0  0  0  0  0  0  0  0  0
    1.7206   -1.1118    3.0901 C   0  0  0  0  0  0  0  0  0  0  0  0
    1.1197   -6.5447    4.7986 C   0  0  0  0  0  0  0  0  0  0  0  0
    1.8194   -4.4799    3.0050 C   0  0  0  0  0  0  0  0  0  0  0  0
    0.7097   -7.6100    5.7698 C   0  0  0  0  0  0  0  0  0  0  0  0
    2.1405   -3.9132   -1.7481 C   0  0  0  0  0  0  0  0  0  0  0  0
    1.7418   -4.9833   -0.7219 C   0  0  0  0  0  0  0  0  0  0  0  0
    2.5594   -2.6052   -1.0623 C   0  0  0  0  0  0  0  0  0  0  0  0
    0.6636   -4.4629    0.2402 C   0  0  0  0  0  0  0  0  0  0  0  0
    1.4755   -2.0992   -0.0980 C   0  0  0  0  0  0  0  0  0  0  0  0
    1.0674   -3.1548    0.9515 C   0  0  0  0  0  0  0  0  0  0  0  0
    1.4177   -8.9528    5.7228 C   0  0  0  0  0  0  0  0  0  0  0  0
    2.1783   -3.3901    2.0075 C   0  0  1  0  0  0  0  0  0  0  0  0
    2.3703   -0.2065    3.7997 N   0  0  0  0  0  0  0  0  0  0  0  0
    2.5352   -2.1467    2.7031 N   0  0  0  0  0  0  0  0  0  0  0  0
   -0.1805   -7.4022    6.5865 O   0  0  0  0  0  0  0  0  0  0  0  0
    2.6351   -7.6977    3.7655 H   0  0  0  0  0  0  0  0  0  0  0  0
   -0.2831   -5.1418    5.6162 H   0  0  0  0  0  0  0  0  0  0  0  0
    3.2364   -5.8931    2.2059 H   0  0  0  0  0  0  0  0  0  0  0  0
    0.3370   -3.3099    4.0555 H   0  0  0  0  0  0  0  0  0  0  0  0
    4.4297   -0.1259    4.4264 H   0  0  0  0  0  0  0  0  0  0  0  0
    4.6185   -2.5504    3.0858 H   0  0  0  0  0  0  0  0  0  0  0  0
    0.6774   -1.0531    2.8125 H   0  0  0  0  0  0  0  0  0  0  0  0
    1.2833   -3.7132   -2.4058 H   0  0  0  0  0  0  0  0  0  0  0  0
    2.9484   -4.2830   -2.3902 H   0  0  0  0  0  0  0  0  0  0  0  0
    1.3725   -5.8799   -1.2327 H   0  0  0  0  0  0  0  0  0  0  0  0
    2.6301   -5.2993   -0.1595 H   0  0  0  0  0  0  0  0  0  0  0  0
    3.5018   -2.7585   -0.5200 H   0  0  0  0  0  0  0  0  0  0  0  0
    2.7666   -1.8338   -1.8124 H   0  0  0  0  0  0  0  0  0  0  0  0
   -0.2470   -4.2551   -0.3361 H   0  0  0  0  0  0  0  0  0  0  0  0
    0.3974   -5.2319    0.9712 H   0  0  0  0  0  0  0  0  0  0  0  0
    1.8052   -1.1763    0.3871 H   0  0  0  0  0  0  0  0  0  0  0  0
    0.5791   -1.8439   -0.6781 H   0  0  0  0  0  0  0  0  0  0  0  0
    0.1826   -2.7934    1.4890 H   0  0  0  0  0  0  0  0  0  0  0  0
    2.4932   -8.8342    5.8929 H   0  0  0  0  0  0  0  0  0  0  0  0
    1.2905   -9.4282    4.7442 H   0  0  0  0  0  0  0  0  0  0  0  0
    0.9990   -9.5994    6.4947 H   0  0  0  0  0  0  0  0  0  0  0  0
    3.0853   -3.7048    1.4869 H   0  0  0  0  0  0  0  0  0  0  0  0
  1  3  1  0  0  0  0
  1  8  2  0  0  0  0
  1 22  1  0  0  0  0
  2  4  2  0  0  0  0
  2  8  1  0  0  0  0
  2 23  1  0  0  0  0
  3  9  2  0  0  0  0
  3 24  1  0  0  0  0
  4  9  1  0  0  0  0
  4 25  1  0  0  0  0
  5  6  2  0  0  0  0
  5 19  1  0  0  0  0
  5 26  1  0  0  0  0
  6 20  1  0  0  0  0
  6 27  1  0  0  0  0
  7 19  2  0  0  0  0
  7 20  1  0  0  0  0
  7 28  1  0  0  0  0
  8 10  1  0  0  0  0
  9 18  1  0  0  0  0
 10 17  1  0  0  0  0
 10 21  2  0  0  0  0
 11 12  1  0  0  0  0
 11 13  1  0  0  0  0
 11 29  1  0  0  0  0
 11 30  1  0  0  0  0
 12 14  1  0  0  0  0
 12 31  1  0  0  0  0
 12 32  1  0  0  0  0
 13 15  1  0  0  0  0
 13 33  1  0  0  0  0
 13 34  1  0  0  0  0
 14 16  1  0  0  0  0
 14 35  1  0  0  0  0
 14 36  1  0  0  0  0
 15 16  1  0  0  0  0
 15 37  1  0  0  0  0
 15 38  1  0  0  0  0
 16 18  1  0  0  0  0
 16 39  1  0  0  0  0
 17 40  1  0  0  0  0
 17 41  1  0  0  0  0
 17 42  1  0  0  0  0
 18 20  1  0  0  0  0
 18 43  1  0  0  0  0
M  END
$$$$
