
  -OEChem-05262117483D

 43 45  0     1  0  0  0  0  0999 V2000
    3.4009   -6.6785   -0.2858 C   0  0  0  0  0  0  0  0  0  0  0  0
    4.2281   -7.1801   -2.4994 C   0  0  0  0  0  0  0  0  0  0  0  0
    3.2266   -5.3447   -0.6545 C   0  0  0  0  0  0  0  0  0  0  0  0
    4.0542   -5.8471   -2.8606 C   0  0  0  0  0  0  0  0  0  0  0  0
    6.4230   -1.4249   -2.0732 C   0  0  0  0  0  0  0  0  0  0  0  0
    5.4689   -2.0275   -2.8643 C   0  0  0  0  0  0  0  0  0  0  0  0
    5.1215   -2.4865   -0.7338 C   0  0  0  0  0  0  0  0  0  0  0  0
    3.9044   -7.6137   -1.2037 C   0  0  0  0  0  0  0  0  0  0  0  0
    3.5540   -4.9094   -1.9456 C   0  0  0  0  0  0  0  0  0  0  0  0
    4.1093   -9.0582   -0.8571 C   0  0  0  0  0  0  0  0  0  0  0  0
   -0.4168   -1.2918   -2.3255 C   0  0  0  0  0  0  0  0  0  0  0  0
   -0.3953   -2.7634   -1.8925 C   0  0  0  0  0  0  0  0  0  0  0  0
    0.8436   -0.5588   -1.8485 C   0  0  0  0  0  0  0  0  0  0  0  0
    0.8856   -3.4710   -2.3561 C   0  0  0  0  0  0  0  0  0  0  0  0
    2.1225   -1.2679   -2.3139 C   0  0  0  0  0  0  0  0  0  0  0  0
    2.1487   -2.7401   -1.8691 C   0  0  0  0  0  0  0  0  0  0  0  0
    3.7787   -9.5253    0.5493 C   0  0  0  0  0  0  0  0  0  0  0  0
    3.4227   -3.4528   -2.3685 C   0  0  1  0  0  0  0  0  0  0  0  0
    6.1972   -1.7182   -0.7441 N   0  0  0  0  0  0  0  0  0  0  0  0
    4.6368   -2.7101   -1.9958 N   0  0  0  0  0  0  0  0  0  0  0  0
    4.5368   -9.8457   -1.6935 O   0  0  0  0  0  0  0  0  0  0  0  0
    3.1383   -6.9835    0.7225 H   0  0  0  0  0  0  0  0  0  0  0  0
    4.6149   -7.9076   -3.2061 H   0  0  0  0  0  0  0  0  0  0  0  0
    2.8239   -4.6456    0.0726 H   0  0  0  0  0  0  0  0  0  0  0  0
    4.3143   -5.5246   -3.8664 H   0  0  0  0  0  0  0  0  0  0  0  0
    7.2541   -0.8047   -2.3839 H   0  0  0  0  0  0  0  0  0  0  0  0
    5.3020   -2.0326   -3.9322 H   0  0  0  0  0  0  0  0  0  0  0  0
    4.6665   -2.9160    0.1481 H   0  0  0  0  0  0  0  0  0  0  0  0
   -1.3150   -0.7954   -1.9404 H   0  0  0  0  0  0  0  0  0  0  0  0
   -0.4732   -1.2387   -3.4217 H   0  0  0  0  0  0  0  0  0  0  0  0
   -0.4609   -2.8197   -0.7970 H   0  0  0  0  0  0  0  0  0  0  0  0
   -1.2722   -3.2909   -2.2851 H   0  0  0  0  0  0  0  0  0  0  0  0
    0.8433    0.4764   -2.2082 H   0  0  0  0  0  0  0  0  0  0  0  0
    0.8403   -0.5075   -0.7509 H   0  0  0  0  0  0  0  0  0  0  0  0
    0.8859   -4.5096   -2.0111 H   0  0  0  0  0  0  0  0  0  0  0  0
    0.9016   -3.5073   -3.4552 H   0  0  0  0  0  0  0  0  0  0  0  0
    2.1803   -1.2276   -3.4116 H   0  0  0  0  0  0  0  0  0  0  0  0
    3.0032   -0.7416   -1.9343 H   0  0  0  0  0  0  0  0  0  0  0  0
    2.1514   -2.7518   -0.7706 H   0  0  0  0  0  0  0  0  0  0  0  0
    2.7228   -9.3490    0.7816 H   0  0  0  0  0  0  0  0  0  0  0  0
    4.3731   -8.9815    1.2915 H   0  0  0  0  0  0  0  0  0  0  0  0
    3.9917  -10.5919    0.6266 H   0  0  0  0  0  0  0  0  0  0  0  0
    3.3985   -3.4310   -3.4623 H   0  0  0  0  0  0  0  0  0  0  0  0
  1  3  1  0  0  0  0
  1  8  2  0  0  0  0
  1 22  1  0  0  0  0
  2  4  2  0  0  0  0
  2  8  1  0  0  0  0
  2 23  1  0  0  0  0
  3  9  2  0  0  0  0
  3 24  1  0  0  0  0
  4  9  1  0  0  0  0
  4 25  1  0  0  0  0
  5  6  2  0  0  0  0
  5 19  1  0  0  0  0
  5 26  1  0  0  0  0
  6 20  1  0  0  0  0
  6 27  1  0  0  0  0
  7 19  2  0  0  0  0
  7 20  1  0  0  0  0
  7 28  1  0  0  0  0
  8 10  1  0  0  0  0
  9 18  1  0  0  0  0
 10 17  1  0  0  0  0
 10 21  2  0  0  0  0
 11 12  1  0  0  0  0
 11 13  1  0  0  0  0
 11 29  1  0  0  0  0
 11 30  1  0  0  0  0
 12 14  1  0  0  0  0
 12 31  1  0  0  0  0
 12 32  1  0  0  0  0
 13 15  1  0  0  0  0
 13 33  1  0  0  0  0
 13 34  1  0  0  0  0
 14 16  1  0  0  0  0
 14 35  1  0  0  0  0
 14 36  1  0  0  0  0
 15 16  1  0  0  0  0
 15 37  1  0  0  0  0
 15 38  1  0  0  0  0
 16 18  1  0  0  0  0
 16 39  1  0  0  0  0
 17 40  1  0  0  0  0
 17 41  1  0  0  0  0
 17 42  1  0  0  0  0
 18 20  1  0  0  0  0
 18 43  1  0  0  0  0
M  END
$$$$
