62
1 1 BrC21H30N6O3S
C                    -8.517763507186    -3.224807017220    -4.187896671049
C                   -10.082178831805    -4.775044620719    -3.157262197745
C                    -9.295969957416    -3.181887972546    -5.338099042027
C                   -10.859103085654    -4.730839913553    -4.314394996272
C                    -9.178900352980    -5.839998384595     0.829287714705
C                    -8.899753034808    -4.017153108978    -3.086235609188
C                   -10.470594491679    -3.935446009775    -5.392028777467
C                    -8.138632245598    -5.642926610551     1.718317716126
C                    -7.036397846687    -4.868693725537     1.271449554320
C                    -8.113699383970    -4.593663167935    -0.741376399006
C                    -3.887150434680    -4.887056359959     0.745500398720
C                    -3.967473904814    -3.422423155860     2.808052774692
C                    -2.611239710095    -4.171073683013     0.272279751583
C                    -2.680011966693    -2.718693169760     2.350570439896
C                     1.926731165405    -3.331439008642     0.613615351123
C                     0.771278044138    -1.188586134118    -0.002938039500
C                     0.567661067680    -4.015906319844     0.730098150951
C                    -0.573147677544    -1.897890684626     0.107490586738
C                    -4.759996498340    -3.960372097934     1.611214434188
C                    -1.839038479271    -3.668407202827     1.492502073186
C                     1.898217509763    -2.153346945454    -0.372909677496
N                    -9.186290439729    -5.322280183624    -0.409403351934
N                    -7.031729159579    -4.354796057025     0.037177858238
N                   -12.552523712532    -2.613602174126    -6.577549462089
N                    -8.033911631677    -4.003831713004    -1.980563304692
N                    -5.965262763814    -4.617023949905     2.083226445867
N                    -0.496837191036    -3.013811156694     1.131825776861
O                   -10.612093821342    -3.463296491397    -7.978737430191
O                   -12.262131701432    -5.126776779705    -6.908779708402
O                     3.097931589733    -1.399916122427    -0.325443196088
S                   -11.473355264508    -3.892491219180    -6.872451412425
Br                   -8.176205367461    -6.390632191252     3.478747444637
H                    -7.599438086046    -2.642542156097    -4.142399120456
H                   -10.377494879185    -5.388741724430    -2.318858770574
H                    -8.991046560191    -2.587236554617    -6.193045771204
H                   -11.759920366564    -5.332339445516    -4.385548926034
H                   -10.044353805714    -6.434451054146     1.114290923765
H                    -4.463799471448    -5.216036534189    -0.121575712430
H                    -3.624027623760    -5.782611851944     1.322379579948
H                    -3.710628479723    -4.249334203418     3.483914918309
H                    -4.582854993287    -2.721748189174     3.378812577115
H                    -2.005297920661    -4.855369720719    -0.329708184486
H                    -2.894102720136    -3.328427466428    -0.368110066654
H                    -2.949556930452    -1.824971673694     1.777227924595
H                    -2.110463276277    -2.386566798883     3.227855712966
H                     2.253563822095    -2.961807456964     1.593305595683
H                     2.657748915221    -4.083738392583     0.299846672153
H                     0.690855792494    -0.403254053449    -0.759321602569
H                     1.025206157602    -0.691270080041     0.941407141508
H                     0.245636192328    -4.449990205836    -0.218186632679
H                     0.573841645830    -4.802671735197     1.486882063039
H                    -1.363145513679    -1.214811955592     0.418260720086
H                    -0.864087492892    -2.362124256984    -0.835785127126
H                    -5.079339381877    -3.118205829203     0.988384012285
H                    -1.550172885127    -4.527025945586     2.107873943392
H                     1.715475642913    -2.539685706487    -1.387947864331
H                   -12.461285925385    -1.922265036750    -7.321301813853
H                   -13.504210899247    -2.976547201324    -6.533207655691
H                    -7.192684133902    -3.452173292265    -2.089852051468
H                    -5.930865382562    -5.134292196786     2.953549763010
H                    -0.165277441949    -2.578797019499     2.000565631744
H                     3.815612227012    -1.893094121844    -0.754576496980
