69
-1 1 C29H32N3O5
C                     1.799125187612    -7.666589906773    -5.049393762119
C                     3.168232417038    -7.467861421761    -7.015336546077
C                     3.032423255836   -10.704086125231     1.751934883791
C                     1.843540824814   -10.720864239040     1.041323635997
C                     2.407663601993    -6.531983679386    -4.498914422290
C                     3.787471916475    -6.346419128377    -6.482313153729
C                     4.074475304264   -12.154271584955     0.129059871012
C                     2.876208661550   -12.177994281803    -0.600739136061
C                     2.165683690809    -8.153887689025    -6.306470604100
C                     4.172299548481   -11.416019987962     1.303503289083
C                     1.756732452008   -11.457424638586    -0.159176637264
C                     3.411449766795    -5.873280821215    -5.214112964445
C                     2.751419970309   -12.945202259969    -1.835593641465
C                     1.529150690712    -9.348932473334    -6.957634073464
C                     2.656808964200   -10.713197419068    -4.701190828829
C                     5.239168055425    -0.331034916421    -2.267955621856
C                     5.497013725988    -1.514398881111    -1.323895879036
C                     5.378166869306    -0.752708993561    -3.737892277003
C                     0.020161667602   -11.416657916381    -6.943924467796
C                     4.594703599124    -2.710695873329    -1.659649119388
C                     4.474707930469    -1.948904801804    -4.067766993557
C                     0.598974615819   -12.646466484243    -6.231257430040
C                     0.546898932114   -10.200899209842    -6.139397552748
C                     1.101027345693   -10.756713656099    -4.789777983202
C                     4.738064934055    -3.137459815011    -3.129734870214
C                     0.587190860650   -12.223990978800    -4.755518092773
C                     5.465582552338   -11.342529740815     2.081468249293
C                     1.377959702689   -13.189851182251    -3.876123868598
C                     3.823722915536    -4.318703324283    -3.433777092132
N                     0.552792558629   -11.441376688784    -0.857623042920
N                     0.475010583760   -12.041799054076    -1.983105297384
N                     1.523439910798   -12.727954922131    -2.482610679293
O                     3.260657053417   -10.769268856390    -5.811059455687
O                     3.580948381269   -13.738916830453    -2.270946975959
O                     1.647025051975    -9.499595363667    -8.173777941636
O                     3.141019516022   -10.659963620453    -3.539192600398
O                     4.087967947275    -4.761868240468    -4.761552887893
H                     1.039412972885    -8.171449662452    -4.464431790589
H                     3.456980295712    -7.853004311090    -7.987909219566
H                     3.098105509115   -10.128110635801     2.673710974269
H                     0.968847371762   -10.171059362024     1.377361224431
H                     2.104349009324    -6.197039598615    -3.513455897421
H                     4.577455549494    -5.826439118172    -7.018263652775
H                     4.919487128193   -12.714582936815    -0.260732983136
H                     5.925964381366     0.493620248688    -2.039233758842
H                     4.222028595846     0.049804206404    -2.097578276873
H                     6.548218688040    -1.822450006699    -1.411440194464
H                     5.345558350448    -1.209659346508    -0.280997972588
H                     5.143453032193     0.090804438637    -4.398777747747
H                     6.424129711949    -1.024867425977    -3.937491962333
H                     0.318636421378   -11.348642705992    -7.991458501078
H                    -1.076179925018   -11.445768685004    -6.903851888505
H                     4.827242750740    -3.554896569138    -0.998794880683
H                     3.547161236592    -2.438313768289    -1.464032545631
H                     3.421490168811    -1.646805676270    -3.967203050751
H                     4.613383803374    -2.264291678226    -5.106063974039
H                     0.023790690828   -13.562155084135    -6.418670418213
H                     1.631922540761   -12.807451219492    -6.556297456595
H                    -0.289930446862    -9.521207352542    -5.922236920595
H                     0.697214110685   -10.218469269097    -3.929466513673
H                     5.771089409772    -3.477711453244    -3.289405473237
H                    -0.453195205624   -12.209112166669    -4.409102794185
H                     5.300626929510   -11.518345895084     3.150804510658
H                     6.187250672193   -12.081441163581     1.722755835432
H                     5.926822368128   -10.352310504921     1.981059487704
H                     2.395535601173   -13.307134367901    -4.248382086613
H                     0.906178195311   -14.180356353759    -3.873674286123
H                     2.769754971098    -4.015877802484    -3.338243941815
H                     4.006839778524    -5.137421724351    -2.724182197964
