34
0 1 C12H19NO2
C                    -1.532325960355    -2.426741392957     2.704203361089
C                    -1.670210231779    -3.782732912299     3.030427336984
C                     0.601336164374    -2.373841028902     3.796539256852
C                    -0.398099597537    -1.701028803431     3.074070301374
C                    -0.662401177153    -4.446040628223     3.737633477597
C                     0.485535971398    -3.719841994721     4.130164945520
C                    -1.588772960035    -7.973306923695     4.155122890148
C                     0.283356483665    -0.709406739919     0.224207743277
C                     1.240090031264    -4.730656204393     6.140624762326
C                    -0.219110258583    -0.254176578039     2.679507681979
C                    -1.814509464523    -6.552519337690     3.667022525987
C                     0.771851481731    -0.051758934103     1.514848814035
N                     0.921073486021     1.397963045761     1.287163207002
O                     1.528103030962    -4.331715596098     4.793392157716
O                    -0.692646051916    -5.770168948349     4.086467274790
H                    -2.325942675389    -1.935892360653     2.145978248048
H                    -2.563555477557    -4.311940725287     2.718578385932
H                     1.503094502285    -1.854933269312     4.113714646410
H                    -0.665628634253    -8.382606990821     3.735027126373
H                    -1.514289288511    -8.000235810010     5.246303438599
H                    -2.424420945596    -8.610965711266     3.848933521114
H                    -0.674763915692    -0.275392710610    -0.082107273594
H                     0.156403637553    -1.787036642245     0.357141154429
H                     1.002079515380    -0.552205309511    -0.588848333634
H                     2.166923113797    -5.150980413970     6.536868651804
H                     0.449985232539    -5.486435616425     6.171374731444
H                     0.946279662386    -3.861561483272     6.743376957289
H                    -1.178576784221     0.187042606459     2.389458911093
H                     0.143303421777     0.320127341126     3.542590796525
H                    -2.738299238333    -6.135631059866     4.090626390704
H                    -1.896165847383    -6.522597821954     2.572257585116
H                     1.724395268764    -0.530263844321     1.801282886522
H                     1.579574076787     1.557667944759     0.525553637969
H                     1.326926662133     1.836139863473     2.113550877132
