73
0 1 C33H35NO3S
C                    -6.972891099131     2.347733118695    -3.452286319225
C                    -5.636499774495     2.550172903405    -3.089226926249
C                    -7.948674449511     3.242572766207    -3.001540812495
C                    -3.888046717997   -11.008011441319     1.936436889294
C                    -5.229885562177   -11.397901235441     1.929949938707
C                    -5.283827182937     3.628914945725    -2.277576836145
C                    -7.590467981981     4.326924642596    -2.196171505537
C                    -4.791237961959     6.823992279239     2.305825670344
C                    -3.746590537443     7.657688474034     0.307222799208
C                    -3.539061136904     3.907934684562     1.238607112675
C                    -5.818711818537     3.218704476833     0.921171304428
C                    -4.266005185300     7.884990655135     3.038192155283
C                    -3.202946611395     8.723640292588     1.029527894963
C                    -3.228335470317     2.667556780895     1.805603840701
C                    -5.531240241211     1.985609184024     1.491897535849
C                    -3.578152081885    -9.676101681438     1.665902967414
C                    -6.197422267823   -10.429659750418     1.649151021418
C                    -4.559784327431     6.695609215295     0.923439569624
C                    -4.825109229937     4.205343638393     0.767728984881
C                    -6.255319773989     4.530178571737    -1.807632034072
C                    -3.467884928782     8.842666027042     2.398263996537
C                    -4.229691992041     1.695397283680     1.932289240651
C                    -4.621981842942    -8.776010045362     1.398983161838
C                    -5.120791960081     5.538304296589     0.169564999755
C                    -5.862132814254     5.692404700916    -0.960189196496
C                    -5.728708813494     7.430200308311    -2.827349607979
C                    -4.342953536726    -7.324397818042     1.127174256261
C                    -6.336759003688     7.039711316251    -1.469339526291
C                    -3.151266529988    -2.356897160916     2.403950021541
C                    -2.794757128481    -1.319931717299     3.474919725952
C                    -3.190533812692    -3.784088849524     2.963906242574
C                    -2.737831450971     0.104144530442     2.941664516943
C                    -3.574203171036    -4.807080326415     1.897274695893
N                    -5.912067383465    -9.146577658608     1.389554557470
O                    -4.800550798229    -6.428364087445     3.668597489660
O                    -2.966306606277     9.866762224861     3.166854862924
O                    -4.044312621306     0.453065361412     2.476460772254
S                    -3.674268279652    -6.488543654456     2.654323455884
H                    -7.249798431337     1.505676590734    -4.081453294261
H                    -4.867593502615     1.865864371826    -3.439470308654
H                    -8.990530178485     3.095807101986    -3.275801819430
H                    -3.100540221711   -11.726402790050     2.149159629688
H                    -5.523426315266   -12.423103609425     2.136314662540
H                    -4.246362248951     3.777555167297    -1.993383776227
H                    -8.362824140017     5.007163415126    -1.846490352751
H                    -5.397371107165     6.077401166911     2.811666044313
H                    -3.521571247996     7.565255899998    -0.751023331307
H                    -2.757379516430     4.658543193854     1.158307513725
H                    -6.830779479684     3.424816322753     0.588629899865
H                    -4.458513615542     7.985893498903     4.102365462150
H                    -2.568796438068     9.453480840072     0.527867565867
H                    -2.216519342974     2.479894968306     2.146511949724
H                    -6.302320108484     1.230042480064     1.612448941119
H                    -2.546960612525    -9.332142421287     1.667861510480
H                    -7.253513721031   -10.694568058164     1.632910673367
H                    -5.954660820109     6.680490532426    -3.591622689958
H                    -4.639020137310     7.517874288031    -2.761892434934
H                    -6.125802238774     8.392922945994    -3.166844999060
H                    -3.583357412895    -7.191186297807     0.349458310971
H                    -5.268832364578    -6.814773827017     0.852499406288
H                    -6.134777280063     7.817092202406    -0.730438538900
H                    -7.427869631955     7.000502010203    -1.584057239657
H                    -4.124946744921    -2.103437067653     1.971287913002
H                    -2.420518401253    -2.299426171582     1.585239892513
H                    -3.524744152217    -1.362181389844     4.291692674797
H                    -1.815182842524    -1.553292485327     3.911772986791
H                    -2.211854661737    -4.042765497645     3.388938388333
H                    -3.917270021446    -3.843511650790     3.781154741812
H                    -2.017377422390     0.179917436405     2.114725079028
H                    -2.427697986600     0.800052568270     3.732681230880
H                    -4.561068920985    -4.586315896914     1.476708572955
H                    -2.836007555699    -4.851785889227     1.087971295048
H                    -2.439507946625    10.455334089861     2.603430679040
