
  -OEChem-05262117483D

 73 76  0     1  0  0  0  0  0999 V2000
   -6.9729    2.3477   -3.4523 C   0  0  0  0  0  0  0  0  0  0  0  0
   -5.6365    2.5502   -3.0892 C   0  0  0  0  0  0  0  0  0  0  0  0
   -7.9487    3.2426   -3.0015 C   0  0  0  0  0  0  0  0  0  0  0  0
   -3.8880  -11.0080    1.9364 C   0  0  0  0  0  0  0  0  0  0  0  0
   -5.2299  -11.3979    1.9299 C   0  0  0  0  0  0  0  0  0  0  0  0
   -5.2838    3.6289   -2.2776 C   0  0  0  0  0  0  0  0  0  0  0  0
   -7.5905    4.3269   -2.1962 C   0  0  0  0  0  0  0  0  0  0  0  0
   -4.7912    6.8240    2.3058 C   0  0  0  0  0  0  0  0  0  0  0  0
   -3.7466    7.6577    0.3072 C   0  0  0  0  0  0  0  0  0  0  0  0
   -3.5391    3.9079    1.2386 C   0  0  0  0  0  0  0  0  0  0  0  0
   -5.8187    3.2187    0.9212 C   0  0  0  0  0  0  0  0  0  0  0  0
   -4.2660    7.8850    3.0382 C   0  0  0  0  0  0  0  0  0  0  0  0
   -3.2029    8.7236    1.0295 C   0  0  0  0  0  0  0  0  0  0  0  0
   -3.2283    2.6676    1.8056 C   0  0  0  0  0  0  0  0  0  0  0  0
   -5.5312    1.9856    1.4919 C   0  0  0  0  0  0  0  0  0  0  0  0
   -3.5782   -9.6761    1.6659 C   0  0  0  0  0  0  0  0  0  0  0  0
   -6.1974  -10.4297    1.6492 C   0  0  0  0  0  0  0  0  0  0  0  0
   -4.5598    6.6956    0.9234 C   0  0  0  0  0  0  0  0  0  0  0  0
   -4.8251    4.2053    0.7677 C   0  0  0  0  0  0  0  0  0  0  0  0
   -6.2553    4.5302   -1.8076 C   0  0  0  0  0  0  0  0  0  0  0  0
   -3.4679    8.8427    2.3983 C   0  0  0  0  0  0  0  0  0  0  0  0
   -4.2297    1.6954    1.9323 C   0  0  0  0  0  0  0  0  0  0  0  0
   -4.6220   -8.7760    1.3990 C   0  0  0  0  0  0  0  0  0  0  0  0
   -5.1208    5.5383    0.1696 C   0  0  0  0  0  0  0  0  0  0  0  0
   -5.8621    5.6924   -0.9602 C   0  0  0  0  0  0  0  0  0  0  0  0
   -5.7287    7.4302   -2.8273 C   0  0  0  0  0  0  0  0  0  0  0  0
   -4.3430   -7.3244    1.1272 C   0  0  0  0  0  0  0  0  0  0  0  0
   -6.3368    7.0397   -1.4693 C   0  0  0  0  0  0  0  0  0  0  0  0
   -3.1513   -2.3569    2.4039 C   0  0  0  0  0  0  0  0  0  0  0  0
   -2.7948   -1.3199    3.4749 C   0  0  0  0  0  0  0  0  0  0  0  0
   -3.1905   -3.7841    2.9639 C   0  0  0  0  0  0  0  0  0  0  0  0
   -2.7378    0.1041    2.9417 C   0  0  0  0  0  0  0  0  0  0  0  0
   -3.5742   -4.8071    1.8973 C   0  0  0  0  0  0  0  0  0  0  0  0
   -5.9121   -9.1466    1.3896 N   0  0  0  0  0  0  0  0  0  0  0  0
   -4.8006   -6.4284    3.6686 O   0  0  0  0  0  0  0  0  0  0  0  0
   -2.9663    9.8668    3.1669 O   0  0  0  0  0  0  0  0  0  0  0  0
   -4.0443    0.4531    2.4765 O   0  0  0  0  0  0  0  0  0  0  0  0
   -3.6743   -6.4885    2.6543 S   0  0  1  0  0  0  0  0  0  0  0  0
   -7.2498    1.5057   -4.0815 H   0  0  0  0  0  0  0  0  0  0  0  0
   -4.8676    1.8659   -3.4395 H   0  0  0  0  0  0  0  0  0  0  0  0
   -8.9905    3.0958   -3.2758 H   0  0  0  0  0  0  0  0  0  0  0  0
   -3.1005  -11.7264    2.1492 H   0  0  0  0  0  0  0  0  0  0  0  0
   -5.5234  -12.4231    2.1363 H   0  0  0  0  0  0  0  0  0  0  0  0
   -4.2464    3.7776   -1.9934 H   0  0  0  0  0  0  0  0  0  0  0  0
   -8.3628    5.0072   -1.8465 H   0  0  0  0  0  0  0  0  0  0  0  0
   -5.3974    6.0774    2.8117 H   0  0  0  0  0  0  0  0  0  0  0  0
   -3.5216    7.5653   -0.7510 H   0  0  0  0  0  0  0  0  0  0  0  0
   -2.7574    4.6585    1.1583 H   0  0  0  0  0  0  0  0  0  0  0  0
   -6.8308    3.4248    0.5886 H   0  0  0  0  0  0  0  0  0  0  0  0
   -4.4585    7.9859    4.1024 H   0  0  0  0  0  0  0  0  0  0  0  0
   -2.5688    9.4535    0.5279 H   0  0  0  0  0  0  0  0  0  0  0  0
   -2.2165    2.4799    2.1465 H   0  0  0  0  0  0  0  0  0  0  0  0
   -6.3023    1.2300    1.6124 H   0  0  0  0  0  0  0  0  0  0  0  0
   -2.5470   -9.3321    1.6679 H   0  0  0  0  0  0  0  0  0  0  0  0
   -7.2535  -10.6946    1.6329 H   0  0  0  0  0  0  0  0  0  0  0  0
   -5.9547    6.6805   -3.5916 H   0  0  0  0  0  0  0  0  0  0  0  0
   -4.6390    7.5179   -2.7619 H   0  0  0  0  0  0  0  0  0  0  0  0
   -6.1258    8.3929   -3.1668 H   0  0  0  0  0  0  0  0  0  0  0  0
   -3.5834   -7.1912    0.3495 H   0  0  0  0  0  0  0  0  0  0  0  0
   -5.2688   -6.8148    0.8525 H   0  0  0  0  0  0  0  0  0  0  0  0
   -6.1348    7.8171   -0.7304 H   0  0  0  0  0  0  0  0  0  0  0  0
   -7.4279    7.0005   -1.5841 H   0  0  0  0  0  0  0  0  0  0  0  0
   -4.1249   -2.1034    1.9713 H   0  0  0  0  0  0  0  0  0  0  0  0
   -2.4205   -2.2994    1.5852 H   0  0  0  0  0  0  0  0  0  0  0  0
   -3.5247   -1.3622    4.2917 H   0  0  0  0  0  0  0  0  0  0  0  0
   -1.8152   -1.5533    3.9118 H   0  0  0  0  0  0  0  0  0  0  0  0
   -2.2119   -4.0428    3.3889 H   0  0  0  0  0  0  0  0  0  0  0  0
   -3.9173   -3.8435    3.7812 H   0  0  0  0  0  0  0  0  0  0  0  0
   -2.0174    0.1799    2.1147 H   0  0  0  0  0  0  0  0  0  0  0  0
   -2.4277    0.8001    3.7327 H   0  0  0  0  0  0  0  0  0  0  0  0
   -4.5611   -4.5863    1.4767 H   0  0  0  0  0  0  0  0  0  0  0  0
   -2.8360   -4.8518    1.0880 H   0  0  0  0  0  0  0  0  0  0  0  0
   -2.4395   10.4553    2.6034 H   0  0  0  0  0  0  0  0  0  0  0  0
  1  2  1  0  0  0  0
  1  3  2  0  0  0  0
  1 39  1  0  0  0  0
  2  6  2  0  0  0  0
  2 40  1  0  0  0  0
  3  7  1  0  0  0  0
  3 41  1  0  0  0  0
  4  5  1  0  0  0  0
  4 16  2  0  0  0  0
  4 42  1  0  0  0  0
  5 17  2  0  0  0  0
  5 43  1  0  0  0  0
  6 20  1  0  0  0  0
  6 44  1  0  0  0  0
  7 20  2  0  0  0  0
  7 45  1  0  0  0  0
  8 12  2  0  0  0  0
  8 18  1  0  0  0  0
  8 46  1  0  0  0  0
  9 13  1  0  0  0  0
  9 18  2  0  0  0  0
  9 47  1  0  0  0  0
 10 14  2  0  0  0  0
 10 19  1  0  0  0  0
 10 48  1  0  0  0  0
 11 15  1  0  0  0  0
 11 19  2  0  0  0  0
 11 49  1  0  0  0  0
 12 21  1  0  0  0  0
 12 50  1  0  0  0  0
 13 21  2  0  0  0  0
 13 51  1  0  0  0  0
 14 22  1  0  0  0  0
 14 52  1  0  0  0  0
 15 22  2  0  0  0  0
 15 53  1  0  0  0  0
 16 23  1  0  0  0  0
 16 54  1  0  0  0  0
 17 34  1  0  0  0  0
 17 55  1  0  0  0  0
 18 24  1  0  0  0  0
 19 24  1  0  0  0  0
 20 25  1  0  0  0  0
 21 36  1  0  0  0  0
 22 37  1  0  0  0  0
 23 27  1  0  0  0  0
 23 34  2  0  0  0  0
 24 25  2  0  0  0  0
 25 28  1  0  0  0  0
 26 28  1  0  0  0  0
 26 56  1  0  0  0  0
 26 57  1  0  0  0  0
 26 58  1  0  0  0  0
 27 38  1  0  0  0  0
 27 59  1  0  0  0  0
 27 60  1  0  0  0  0
 28 61  1  0  0  0  0
 28 62  1  0  0  0  0
 29 30  1  0  0  0  0
 29 31  1  0  0  0  0
 29 63  1  0  0  0  0
 29 64  1  0  0  0  0
 30 32  1  0  0  0  0
 30 65  1  0  0  0  0
 30 66  1  0  0  0  0
 31 33  1  0  0  0  0
 31 67  1  0  0  0  0
 31 68  1  0  0  0  0
 32 37  1  0  0  0  0
 32 69  1  0  0  0  0
 32 70  1  0  0  0  0
 33 38  1  0  0  0  0
 33 71  1  0  0  0  0
 33 72  1  0  0  0  0
 35 38  2  0  0  0  0
 36 73  1  0  0  0  0
M  END
$$$$
