
  -OEChem-05262117483D

 26 26  0     0  0  0  0  0  0999 V2000
    1.8253   -0.7517   -0.2685 C   0  0  0  0  0  0  0  0  0  0  0  0
    0.8943    0.0079    0.4446 C   0  0  0  0  0  0  0  0  0  0  0  0
    2.7628   -1.5259    0.4148 C   0  0  0  0  0  0  0  0  0  0  0  0
    0.9007   -0.0269    1.8383 C   0  0  0  0  0  0  0  0  0  0  0  0
    2.7988   -1.5697    1.8173 C   0  0  0  0  0  0  0  0  0  0  0  0
    1.8348   -0.8161    2.5149 C   0  0  0  0  0  0  0  0  0  0  0  0
    4.1096   -4.4150    4.4987 C   0  0  0  0  0  0  0  0  0  0  0  0
    3.8572   -2.4151    2.4661 C   0  0  0  0  0  0  0  0  0  0  0  0
    0.3051   -1.7368    4.5035 N   0  0  0  0  0  0  0  0  0  0  0  0
    2.8717   -1.4038    4.9162 O   0  0  0  0  0  0  0  0  0  0  0  0
    1.2885    0.5615    4.7443 O   0  0  0  0  0  0  0  0  0  0  0  0
    1.7716   -3.9303    3.3384 O   0  0  0  0  0  0  0  0  0  0  0  0
    3.5884   -5.0444    1.9518 O   0  0  0  0  0  0  0  0  0  0  0  0
    1.6758   -0.7844    4.3158 S   0  0  0  0  0  0  0  0  0  0  0  0
    3.1998   -4.0666    2.9810 S   0  0  0  0  0  0  0  0  0  0  0  0
    1.8254   -0.7399   -1.3548 H   0  0  0  0  0  0  0  0  0  0  0  0
    0.1653    0.6206   -0.0777 H   0  0  0  0  0  0  0  0  0  0  0  0
    3.4867   -2.1129   -0.1437 H   0  0  0  0  0  0  0  0  0  0  0  0
    0.1837    0.5532    2.4098 H   0  0  0  0  0  0  0  0  0  0  0  0
    3.7802   -5.4027    4.8270 H   0  0  0  0  0  0  0  0  0  0  0  0
    5.1774   -4.4286    4.2728 H   0  0  0  0  0  0  0  0  0  0  0  0
    3.8558   -3.6460    5.2287 H   0  0  0  0  0  0  0  0  0  0  0  0
    4.2651   -1.9542    3.3630 H   0  0  0  0  0  0  0  0  0  0  0  0
    4.6535   -2.6553    1.7606 H   0  0  0  0  0  0  0  0  0  0  0  0
    0.5429   -2.7190    4.3345 H   0  0  0  0  0  0  0  0  0  0  0  0
   -0.0821   -1.5795    5.4346 H   0  0  0  0  0  0  0  0  0  0  0  0
  1  2  1  0  0  0  0
  1  3  2  0  0  0  0
  1 16  1  0  0  0  0
  2  4  2  0  0  0  0
  2 17  1  0  0  0  0
  3  5  1  0  0  0  0
  3 18  1  0  0  0  0
  4  6  1  0  0  0  0
  4 19  1  0  0  0  0
  5  6  2  0  0  0  0
  5  8  1  0  0  0  0
  6 14  1  0  0  0  0
  7 15  1  0  0  0  0
  7 20  1  0  0  0  0
  7 21  1  0  0  0  0
  7 22  1  0  0  0  0
  8 15  1  0  0  0  0
  8 23  1  0  0  0  0
  8 24  1  0  0  0  0
  9 14  1  0  0  0  0
  9 25  1  0  0  0  0
  9 26  1  0  0  0  0
 10 14  2  0  0  0  0
 11 14  2  0  0  0  0
 12 15  2  0  0  0  0
 13 15  2  0  0  0  0
M  END
$$$$
