
  -OEChem-05262117483D

 70 74  0     1  0  0  0  0  0999 V2000
    2.9497   -7.7198   -4.4854 C   0  0  0  0  0  0  0  0  0  0  0  0
    4.5702   -6.7728   -6.0045 C   0  0  0  0  0  0  0  0  0  0  0  0
   -2.8217  -17.3521   -5.6395 C   0  0  0  0  0  0  0  0  0  0  0  0
   -2.3813  -16.3985   -4.7369 C   0  0  0  0  0  0  0  0  0  0  0  0
    3.4692   -6.9550   -3.4492 C   0  0  0  0  0  0  0  0  0  0  0  0
    5.1090   -6.0075   -4.9739 C   0  0  0  0  0  0  0  0  0  0  0  0
   -0.9774  -16.8717   -7.1232 C   0  0  0  0  0  0  0  0  0  0  0  0
   -0.5188  -15.9025   -6.2165 C   0  0  0  0  0  0  0  0  0  0  0  0
    3.4918   -7.6461   -5.7856 C   0  0  0  0  0  0  0  0  0  0  0  0
   -2.1276  -17.6060   -6.8488 C   0  0  0  0  0  0  0  0  0  0  0  0
   -1.2151  -15.6587   -5.0202 C   0  0  0  0  0  0  0  0  0  0  0  0
    4.5577   -6.0944   -3.6823 C   0  0  0  0  0  0  0  0  0  0  0  0
    0.6824  -15.1150   -6.4899 C   0  0  0  0  0  0  0  0  0  0  0  0
    2.9845   -8.4474   -6.9407 C   0  0  0  0  0  0  0  0  0  0  0  0
    4.1141  -11.1519   -6.3753 C   0  0  0  0  0  0  0  0  0  0  0  0
    8.2746   -3.1510    0.7858 C   0  0  0  0  0  0  0  0  0  0  0  0
    7.8365   -2.1073   -0.2510 C   0  0  0  0  0  0  0  0  0  0  0  0
    7.2136   -4.2476    0.9530 C   0  0  0  0  0  0  0  0  0  0  0  0
    1.5269  -10.3458   -7.9089 C   0  0  0  0  0  0  0  0  0  0  0  0
    7.4835   -2.7612   -1.5947 C   0  0  0  0  0  0  0  0  0  0  0  0
    6.8628   -4.9002   -0.3912 C   0  0  0  0  0  0  0  0  0  0  0  0
    1.2034  -11.7979   -7.4704 C   0  0  0  0  0  0  0  0  0  0  0  0
    2.0746   -9.6391   -6.6552 C   0  0  1  0  0  0  0  0  0  0  0  0
    2.7316  -10.7943   -5.8288 C   0  0  1  0  0  0  0  0  0  0  0  0
    6.4163   -3.8566   -1.4282 C   0  0  0  0  0  0  0  0  0  0  0  0
    1.6818  -11.9112   -6.0025 C   0  0  2  0  0  0  0  0  0  0  0  0
   -2.6416  -18.6526   -7.8072 C   0  0  0  0  0  0  0  0  0  0  0  0
    2.1313  -13.3073   -5.5642 C   0  0  0  0  0  0  0  0  0  0  0  0
    6.1043   -4.4904   -2.7767 C   0  0  0  0  0  0  0  0  0  0  0  0
   -0.8000  -14.7061   -4.0911 N   0  0  0  0  0  0  0  0  0  0  0  0
    0.2478  -14.0221   -4.3135 N   0  0  0  0  0  0  0  0  0  0  0  0
    0.9776  -14.2132   -5.4548 N   0  0  0  0  0  0  0  0  0  0  0  0
    1.3805  -15.1999   -7.4964 O   0  0  0  0  0  0  0  0  0  0  0  0
    3.3247   -8.1746   -8.0860 O   0  0  0  0  0  0  0  0  0  0  0  0
    4.3321  -12.0340   -7.1742 O   0  0  0  0  0  0  0  0  0  0  0  0
    5.1471  -10.3976   -5.9023 O   0  0  0  0  0  0  0  0  0  0  0  0
    5.0001   -5.3960   -2.6079 O   0  0  0  0  0  0  0  0  0  0  0  0
    2.1004   -8.3623   -4.2759 H   0  0  0  0  0  0  0  0  0  0  0  0
    4.9872   -6.7161   -7.0052 H   0  0  0  0  0  0  0  0  0  0  0  0
   -3.7216  -17.9221   -5.4186 H   0  0  0  0  0  0  0  0  0  0  0  0
   -2.9104  -16.2014   -3.8093 H   0  0  0  0  0  0  0  0  0  0  0  0
    3.0484   -7.0001   -2.4493 H   0  0  0  0  0  0  0  0  0  0  0  0
    5.9486   -5.3540   -5.1791 H   0  0  0  0  0  0  0  0  0  0  0  0
   -0.4115  -17.0288   -8.0368 H   0  0  0  0  0  0  0  0  0  0  0  0
    8.4762   -2.6662    1.7481 H   0  0  0  0  0  0  0  0  0  0  0  0
    9.2191   -3.6089    0.4605 H   0  0  0  0  0  0  0  0  0  0  0  0
    6.9579   -1.5674    0.1276 H   0  0  0  0  0  0  0  0  0  0  0  0
    8.6249   -1.3598   -0.3964 H   0  0  0  0  0  0  0  0  0  0  0  0
    7.5625   -5.0104    1.6585 H   0  0  0  0  0  0  0  0  0  0  0  0
    6.3055   -3.8096    1.3897 H   0  0  0  0  0  0  0  0  0  0  0  0
    2.2906  -10.3341   -8.6881 H   0  0  0  0  0  0  0  0  0  0  0  0
    0.6586   -9.8134   -8.3052 H   0  0  0  0  0  0  0  0  0  0  0  0
    7.1353   -1.9995   -2.3036 H   0  0  0  0  0  0  0  0  0  0  0  0
    8.3911   -3.2047   -2.0291 H   0  0  0  0  0  0  0  0  0  0  0  0
    7.7463   -5.4280   -0.7795 H   0  0  0  0  0  0  0  0  0  0  0  0
    6.0785   -5.6522   -0.2596 H   0  0  0  0  0  0  0  0  0  0  0  0
    0.1363  -12.0254   -7.5470 H   0  0  0  0  0  0  0  0  0  0  0  0
    1.7346  -12.5178   -8.0940 H   0  0  0  0  0  0  0  0  0  0  0  0
    1.2363   -9.2804   -6.0450 H   0  0  0  0  0  0  0  0  0  0  0  0
    2.8390  -10.5199   -4.7745 H   0  0  0  0  0  0  0  0  0  0  0  0
    5.4921   -3.3836   -1.0674 H   0  0  0  0  0  0  0  0  0  0  0  0
    0.8541  -11.6285   -5.3394 H   0  0  0  0  0  0  0  0  0  0  0  0
   -3.6463  -18.3979   -8.1629 H   0  0  0  0  0  0  0  0  0  0  0  0
   -1.9898  -18.7519   -8.6784 H   0  0  0  0  0  0  0  0  0  0  0  0
   -2.7087  -19.6317   -7.3199 H   0  0  0  0  0  0  0  0  0  0  0  0
    2.5979  -13.2723   -4.5764 H   0  0  0  0  0  0  0  0  0  0  0  0
    2.8259  -13.7416   -6.2794 H   0  0  0  0  0  0  0  0  0  0  0  0
    6.9760   -5.0430   -3.1525 H   0  0  0  0  0  0  0  0  0  0  0  0
    5.8331   -3.7232   -3.5136 H   0  0  0  0  0  0  0  0  0  0  0  0
    4.8153   -9.6794   -5.3330 H   0  0  0  0  0  0  0  0  0  0  0  0
  1  5  1  0  0  0  0
  1  9  2  0  0  0  0
  1 38  1  0  0  0  0
  2  6  2  0  0  0  0
  2  9  1  0  0  0  0
  2 39  1  0  0  0  0
  3  4  2  0  0  0  0
  3 10  1  0  0  0  0
  3 40  1  0  0  0  0
  4 11  1  0  0  0  0
  4 41  1  0  0  0  0
  5 12  2  0  0  0  0
  5 42  1  0  0  0  0
  6 12  1  0  0  0  0
  6 43  1  0  0  0  0
  7  8  1  0  0  0  0
  7 10  2  0  0  0  0
  7 44  1  0  0  0  0
  8 11  2  0  0  0  0
  8 13  1  0  0  0  0
  9 14  1  0  0  0  0
 10 27  1  0  0  0  0
 11 30  1  0  0  0  0
 12 37  1  0  0  0  0
 13 32  1  0  0  0  0
 13 33  2  0  0  0  0
 14 23  1  0  0  0  0
 14 34  2  0  0  0  0
 15 24  1  0  0  0  0
 15 35  2  0  0  0  0
 15 36  1  0  0  0  0
 16 17  1  0  0  0  0
 16 18  1  0  0  0  0
 16 45  1  0  0  0  0
 16 46  1  0  0  0  0
 17 20  1  0  0  0  0
 17 47  1  0  0  0  0
 17 48  1  0  0  0  0
 18 21  1  0  0  0  0
 18 49  1  0  0  0  0
 18 50  1  0  0  0  0
 19 22  1  0  0  0  0
 19 23  1  0  0  0  0
 19 51  1  0  0  0  0
 19 52  1  0  0  0  0
 20 25  1  0  0  0  0
 20 53  1  0  0  0  0
 20 54  1  0  0  0  0
 21 25  1  0  0  0  0
 21 55  1  0  0  0  0
 21 56  1  0  0  0  0
 22 26  1  0  0  0  0
 22 57  1  0  0  0  0
 22 58  1  0  0  0  0
 23 24  1  0  0  0  0
 23 59  1  0  0  0  0
 24 26  1  0  0  0  0
 24 60  1  0  0  0  0
 25 29  1  0  0  0  0
 25 61  1  0  0  0  0
 26 28  1  0  0  0  0
 26 62  1  0  0  0  0
 27 63  1  0  0  0  0
 27 64  1  0  0  0  0
 27 65  1  0  0  0  0
 28 32  1  0  0  0  0
 28 66  1  0  0  0  0
 28 67  1  0  0  0  0
 29 37  1  0  0  0  0
 29 68  1  0  0  0  0
 29 69  1  0  0  0  0
 30 31  2  0  0  0  0
 31 32  1  0  0  0  0
 36 70  1  0  0  0  0
M  END
$$$$
