
  -OEChem-05262117483D

 40 42  0     1  0  0  0  0  0999 V2000
    5.0069   -3.0525   -0.0162 C   0  0  0  0  0  0  0  0  0  0  0  0
    5.8864   -2.1268   -0.6038 C   0  0  0  0  0  0  0  0  0  0  0  0
    3.6471   -2.7959    0.0140 C   0  0  0  0  0  0  0  0  0  0  0  0
    5.3134   -0.9744   -1.1285 C   0  0  0  0  0  0  0  0  0  0  0  0
    3.1684   -1.5865   -0.5630 C   0  0  0  0  0  0  0  0  0  0  0  0
   -0.1087    0.7109    0.9730 C   0  0  0  0  0  0  0  0  0  0  0  0
   -2.3452    1.1658   -0.8365 C   0  0  0  0  0  0  0  0  0  0  0  0
   -0.9589    0.9344   -1.4285 C   0  0  0  0  0  0  0  0  0  0  0  0
   -0.4832   -1.3582   -0.3540 C   0  0  0  0  0  0  0  0  0  0  0  0
   -2.2217    1.9759    0.4470 C   0  0  0  0  0  0  0  0  0  0  0  0
    0.8069   -2.0767    0.0499 C   0  0  0  0  0  0  0  0  0  0  0  0
    1.3816    0.0644   -0.9524 C   0  0  0  0  0  0  0  0  0  0  0  0
   -0.0789    0.1413   -0.4564 C   0  0  2  0  0  0  0  0  0  0  0  0
   -1.2354    2.0016    2.7070 C   0  0  0  0  0  0  0  0  0  0  0  0
    6.1689    0.0965   -1.7809 C   0  0  0  0  0  0  0  0  0  0  0  0
    4.0086   -0.6935   -1.1211 N   0  0  0  0  0  0  0  0  0  0  0  0
    1.8424   -1.2772   -0.5928 N   0  0  0  0  0  0  0  0  0  0  0  0
   -1.2043    1.4443    1.3580 N   0  0  0  0  0  0  0  0  0  0  0  0
    0.8004    0.4370    1.7626 O   0  0  0  0  0  0  0  0  0  0  0  0
    7.4875   -0.2296   -1.7638 F   0  0  0  0  0  0  0  0  0  0  0  0
    5.8268    0.2921   -3.0773 F   0  0  0  0  0  0  0  0  0  0  0  0
    6.0473    1.2897   -1.1533 F   0  0  0  0  0  0  0  0  0  0  0  0
    5.3933   -3.9687    0.4228 H   0  0  0  0  0  0  0  0  0  0  0  0
    6.9554   -2.2954   -0.6427 H   0  0  0  0  0  0  0  0  0  0  0  0
    2.9639   -3.4962    0.4806 H   0  0  0  0  0  0  0  0  0  0  0  0
   -2.9883    1.7086   -1.5369 H   0  0  0  0  0  0  0  0  0  0  0  0
   -2.8317    0.2064   -0.6278 H   0  0  0  0  0  0  0  0  0  0  0  0
   -1.0192    0.3986   -2.3824 H   0  0  0  0  0  0  0  0  0  0  0  0
   -0.4876    1.9035   -1.6397 H   0  0  0  0  0  0  0  0  0  0  0  0
   -0.8093   -1.7017   -1.3421 H   0  0  0  0  0  0  0  0  0  0  0  0
   -1.2948   -1.5412    0.3542 H   0  0  0  0  0  0  0  0  0  0  0  0
   -1.9782    3.0225    0.2059 H   0  0  0  0  0  0  0  0  0  0  0  0
   -3.1772    1.9894    0.9837 H   0  0  0  0  0  0  0  0  0  0  0  0
    0.9343   -2.0821    1.1399 H   0  0  0  0  0  0  0  0  0  0  0  0
    0.8230   -3.1105   -0.3132 H   0  0  0  0  0  0  0  0  0  0  0  0
    1.4263    0.2039   -2.0394 H   0  0  0  0  0  0  0  0  0  0  0  0
    2.0167    0.8244   -0.4932 H   0  0  0  0  0  0  0  0  0  0  0  0
   -1.0791    3.0882    2.6820 H   0  0  0  0  0  0  0  0  0  0  0  0
   -0.4458    1.5431    3.2992 H   0  0  0  0  0  0  0  0  0  0  0  0
   -2.2087    1.8009    3.1685 H   0  0  0  0  0  0  0  0  0  0  0  0
  1  2  1  0  0  0  0
  1  3  2  0  0  0  0
  1 23  1  0  0  0  0
  2  4  2  0  0  0  0
  2 24  1  0  0  0  0
  3  5  1  0  0  0  0
  3 25  1  0  0  0  0
  4 15  1  0  0  0  0
  4 16  1  0  0  0  0
  5 16  2  0  0  0  0
  5 17  1  0  0  0  0
  6 13  1  0  0  0  0
  6 18  1  0  0  0  0
  6 19  2  0  0  0  0
  7  8  1  0  0  0  0
  7 10  1  0  0  0  0
  7 26  1  0  0  0  0
  7 27  1  0  0  0  0
  8 13  1  0  0  0  0
  8 28  1  0  0  0  0
  8 29  1  0  0  0  0
  9 11  1  0  0  0  0
  9 13  1  0  0  0  0
  9 30  1  0  0  0  0
  9 31  1  0  0  0  0
 10 18  1  0  0  0  0
 10 32  1  0  0  0  0
 10 33  1  0  0  0  0
 11 17  1  0  0  0  0
 11 34  1  0  0  0  0
 11 35  1  0  0  0  0
 12 13  1  0  0  0  0
 12 17  1  0  0  0  0
 12 36  1  0  0  0  0
 12 37  1  0  0  0  0
 14 18  1  0  0  0  0
 14 38  1  0  0  0  0
 14 39  1  0  0  0  0
 14 40  1  0  0  0  0
 15 20  1  0  0  0  0
 15 21  1  0  0  0  0
 15 22  1  0  0  0  0
M  END
$$$$
