20
0 1 C7F3H7N2O
C                     1.954258545854    -0.913704635153     0.000260487482
C                     0.805622004951    -0.411969004139     0.609633218528
C                     2.970166133804    -1.508197675634     0.756911687218
C                     1.655386750417    -1.091862414454     2.778847738440
C                     0.643438498108    -0.500860853459     2.005731576094
C                     2.789284901654    -1.574617945910     2.135345649107
C                     4.777230747028    -1.455598122365     3.402584714990
N                    -0.521017938386     0.201071586449     3.981800509943
N                    -0.550164421179    -0.045352900002     2.588726823478
O                     3.773778990473    -2.222259820313     2.921067341789
F                     5.509585394274    -0.867150725136     2.424862745066
F                     5.592760028885    -2.245212606653     4.116062134726
F                     4.341224741237    -0.458806748936     4.210998537194
H                     2.061443956095    -0.841111766720    -1.078552247621
H                     0.024016294948     0.041855837698     0.003709320576
H                     3.870824010663    -1.904354859426     0.301049153280
H                     1.548597963787    -1.166848365112     3.853613654326
H                    -1.433080346150    -0.024096407086     4.369876713219
H                    -0.300348411526     1.177147550660     4.185192400874
H                    -1.016616627203     0.666114228428     2.031042466045
