18
0 1 C7ClF3H3NO3
C                     2.017084734475    -0.959209536017    -0.046687696599
C                     0.875044847887    -0.430026075764     0.553689191203
C                     1.693959625617    -1.123040371517     2.730158048035
C                     2.847797200611    -1.615645891153     2.120259103170
C                     3.018115912759    -1.539513583904     0.732037490176
C                     0.721036859069    -0.515292875979     1.940556846094
C                     5.056554773346    -1.341057984996    -0.443380603524
N                     3.868061964920    -2.219996899807     2.998797182119
O                     3.457630045950    -2.774548443484     4.023078745423
O                     5.049481811915    -2.111722368781     2.671284008828
O                     4.113087592583    -2.148059369723     0.129798544189
F                     5.379139459977    -0.288173007011     0.324849559801
F                     4.628564172430    -0.844608437433    -1.633803469406
F                     6.139609403553    -2.080964049247    -0.667926612749
Cl                   -0.714502144946     0.134028845020     2.694293512382
H                     2.136377274787    -0.930943006132    -1.124177451632
H                     0.102624103772     0.031677913108    -0.052548926885
H                     1.577306436020    -1.216364090560     3.803457285779
