
  -OEChem-05262117483D

 20 20  0     0  0  0  0  0  0999 V2000
    1.8101   -1.2253   -0.0001 C   0  0  0  0  0  0  0  0  0  0  0  0
    0.6846   -0.5962    0.5222 C   0  0  0  0  0  0  0  0  0  0  0  0
    2.8671   -1.6246    0.8292 C   0  0  0  0  0  0  0  0  0  0  0  0
    1.6353   -0.7401    2.7487 C   0  0  0  0  0  0  0  0  0  0  0  0
    0.5813   -0.3455    1.9070 C   0  0  0  0  0  0  0  0  0  0  0  0
    2.7438   -1.3721    2.1897 C   0  0  0  0  0  0  0  0  0  0  0  0
    3.8042   -2.9375    3.6037 C   0  0  0  0  0  0  0  0  0  0  0  0
   -0.5852    0.8980    3.6688 N   0  0  0  0  0  0  0  0  0  0  0  0
   -0.5784    0.2486    2.4142 N   0  0  0  0  0  0  0  0  0  0  0  0
    3.8181   -1.7030    3.0489 O   0  0  0  0  0  0  0  0  0  0  0  0
    3.8231   -3.9302    2.6837 F   0  0  0  0  0  0  0  0  0  0  0  0
    2.7157   -3.1510    4.3835 F   0  0  0  0  0  0  0  0  0  0  0  0
    4.8967   -3.0547    4.3705 F   0  0  0  0  0  0  0  0  0  0  0  0
    1.8727   -1.4040   -1.0699 H   0  0  0  0  0  0  0  0  0  0  0  0
   -0.1252   -0.2934   -0.1378 H   0  0  0  0  0  0  0  0  0  0  0  0
    3.7540   -2.1106    0.4382 H   0  0  0  0  0  0  0  0  0  0  0  0
    1.6029   -0.5799    3.8201 H   0  0  0  0  0  0  0  0  0  0  0  0
    0.2970    1.3918    3.8255 H   0  0  0  0  0  0  0  0  0  0  0  0
   -0.6910    0.1970    4.3996 H   0  0  0  0  0  0  0  0  0  0  0  0
   -1.1114    0.7769    1.7338 H   0  0  0  0  0  0  0  0  0  0  0  0
  1  2  1  0  0  0  0
  1  3  2  0  0  0  0
  1 14  1  0  0  0  0
  2  5  2  0  0  0  0
  2 15  1  0  0  0  0
  3  6  1  0  0  0  0
  3 16  1  0  0  0  0
  4  5  1  0  0  0  0
  4  6  2  0  0  0  0
  4 17  1  0  0  0  0
  5  9  1  0  0  0  0
  6 10  1  0  0  0  0
  7 10  1  0  0  0  0
  7 11  1  0  0  0  0
  7 12  1  0  0  0  0
  7 13  1  0  0  0  0
  8  9  1  0  0  0  0
  8 18  1  0  0  0  0
  8 19  1  0  0  0  0
  9 20  1  0  0  0  0
M  END
$$$$
