
  -OEChem-05262117483D

 27 28  0     0  0  0  0  0  0999 V2000
   -0.9310    1.3887    2.9187 C   0  0  0  0  0  0  0  0  0  0  0  0
   -0.1565    0.6019    2.4157 C   0  0  0  0  0  0  0  0  0  0  0  0
    1.5944   -1.5312   -0.1011 C   0  0  0  0  0  0  0  0  0  0  0  0
    0.6920   -0.6234    0.4491 C   0  0  0  0  0  0  0  0  0  0  0  0
    2.5688   -2.1600    0.6792 C   0  0  0  0  0  0  0  0  0  0  0  0
    1.7344   -0.9525    2.6149 C   0  0  0  0  0  0  0  0  0  0  0  0
    6.0620   -5.0093    3.7665 C   0  0  0  0  0  0  0  0  0  0  0  0
    5.6839   -2.9413    4.9109 C   0  0  0  0  0  0  0  0  0  0  0  0
    0.7588   -0.3274    1.8238 C   0  0  0  0  0  0  0  0  0  0  0  0
    5.4180   -3.7667    3.8130 C   0  0  0  0  0  0  0  0  0  0  0  0
    2.6372   -1.8649    2.0511 C   0  0  0  0  0  0  0  0  0  0  0  0
    6.8951   -5.3884    4.8121 C   0  0  0  0  0  0  0  0  0  0  0  0
    7.0699   -4.4853    5.8821 C   0  0  0  0  0  0  0  0  0  0  0  0
    4.5363   -3.3966    2.6521 C   0  0  0  0  0  0  0  0  0  0  0  0
    6.4892   -3.2980    5.9176 N   0  0  0  0  0  0  0  0  0  0  0  0
    3.5897   -2.4384    2.9250 N   0  0  0  0  0  0  0  0  0  0  0  0
    4.6775   -3.9417    1.5597 O   0  0  0  0  0  0  0  0  0  0  0  0
    7.6873   -6.9363    4.7654 Cl  0  0  0  0  0  0  0  0  0  0  0  0
    8.0902   -4.8977    7.2349 Cl  0  0  0  0  0  0  0  0  0  0  0  0
   -1.6163    2.0825    3.3578 H   0  0  0  0  0  0  0  0  0  0  0  0
    1.5439   -1.7617   -1.1618 H   0  0  0  0  0  0  0  0  0  0  0  0
   -0.0616   -0.1417   -0.1657 H   0  0  0  0  0  0  0  0  0  0  0  0
    3.2604   -2.8676    0.2447 H   0  0  0  0  0  0  0  0  0  0  0  0
    1.7807   -0.7177    3.6758 H   0  0  0  0  0  0  0  0  0  0  0  0
    5.9054   -5.6598    2.9121 H   0  0  0  0  0  0  0  0  0  0  0  0
    5.2715   -1.9368    4.9874 H   0  0  0  0  0  0  0  0  0  0  0  0
    3.5003   -2.1535    3.8914 H   0  0  0  0  0  0  0  0  0  0  0  0
  1  2  3  0  0  0  0
  1 20  1  0  0  0  0
  2  9  1  0  0  0  0
  3  4  2  0  0  0  0
  3  5  1  0  0  0  0
  3 21  1  0  0  0  0
  4  9  1  0  0  0  0
  4 22  1  0  0  0  0
  5 11  2  0  0  0  0
  5 23  1  0  0  0  0
  6  9  2  0  0  0  0
  6 11  1  0  0  0  0
  6 24  1  0  0  0  0
  7 10  1  0  0  0  0
  7 12  2  0  0  0  0
  7 25  1  0  0  0  0
  8 10  2  0  0  0  0
  8 15  1  0  0  0  0
  8 26  1  0  0  0  0
 10 14  1  0  0  0  0
 11 16  1  0  0  0  0
 12 13  1  0  0  0  0
 12 18  1  0  0  0  0
 13 15  2  0  0  0  0
 13 19  1  0  0  0  0
 14 16  1  0  0  0  0
 14 17  2  0  0  0  0
 16 27  1  0  0  0  0
M  END
$$$$
