33
0 1 C14H15N3O
C                     5.810852901946     2.085666688365     0.548626552829
C                     5.572662894444     2.336376065569     1.901882691667
C                     5.665985115915     0.785596854486     0.057121393701
C                     2.264748125321    -2.846145702038     1.822007794471
C                     1.088095678151    -2.530072895532     2.491904856773
C                     5.208808365083     1.292852322401     2.762039477406
C                     2.337025223129    -0.607584561875     0.912670982724
C                     1.142570317949    -0.281190439631     1.553176336221
C                     2.927961319612    -1.873526212240     1.062360668541
C                     5.237747632664    -0.253345812153     0.888542682127
C                     0.515654558019    -1.250889082897     2.373098852572
C                     5.054363630437    -0.007251394694     2.269097909075
C                     0.526988136844     1.087600426491     1.391466569984
C                     4.124623766903    -0.848712159076     4.306036531102
N                     4.130197743924    -2.296592898587     0.424457538685
N                     5.140278667443    -1.558724542312     0.296026779999
N                    -0.638813600414    -0.921370264476     3.098898343579
O                     4.739038471953    -1.086066029543     3.041999421269
H                     6.114180110200     2.889342199615    -0.116268578309
H                     5.686797946658     3.340477588238     2.301640725291
H                     5.850726092556     0.557505648997    -0.989372901614
H                     2.702312044695    -3.837303274962     1.898131925932
H                     0.594150604616    -3.282111014101     3.104267634856
H                     5.052665336723     1.498496243372     3.815522446806
H                     2.807868996739     0.137240934814     0.280662696491
H                    -0.461235804627     1.039306274884     0.913249892008
H                     0.395970072022     1.583072758374     2.361260946699
H                     1.157217054122     1.729032776751     0.771304127283
H                     3.796441507238    -1.825307008001     4.663259279365
H                     3.254514824739    -0.190902742540     4.198425217875
H                     4.833444966946    -0.418750436552     5.024224776328
H                    -1.177280818648    -1.723981589772     3.405045992282
H                    -1.235465255281    -0.228023370263     2.662699166939
