
  -OEChem-05262117483D

 20 20  0     0  0  0  0  0  0999 V2000
    1.9685   -0.8380   -0.1925 C   0  0  0  0  0  0  0  0  0  0  0  0
    0.8772   -0.3397    0.5206 C   0  0  0  0  0  0  0  0  0  0  0  0
    3.0228   -1.4948    0.4503 C   0  0  0  0  0  0  0  0  0  0  0  0
    1.8773   -1.1483    2.5784 C   0  0  0  0  0  0  0  0  0  0  0  0
    0.8252   -0.4885    1.9175 C   0  0  0  0  0  0  0  0  0  0  0  0
    2.9432   -1.6359    1.8330 C   0  0  0  0  0  0  0  0  0  0  0  0
    3.9459   -3.5775    2.7254 C   0  0  0  0  0  0  0  0  0  0  0  0
   -1.4252    0.3392    1.9999 N   0  0  0  0  0  0  0  0  0  0  0  0
   -0.2204    0.0511    2.6847 N   0  0  0  0  0  0  0  0  0  0  0  0
    4.0205   -2.2430    2.5232 O   0  0  0  0  0  0  0  0  0  0  0  0
    2.8760   -3.9381    3.4789 F   0  0  0  0  0  0  0  0  0  0  0  0
    5.0564   -3.9588    3.3718 F   0  0  0  0  0  0  0  0  0  0  0  0
    3.8623   -4.2843    1.5735 F   0  0  0  0  0  0  0  0  0  0  0  0
    1.9981   -0.7124   -1.2716 H   0  0  0  0  0  0  0  0  0  0  0  0
    0.0622    0.1672    0.0180 H   0  0  0  0  0  0  0  0  0  0  0  0
    3.8761   -1.8865   -0.0925 H   0  0  0  0  0  0  0  0  0  0  0  0
    1.8741   -1.2770    3.6573 H   0  0  0  0  0  0  0  0  0  0  0  0
   -1.8496    1.1592    2.4252 H   0  0  0  0  0  0  0  0  0  0  0  0
   -2.0804   -0.4424    2.0531 H   0  0  0  0  0  0  0  0  0  0  0  0
   -0.3333   -0.4111    3.5838 H   0  0  0  0  0  0  0  0  0  0  0  0
  1  2  1  0  0  0  0
  1  3  2  0  0  0  0
  1 14  1  0  0  0  0
  2  5  2  0  0  0  0
  2 15  1  0  0  0  0
  3  6  1  0  0  0  0
  3 16  1  0  0  0  0
  4  5  1  0  0  0  0
  4  6  2  0  0  0  0
  4 17  1  0  0  0  0
  5  9  1  0  0  0  0
  6 10  1  0  0  0  0
  7 10  1  0  0  0  0
  7 11  1  0  0  0  0
  7 12  1  0  0  0  0
  7 13  1  0  0  0  0
  8  9  1  0  0  0  0
  8 18  1  0  0  0  0
  8 19  1  0  0  0  0
  9 20  1  0  0  0  0
M  END
$$$$
