44
0 1 C18FH21N2O2
C                    -0.713787591667     4.119526880179    -2.600159548945
C                     1.577145306851     3.837293315847    -3.289143123051
C                    -0.539358839500     5.502571388476    -2.542568833267
C                     1.771154573623     5.221919524243    -3.244554677739
C                     0.338099908443     3.263706595846    -2.970802358273
C                     0.706274286004     6.031240890655    -2.868449209108
C                     0.010132261888    -1.349704825286    -0.022603577008
C                    -0.869060287560     1.228564054189    -1.984901081415
C                     0.696660056854     0.532644004038     2.629766632874
C                    -0.367733117851    -0.536788504077     2.353400431993
C                     1.952255107394     0.463749232333     1.752968456843
C                    -0.078616407954     1.161937669390    -4.415782688075
C                     1.110606024718     0.800719850149    -3.566800246447
C                    -1.376227869724     0.791874552529     0.352540344881
C                     0.853789535036     1.718567889944    -0.245301657079
C                    -0.933007273513    -0.593031834033     0.913673096191
C                     1.721018334978     0.503312753730     0.229408528654
C                     0.076713666625     1.786163907313    -3.041783374089
N                     1.215716890956    -0.757997860485    -0.304610330696
N                    -0.488489415246     1.354224390257    -0.665367188960
O                    -0.274389623456    -2.454604573388    -0.479938578285
O                    -1.940683298280     0.712352156148    -2.302645241223
F                     0.886051728578     7.377550361496    -2.815799817929
H                    -1.685455779593     3.697663833857    -2.358780396773
H                     2.414795614309     3.207557422392    -3.572614057164
H                    -1.349700888208     6.166662916393    -2.257380962528
H                     2.729079426126     5.669684350373    -3.491228226737
H                     0.245525784795     1.527096551783     2.538866206783
H                     1.004408800000     0.450602655342     3.678573205054
H                     0.024372256582    -1.528553561856     2.609666889590
H                    -1.210056107705    -0.357944307848     3.032557613930
H                     2.603945452047     1.307168820245     2.014745771204
H                     2.515186500292    -0.449808191012     1.978596003743
H                     0.084378269344     1.823560532702    -5.260521583566
H                    -0.876126581358     0.435916950558    -4.528583848586
H                     1.113297356510    -0.181656878939    -3.104932725941
H                     2.092418105847     1.165432614986    -3.852581435967
H                    -2.351316802017     0.686824187122    -0.117831254487
H                    -1.468882862234     1.517211399776     1.167779939257
H                     0.784466341460     2.457911264192     0.559724780089
H                     1.356391111637     2.209810836471    -1.071354971880
H                    -1.817515318082    -1.231286295222     0.943509260935
H                     2.707294385720     0.625900882708    -0.226742835497
H                     1.830434094868    -1.328742269143    -0.872316452523
