
  -OEChem-05262117483D

 18 18  0     0  0  0  0  0  0999 V2000
    2.0171   -0.9592   -0.0467 C   0  0  0  0  0  0  0  0  0  0  0  0
    0.8750   -0.4300    0.5537 C   0  0  0  0  0  0  0  0  0  0  0  0
    1.6940   -1.1230    2.7302 C   0  0  0  0  0  0  0  0  0  0  0  0
    2.8478   -1.6156    2.1203 C   0  0  0  0  0  0  0  0  0  0  0  0
    3.0181   -1.5395    0.7320 C   0  0  0  0  0  0  0  0  0  0  0  0
    0.7210   -0.5153    1.9406 C   0  0  0  0  0  0  0  0  0  0  0  0
    5.0566   -1.3411   -0.4434 C   0  0  0  0  0  0  0  0  0  0  0  0
    3.8681   -2.2200    2.9988 N   0  3  0  0  0  0  0  0  0  0  0  0
    3.4576   -2.7745    4.0231 O   0  5  0  0  0  0  0  0  0  0  0  0
    5.0495   -2.1117    2.6713 O   0  0  0  0  0  0  0  0  0  0  0  0
    4.1131   -2.1481    0.1298 O   0  0  0  0  0  0  0  0  0  0  0  0
    5.3791   -0.2882    0.3248 F   0  0  0  0  0  0  0  0  0  0  0  0
    4.6286   -0.8446   -1.6338 F   0  0  0  0  0  0  0  0  0  0  0  0
    6.1396   -2.0810   -0.6679 F   0  0  0  0  0  0  0  0  0  0  0  0
   -0.7145    0.1340    2.6943 Cl  0  0  0  0  0  0  0  0  0  0  0  0
    2.1364   -0.9309   -1.1242 H   0  0  0  0  0  0  0  0  0  0  0  0
    0.1026    0.0317   -0.0525 H   0  0  0  0  0  0  0  0  0  0  0  0
    1.5773   -1.2164    3.8035 H   0  0  0  0  0  0  0  0  0  0  0  0
  1  2  1  0  0  0  0
  1  5  2  0  0  0  0
  1 16  1  0  0  0  0
  2  6  2  0  0  0  0
  2 17  1  0  0  0  0
  3  4  2  0  0  0  0
  3  6  1  0  0  0  0
  3 18  1  0  0  0  0
  4  5  1  0  0  0  0
  4  8  1  0  0  0  0
  5 11  1  0  0  0  0
  6 15  1  0  0  0  0
  7 11  1  0  0  0  0
  7 12  1  0  0  0  0
  7 13  1  0  0  0  0
  7 14  1  0  0  0  0
  8  9  1  0  0  0  0
  8 10  2  0  0  0  0
M  CHG  2   8   1   9  -1
M  END
$$$$
