
  -OEChem-05262117483D

 30 32  0     1  0  0  0  0  0999 V2000
   -4.4642    2.5101    0.5759 C   0  0  0  0  0  0  0  0  0  0  0  0
   -4.3196    3.7455    1.2351 C   0  0  0  0  0  0  0  0  0  0  0  0
   -3.3912    1.6246    0.4785 C   0  0  0  0  0  0  0  0  0  0  0  0
   -3.1060    4.1315    1.8115 C   0  0  0  0  0  0  0  0  0  0  0  0
   -0.0364    2.1463    1.7993 C   0  0  0  0  0  0  0  0  0  0  0  0
   -2.1632    1.9897    1.0479 C   0  0  0  0  0  0  0  0  0  0  0  0
   -0.8783    1.3168    1.1222 C   0  0  0  0  0  0  0  0  0  0  0  0
   -2.0370    3.2377    1.7069 C   0  0  0  0  0  0  0  0  0  0  0  0
   -0.1564    4.4011    2.8798 C   0  0  0  0  0  0  0  0  0  0  0  0
    0.8245   -0.6696    0.7451 C   0  0  0  0  0  0  0  0  0  0  0  0
    0.0637   -1.9946    0.9974 C   0  0  0  0  0  0  0  0  0  0  0  0
   -0.5717   -0.0274    0.5499 C   0  0  1  0  0  0  0  0  0  0  0  0
    1.2991    4.2632    3.2844 C   0  0  0  0  0  0  0  0  0  0  0  0
   -0.7068    3.3304    2.1720 N   0  0  0  0  0  0  0  0  0  0  0  0
   -1.1667   -1.2004    1.2708 N   0  0  0  0  0  0  0  0  0  0  0  0
   -0.8190    5.3916    3.1548 O   0  0  0  0  0  0  0  0  0  0  0  0
   -5.4246    2.2457    0.1412 H   0  0  0  0  0  0  0  0  0  0  0  0
   -5.1705    4.4184    1.2998 H   0  0  0  0  0  0  0  0  0  0  0  0
   -3.5065    0.6697   -0.0279 H   0  0  0  0  0  0  0  0  0  0  0  0
   -2.9931    5.0804    2.3183 H   0  0  0  0  0  0  0  0  0  0  0  0
    1.0026    2.0041    2.0524 H   0  0  0  0  0  0  0  0  0  0  0  0
    1.3251   -0.3109    1.6473 H   0  0  0  0  0  0  0  0  0  0  0  0
    1.5129   -0.6295   -0.1009 H   0  0  0  0  0  0  0  0  0  0  0  0
    0.0097   -2.6136    0.0902 H   0  0  0  0  0  0  0  0  0  0  0  0
    0.3902   -2.6168    1.8368 H   0  0  0  0  0  0  0  0  0  0  0  0
   -0.8369   -0.0298   -0.5195 H   0  0  0  0  0  0  0  0  0  0  0  0
    1.9468    4.1532    2.4090 H   0  0  0  0  0  0  0  0  0  0  0  0
    1.4515    3.3931    3.9304 H   0  0  0  0  0  0  0  0  0  0  0  0
    1.5799    5.1658    3.8262 H   0  0  0  0  0  0  0  0  0  0  0  0
   -2.0182   -1.5675    0.8491 H   0  0  0  0  0  0  0  0  0  0  0  0
  1  2  1  0  0  0  0
  1  3  2  0  0  0  0
  1 17  1  0  0  0  0
  2  4  2  0  0  0  0
  2 18  1  0  0  0  0
  3  6  1  0  0  0  0
  3 19  1  0  0  0  0
  4  8  1  0  0  0  0
  4 20  1  0  0  0  0
  5  7  2  0  0  0  0
  5 14  1  0  0  0  0
  5 21  1  0  0  0  0
  6  7  1  0  0  0  0
  6  8  2  0  0  0  0
  7 12  1  0  0  0  0
  8 14  1  0  0  0  0
  9 13  1  0  0  0  0
  9 14  1  0  0  0  0
  9 16  2  0  0  0  0
 10 11  1  0  0  0  0
 10 12  1  0  0  0  0
 10 22  1  0  0  0  0
 10 23  1  0  0  0  0
 11 15  1  0  0  0  0
 11 24  1  0  0  0  0
 11 25  1  0  0  0  0
 12 15  1  0  0  0  0
 12 26  1  0  0  0  0
 13 27  1  0  0  0  0
 13 28  1  0  0  0  0
 13 29  1  0  0  0  0
 15 30  1  0  0  0  0
M  END
$$$$
