
  -OEChem-05262117483D

 32 34  0     0  0  0  0  0  0999 V2000
    6.3802   -2.7970    5.0024 C   0  0  0  0  0  0  0  0  0  0  0  0
    8.1388    4.2288    2.1134 C   0  0  0  0  0  0  0  0  0  0  0  0
    8.1180    4.8241    3.3783 C   0  0  0  0  0  0  0  0  0  0  0  0
    6.0572   -7.2375    4.2095 C   0  0  0  0  0  0  0  0  0  0  0  0
    8.0573    2.8429    2.0116 C   0  0  0  0  0  0  0  0  0  0  0  0
    8.0217    4.0259    4.5196 C   0  0  0  0  0  0  0  0  0  0  0  0
    6.2138   -5.8365    4.3435 C   0  0  0  0  0  0  0  0  0  0  0  0
    6.5502   -7.7215    3.0153 C   0  0  0  0  0  0  0  0  0  0  0  0
    7.9552    2.0357    3.1604 C   0  0  0  0  0  0  0  0  0  0  0  0
    7.9392    2.6268    4.4461 C   0  0  0  0  0  0  0  0  0  0  0  0
    6.8313   -5.2510    3.2413 C   0  0  0  0  0  0  0  0  0  0  0  0
    7.8767    0.5783    2.9595 C   0  0  0  0  0  0  0  0  0  0  0  0
    7.4301   -1.4612    3.2404 C   0  0  0  0  0  0  0  0  0  0  0  0
    7.1842   -3.8928    2.9494 C   0  0  0  0  0  0  0  0  0  0  0  0
    6.9978   -2.7701    3.7116 C   0  0  0  0  0  0  0  0  0  0  0  0
    7.8565    1.8327    5.7298 C   0  0  0  0  0  0  0  0  0  0  0  0
    5.8752   -2.8565    6.0511 N   0  0  0  0  0  0  0  0  0  0  0  0
    7.3052   -0.3141    3.8513 N   0  0  0  0  0  0  0  0  0  0  0  0
    8.3372    0.0073    1.8594 N   0  0  0  0  0  0  0  0  0  0  0  0
    8.0348   -1.3597    2.0381 O   0  0  0  0  0  0  0  0  0  0  0  0
    7.2127   -6.4727    2.0380 S   0  0  0  0  0  0  0  0  0  0  0  0
    8.2120    4.8378    1.2166 H   0  0  0  0  0  0  0  0  0  0  0  0
    8.1770    5.9051    3.4772 H   0  0  0  0  0  0  0  0  0  0  0  0
    5.5989   -7.8700    4.9621 H   0  0  0  0  0  0  0  0  0  0  0  0
    8.0637    2.3656    1.0368 H   0  0  0  0  0  0  0  0  0  0  0  0
    8.0140    4.4969    5.4995 H   0  0  0  0  0  0  0  0  0  0  0  0
    5.8885   -5.2764    5.2106 H   0  0  0  0  0  0  0  0  0  0  0  0
    6.5560   -8.7462    2.6653 H   0  0  0  0  0  0  0  0  0  0  0  0
    7.6683   -3.7227    1.9902 H   0  0  0  0  0  0  0  0  0  0  0  0
    6.8843    1.3460    5.8391 H   0  0  0  0  0  0  0  0  0  0  0  0
    8.6037    1.0352    5.7634 H   0  0  0  0  0  0  0  0  0  0  0  0
    8.0167    2.4905    6.5881 H   0  0  0  0  0  0  0  0  0  0  0  0
  1 15  1  0  0  0  0
  1 17  3  0  0  0  0
  2  3  1  0  0  0  0
  2  5  2  0  0  0  0
  2 22  1  0  0  0  0
  3  6  2  0  0  0  0
  3 23  1  0  0  0  0
  4  7  1  0  0  0  0
  4  8  2  0  0  0  0
  4 24  1  0  0  0  0
  5  9  1  0  0  0  0
  5 25  1  0  0  0  0
  6 10  1  0  0  0  0
  6 26  1  0  0  0  0
  7 11  2  0  0  0  0
  7 27  1  0  0  0  0
  8 21  1  0  0  0  0
  8 28  1  0  0  0  0
  9 10  2  0  0  0  0
  9 12  1  0  0  0  0
 10 16  1  0  0  0  0
 11 14  1  0  0  0  0
 11 21  1  0  0  0  0
 12 18  1  0  0  0  0
 12 19  2  0  0  0  0
 13 15  1  0  0  0  0
 13 18  2  0  0  0  0
 13 20  1  0  0  0  0
 14 15  2  0  0  0  0
 14 29  1  0  0  0  0
 16 30  1  0  0  0  0
 16 31  1  0  0  0  0
 16 32  1  0  0  0  0
 19 20  1  0  0  0  0
M  END
$$$$
