39
0 1 C13H22N2OS
C                     2.395328661132    -3.295728490017    -2.161550726834
C                     2.379207975923    -2.079805749126    -1.527525952630
C                     3.809861425425    -3.802764592810    -0.509140032007
C                     0.440477082254     1.101701263455    -0.920578694745
C                    -0.100255723540    -1.084878804596    -0.156963062533
C                    -0.507919267808     1.271279603767     0.272822507481
C                    -1.213546285414    -0.111988741199     0.279259053939
C                     4.739853992244    -4.613875911721     0.343777921704
C                     0.250806370095     1.601299526547     1.564541549260
C                    -1.894924360604    -0.508278706136     1.586374083321
C                     2.581233658300    -3.662762062054    -4.655241196853
C                     1.662203304322    -3.669786243930    -3.421196433125
C                     1.652510799280    -0.812983410296    -1.873015381603
N                     3.213030585863    -4.254923156154    -1.576140309368
N                     0.978698439464    -0.247150538752    -0.715048054740
O                    -2.181625392410    -0.145743161556    -0.797861547072
S                     3.415003556897    -2.136577150312    -0.118770528161
H                    -0.120218055378     1.190361962877    -1.866231620810
H                     1.252815224442     1.837332792951    -0.929753537473
H                     0.276850382154    -1.677024198008     0.683567979824
H                    -0.516835041249    -1.780316102253    -0.897552670279
H                    -1.246729342554     2.058782496356     0.079126841708
H                     5.730993805981    -4.152259739807     0.405687384892
H                     4.357363593100    -4.716954509924     1.364957681037
H                     4.840784453770    -5.608174151391    -0.095747768718
H                     0.994006541316     0.831854303554     1.793798018842
H                    -0.425571753052     1.695915491047     2.419468323164
H                     0.781309651229     2.553306293964     1.456103015633
H                    -2.666381552395     0.220912958961     1.863964816143
H                    -1.182388611714    -0.575087424235     2.412548426241
H                    -2.377224074685    -1.483351609652     1.467162522997
H                     2.982397355931    -2.659796169555    -4.836868378366
H                     2.035917225343    -3.980628588800    -5.550582446151
H                     3.425795528139    -4.342326175975    -4.507086992797
H                     1.245766224156    -4.673794684328    -3.284838922622
H                     0.819167211135    -2.991289046518    -3.581965496910
H                     2.365804070638    -0.064691887546    -2.241517182271
H                     0.952172796767    -1.018798985770    -2.702541829315
H                    -2.867055144664     0.512509477936    -0.597848362670
