
  -OEChem-05262117483D

 32 33  0     0  0  0  0  0  0999 V2000
    0.0834   -5.2530    0.4065 C   0  0  0  0  0  0  0  0  0  0  0  0
   -0.3893   -1.0765   -0.5830 C   0  0  0  0  0  0  0  0  0  0  0  0
   -0.1858   -6.0090    1.5943 C   0  0  0  0  0  0  0  0  0  0  0  0
    0.3268   -1.4201   -1.7691 C   0  0  0  0  0  0  0  0  0  0  0  0
   -0.1471   -2.0928    0.3529 C   0  0  0  0  0  0  0  0  0  0  0  0
   -0.8913   -5.6498   -0.4705 C   0  0  0  0  0  0  0  0  0  0  0  0
    0.5572   -5.9941    2.8951 C   0  0  0  0  0  0  0  0  0  0  0  0
    0.4269   -0.7001   -3.0754 C   0  0  0  0  0  0  0  0  0  0  0  0
   -0.6156   -2.3150    1.7531 C   0  0  0  0  0  0  0  0  0  0  0  0
   -1.2327   -5.2558   -1.8665 C   0  0  0  0  0  0  0  0  0  0  0  0
    1.1729   -4.2431    0.1857 C   0  0  0  0  0  0  0  0  0  0  0  0
    0.9611   -2.5723   -1.5772 N   0  0  0  0  0  0  0  0  0  0  0  0
   -1.2312   -6.7933    1.4399 N   0  0  0  0  0  0  0  0  0  0  0  0
    0.6695   -2.9541   -0.2928 N   0  0  0  0  0  0  0  0  0  0  0  0
   -1.2010    0.0818   -0.3882 N   0  3  0  0  0  0  0  0  0  0  0  0
   -1.7999    0.2132    0.6933 O   0  5  0  0  0  0  0  0  0  0  0  0
   -1.2669    0.8996   -1.3195 O   0  0  0  0  0  0  0  0  0  0  0  0
   -1.6852   -6.5639    0.1276 O   0  0  0  0  0  0  0  0  0  0  0  0
    0.5450   -4.9950    3.3439 H   0  0  0  0  0  0  0  0  0  0  0  0
    0.0948   -6.6920    3.5957 H   0  0  0  0  0  0  0  0  0  0  0  0
    1.6036   -6.2836    2.7544 H   0  0  0  0  0  0  0  0  0  0  0  0
    0.8567    0.2959   -2.9395 H   0  0  0  0  0  0  0  0  0  0  0  0
    1.0542   -1.2786   -3.7570 H   0  0  0  0  0  0  0  0  0  0  0  0
   -0.5619   -0.5559   -3.5192 H   0  0  0  0  0  0  0  0  0  0  0  0
   -1.4581   -3.0152    1.7693 H   0  0  0  0  0  0  0  0  0  0  0  0
    0.1835   -2.7415    2.3660 H   0  0  0  0  0  0  0  0  0  0  0  0
   -0.9459   -1.3752    2.1909 H   0  0  0  0  0  0  0  0  0  0  0  0
   -1.4169   -6.1428   -2.4796 H   0  0  0  0  0  0  0  0  0  0  0  0
   -2.1417   -4.6444   -1.8817 H   0  0  0  0  0  0  0  0  0  0  0  0
   -0.4224   -4.6733   -2.3077 H   0  0  0  0  0  0  0  0  0  0  0  0
    1.7323   -4.0870    1.1125 H   0  0  0  0  0  0  0  0  0  0  0  0
    1.8850   -4.5662   -0.5762 H   0  0  0  0  0  0  0  0  0  0  0  0
  1  3  1  0  0  0  0
  1  6  2  0  0  0  0
  1 11  1  0  0  0  0
  2  4  1  0  0  0  0
  2  5  2  0  0  0  0
  2 15  1  0  0  0  0
  3  7  1  0  0  0  0
  3 13  2  0  0  0  0
  4  8  1  0  0  0  0
  4 12  2  0  0  0  0
  5  9  1  0  0  0  0
  5 14  1  0  0  0  0
  6 10  1  0  0  0  0
  6 18  1  0  0  0  0
  7 19  1  0  0  0  0
  7 20  1  0  0  0  0
  7 21  1  0  0  0  0
  8 22  1  0  0  0  0
  8 23  1  0  0  0  0
  8 24  1  0  0  0  0
  9 25  1  0  0  0  0
  9 26  1  0  0  0  0
  9 27  1  0  0  0  0
 10 28  1  0  0  0  0
 10 29  1  0  0  0  0
 10 30  1  0  0  0  0
 11 14  1  0  0  0  0
 11 31  1  0  0  0  0
 11 32  1  0  0  0  0
 12 14  1  0  0  0  0
 13 18  1  0  0  0  0
 15 16  1  0  0  0  0
 15 17  2  0  0  0  0
M  CHG  2  15   1  16  -1
M  END
$$$$
