
  -OEChem-05262117483D

 36 39  0     0  0  0  0  0  0999 V2000
    9.2206    2.5841    4.3134 C   0  0  0  0  0  0  0  0  0  0  0  0
    8.9590    1.2488    4.6446 C   0  0  0  0  0  0  0  0  0  0  0  0
    8.2965    3.2998    3.5447 C   0  0  0  0  0  0  0  0  0  0  0  0
    7.7859    0.6324    4.2126 C   0  0  0  0  0  0  0  0  0  0  0  0
    7.1208    2.6871    3.1100 C   0  0  0  0  0  0  0  0  0  0  0  0
    4.1317   -0.9471    2.7559 C   0  0  0  0  0  0  0  0  0  0  0  0
    6.8513    1.3464    3.4384 C   0  0  0  0  0  0  0  0  0  0  0  0
    3.4696    0.0141    2.0221 C   0  0  0  0  0  0  0  0  0  0  0  0
    0.4604    0.4217    0.1352 C   0  0  0  0  0  0  0  0  0  0  0  0
    0.2603   -0.8810    0.5847 C   0  0  0  0  0  0  0  0  0  0  0  0
    2.2012   -0.0558    1.3316 C   0  0  0  0  0  0  0  0  0  0  0  0
    5.6250    0.6717    2.9978 C   0  0  0  0  0  0  0  0  0  0  0  0
   -0.3904    1.3196   -0.6972 C   0  0  0  0  0  0  0  0  0  0  0  0
   -0.8052   -1.9182    0.3974 C   0  0  0  0  0  0  0  0  0  0  0  0
   -2.0752   -1.4022   -0.2839 C   0  0  0  0  0  0  0  0  0  0  0  0
   -1.7883   -0.6338   -1.5814 C   0  0  0  0  0  0  0  0  0  0  0  0
    5.3299   -0.5757    3.2967 N   0  0  0  0  0  0  0  0  0  0  0  0
    1.6641    0.9090    0.6123 N   0  0  0  0  0  0  0  0  0  0  0  0
    1.3789   -1.1662    1.3428 N   0  0  0  0  0  0  0  0  0  0  0  0
   -1.4651    0.7711   -1.3636 N   0  0  0  0  0  0  0  0  0  0  0  0
   -0.1612    2.5245   -0.7779 O   0  0  0  0  0  0  0  0  0  0  0  0
    4.4108    1.4772    2.0080 S   0  0  0  0  0  0  0  0  0  0  0  0
   10.1361    3.0625    4.6515 H   0  0  0  0  0  0  0  0  0  0  0  0
    9.6731    0.6873    5.2415 H   0  0  0  0  0  0  0  0  0  0  0  0
    8.4909    4.3365    3.2835 H   0  0  0  0  0  0  0  0  0  0  0  0
    7.5732   -0.4015    4.4633 H   0  0  0  0  0  0  0  0  0  0  0  0
    6.4138    3.2592    2.5145 H   0  0  0  0  0  0  0  0  0  0  0  0
    3.7740   -1.9586    2.9261 H   0  0  0  0  0  0  0  0  0  0  0  0
   -0.3903   -2.7419   -0.2006 H   0  0  0  0  0  0  0  0  0  0  0  0
   -1.0680   -2.3511    1.3713 H   0  0  0  0  0  0  0  0  0  0  0  0
   -2.7132   -2.2639   -0.5082 H   0  0  0  0  0  0  0  0  0  0  0  0
   -2.6356   -0.7485    0.3921 H   0  0  0  0  0  0  0  0  0  0  0  0
   -0.9929   -1.1409   -2.1469 H   0  0  0  0  0  0  0  0  0  0  0  0
   -2.6811   -0.6465   -2.2114 H   0  0  0  0  0  0  0  0  0  0  0  0
    1.5410   -2.0326    1.8407 H   0  0  0  0  0  0  0  0  0  0  0  0
   -1.9429    1.4584   -1.9340 H   0  0  0  0  0  0  0  0  0  0  0  0
  1  2  1  0  0  0  0
  1  3  2  0  0  0  0
  1 23  1  0  0  0  0
  2  4  2  0  0  0  0
  2 24  1  0  0  0  0
  3  5  1  0  0  0  0
  3 25  1  0  0  0  0
  4  7  1  0  0  0  0
  4 26  1  0  0  0  0
  5  7  2  0  0  0  0
  5 27  1  0  0  0  0
  6  8  2  0  0  0  0
  6 17  1  0  0  0  0
  6 28  1  0  0  0  0
  7 12  1  0  0  0  0
  8 11  1  0  0  0  0
  8 22  1  0  0  0  0
  9 10  2  0  0  0  0
  9 13  1  0  0  0  0
  9 18  1  0  0  0  0
 10 14  1  0  0  0  0
 10 19  1  0  0  0  0
 11 18  2  0  0  0  0
 11 19  1  0  0  0  0
 12 17  2  0  0  0  0
 12 22  1  0  0  0  0
 13 20  1  0  0  0  0
 13 21  2  0  0  0  0
 14 15  1  0  0  0  0
 14 29  1  0  0  0  0
 14 30  1  0  0  0  0
 15 16  1  0  0  0  0
 15 31  1  0  0  0  0
 15 32  1  0  0  0  0
 16 20  1  0  0  0  0
 16 33  1  0  0  0  0
 16 34  1  0  0  0  0
 19 35  1  0  0  0  0
 20 36  1  0  0  0  0
M  END
$$$$
