
  -OEChem-05262117483D

 32 33  0     0  0  0  0  0  0999 V2000
   -0.3301   -5.2450    0.0904 C   0  0  0  0  0  0  0  0  0  0  0  0
    0.2123   -1.5451   -2.2580 C   0  0  0  0  0  0  0  0  0  0  0  0
   -0.7638   -6.3336   -0.7376 C   0  0  0  0  0  0  0  0  0  0  0  0
   -0.3249   -1.1775   -0.9901 C   0  0  0  0  0  0  0  0  0  0  0  0
    0.7891   -2.8157   -2.1112 C   0  0  0  0  0  0  0  0  0  0  0  0
   -1.2805   -5.1752    1.0748 C   0  0  0  0  0  0  0  0  0  0  0  0
   -0.1261   -6.8742   -1.9807 C   0  0  0  0  0  0  0  0  0  0  0  0
   -1.0411    0.0671   -0.5761 C   0  0  0  0  0  0  0  0  0  0  0  0
    1.4995   -3.6747   -3.1055 C   0  0  0  0  0  0  0  0  0  0  0  0
   -1.4662   -4.2884    2.2572 C   0  0  0  0  0  0  0  0  0  0  0  0
    0.8736   -4.3687   -0.0829 C   0  0  0  0  0  0  0  0  0  0  0  0
   -0.0942   -2.1560   -0.1222 N   0  0  0  0  0  0  0  0  0  0  0  0
   -1.8726   -6.8736   -0.2808 N   0  0  0  0  0  0  0  0  0  0  0  0
    0.5814   -3.1293   -0.8129 N   0  0  0  0  0  0  0  0  0  0  0  0
    0.1858   -0.7800   -3.4584 N   0  3  0  0  0  0  0  0  0  0  0  0
    0.7056   -1.2700   -4.4777 O   0  5  0  0  0  0  0  0  0  0  0  0
   -0.3565    0.3361   -3.4232 O   0  0  0  0  0  0  0  0  0  0  0  0
   -2.2058   -6.1366    0.8722 O   0  0  0  0  0  0  0  0  0  0  0  0
    0.9231   -7.1351   -1.8051 H   0  0  0  0  0  0  0  0  0  0  0  0
   -0.6554   -7.7700   -2.3110 H   0  0  0  0  0  0  0  0  0  0  0  0
   -0.1578   -6.1368   -2.7885 H   0  0  0  0  0  0  0  0  0  0  0  0
   -1.9451    0.2121   -1.1737 H   0  0  0  0  0  0  0  0  0  0  0  0
   -1.3085   -0.0051    0.4803 H   0  0  0  0  0  0  0  0  0  0  0  0
   -0.4151    0.9490   -0.7362 H   0  0  0  0  0  0  0  0  0  0  0  0
    2.3319   -3.1238   -3.5496 H   0  0  0  0  0  0  0  0  0  0  0  0
    1.8790   -4.5917   -2.6539 H   0  0  0  0  0  0  0  0  0  0  0  0
    0.8288   -3.9361   -3.9282 H   0  0  0  0  0  0  0  0  0  0  0  0
   -2.4993   -3.9312    2.3005 H   0  0  0  0  0  0  0  0  0  0  0  0
   -1.2594   -4.8303    3.1865 H   0  0  0  0  0  0  0  0  0  0  0  0
   -0.8073   -3.4228    2.1826 H   0  0  0  0  0  0  0  0  0  0  0  0
    1.2736   -4.0622    0.8854 H   0  0  0  0  0  0  0  0  0  0  0  0
    1.6669   -4.8988   -0.6104 H   0  0  0  0  0  0  0  0  0  0  0  0
  1  3  1  0  0  0  0
  1  6  2  0  0  0  0
  1 11  1  0  0  0  0
  2  4  1  0  0  0  0
  2  5  2  0  0  0  0
  2 15  1  0  0  0  0
  3  7  1  0  0  0  0
  3 13  2  0  0  0  0
  4  8  1  0  0  0  0
  4 12  2  0  0  0  0
  5  9  1  0  0  0  0
  5 14  1  0  0  0  0
  6 10  1  0  0  0  0
  6 18  1  0  0  0  0
  7 19  1  0  0  0  0
  7 20  1  0  0  0  0
  7 21  1  0  0  0  0
  8 22  1  0  0  0  0
  8 23  1  0  0  0  0
  8 24  1  0  0  0  0
  9 25  1  0  0  0  0
  9 26  1  0  0  0  0
  9 27  1  0  0  0  0
 10 28  1  0  0  0  0
 10 29  1  0  0  0  0
 10 30  1  0  0  0  0
 11 14  1  0  0  0  0
 11 31  1  0  0  0  0
 11 32  1  0  0  0  0
 12 14  1  0  0  0  0
 13 18  1  0  0  0  0
 15 16  1  0  0  0  0
 15 17  2  0  0  0  0
M  CHG  2  15   1  16  -1
M  END
$$$$
