36
0 1 C16H14N4OS
C                     9.220646682745     2.584099301065     4.313444721004
C                     8.959012643114     1.248767611459     4.644586816978
C                     8.296473096704     3.299795142796     3.544701753212
C                     7.785911562415     0.632358151746     4.212594149362
C                     7.120820212368     2.687057887169     3.110031131403
C                     4.131700914125    -0.947054907000     2.755892020458
C                     6.851298130232     1.346357255543     3.438390676017
C                     3.469580973492     0.014053009927     2.022067340088
C                     0.460449600753     0.421716125561     0.135248381528
C                     0.260322219909    -0.880974558997     0.584665616417
C                     2.201184866930    -0.055827280249     1.331614981716
C                     5.625044077445     0.671684935134     2.997773467638
C                    -0.390351501237     1.319638764795    -0.697215999848
C                    -0.805178321611    -1.918171533519     0.397416546177
C                    -2.075232038743    -1.402162924195    -0.283863573019
C                    -1.788304355046    -0.633800688822    -1.581393832546
N                     5.329921126830    -0.575663502422     3.296726475902
N                     1.664084100673     0.908990809228     0.612341007732
N                     1.378941347582    -1.166162853078     1.342849779031
N                    -1.465102621328     0.771098589563    -1.363582095461
O                    -0.161173127628     2.524544200205    -0.777861924116
S                     4.410801246652     1.477197940164     2.007957713492
H                    10.136081012988     3.062450950980     4.651527256560
H                     9.673080169525     0.687292006235     5.241548527356
H                     8.490934656530     4.336521821655     3.283451875068
H                     7.573228594981    -0.401531422875     4.463269336427
H                     6.413762363085     3.259150464731     2.514469835595
H                     3.774019279260    -1.958578653350     2.926069325871
H                    -0.390320666081    -2.741896066418    -0.200555770963
H                    -1.068007317468    -2.351080497934     1.371282190096
H                    -2.713165167655    -2.263872628084    -0.508156693747
H                    -2.635552233154    -0.748538473879     0.392110740291
H                    -0.992943212628    -1.140876268236    -2.146932349267
H                    -2.681062240579    -0.646470477146    -2.211439617467
H                     1.541031745695    -2.032579159623     1.840685411045
H                    -1.942931576453     1.458369852051    -1.933998022658
