22   
torsion grid (-165,)
C       -1.0935153591   -0.6938547529   -0.2636233130
C        0.4278836848   -0.5646120151   -0.2481602430
C        0.5674685070    0.7545851112    0.5490301059
C        1.0846618122   -1.7934595543    0.3843157265
C        0.8718938404   -0.4280738329   -1.7218542168
C        1.7877889081    1.6097719491    0.2238653915
C        0.4172600078    0.5790271066    2.0660566120
O       -1.7821896250   -1.6712026917   -0.4289220000
O       -1.6629991918    0.5372043214   -0.0505078618
O       -0.5732677318    1.5152431450    0.0448020239
H        2.1731495335   -1.6738794292    0.3978059383
H        0.8452676757   -2.6822102706   -0.2050650614
H        0.7428926954   -1.9718649823    1.4055125833
H        1.9619680923   -0.3609683533   -1.7847064587
H        0.4383133476    0.4555060763   -2.1970505478
H        0.5534373758   -1.3111306575   -2.2826170227
H        1.7834634756    2.5186202030    0.8323192034
H        1.8103625459    1.8991257105   -0.8275921191
H        2.6993168054    1.0506893086    0.4562068486
H        0.1576687939    1.5486715052    2.4996595468
H        1.3597406458    0.2550986915    2.5166603129
H       -0.3689910191   -0.1306139360    2.3349569007
22   
torsion grid (-150,)
C       -1.0966232226   -0.6737567925   -0.2685876386
C        0.4263009968   -0.5606339825   -0.2562582227
C        0.5742352052    0.7533837693    0.5463385616
C        1.0820423457   -1.7968845668    0.3617241778
C        0.8663484297   -0.4154495505   -1.7308552354
C        1.8079988082    1.5955684761    0.2367953341
C        0.4016959129    0.5880393625    2.0670756446
O       -1.7980119616   -1.6435259466   -0.4241045002
O       -1.6504501690    0.5673063056   -0.0670379106
O       -0.5458940565    1.5312949602    0.0233700503
H        2.1709869825   -1.6813820987    0.3660574647
H        0.8344626565   -2.6801767269   -0.2325397265
H        0.7504413240   -1.9836601521    1.3845604052
H        1.9566480193   -0.3547411473   -1.7963604528
H        0.4367814494    0.4742287142   -2.1979127827
H        0.5413101147   -1.2926234896   -2.2970668477
H        1.8056505157    2.5025454238    0.8484526123
H        1.8466777255    1.8879217117   -0.8133621869
H        2.7100840634    1.0257104869    0.4794690318
H       -0.0767879837    1.4955759778    2.4459636777
H        1.3721836282    0.5112698371    2.5652197712
H       -0.2229678591   -0.2609892900    2.3509648639
22   
torsion grid (-135,)
C       -1.1310419011   -0.7077442554   -0.2371948762
C        0.3920377388   -0.6012911422   -0.2457067638
C        0.5516843233    0.7208302091    0.5448283413
C        1.0565097618   -1.8391715368    0.3591990776
C        0.8109292281   -0.4613298059   -1.7278879731
C        1.7906948476    1.5493015216    0.2204466628
C        0.3718602137    0.5815197790    2.0734718882
O       -1.8391626311   -1.6766156512   -0.3646380177
O       -1.6749682456    0.5410868287   -0.0542364300
O       -0.5620265833    1.4980117770    0.0053442373
H        2.1444154480   -1.7142828360    0.3677877084
H        0.8187982856   -2.7164289069   -0.2478576102
H        0.7247079690   -2.0464554557    1.3776515298
H        1.9007017223   -0.4116672227   -1.8097782213
H        0.3827414881    0.4315059963   -2.1896661076
H        0.4695508770   -1.3364147224   -2.2876750903
H        1.7877581650    2.4714200151    0.8090798633
H        1.8392750931    1.8146994963   -0.8363537446
H        2.6877511915    0.9814536860    0.4859321534
H       -0.3267154574    1.3578534612    2.3968543993
H        1.3120054502    0.7704903195    2.5982547823
H       -0.0314450975   -0.3798711620    2.3931467103
22   
torsion grid (-120,)
C       -1.1520071653   -0.7008194464   -0.2187737500
C        0.3708879942   -0.6077742769   -0.2398716059
C        0.5515557592    0.7183001579    0.5473527971
C        1.0258297546   -1.8581825077    0.3513823939
C        0.7781428088   -0.4708007435   -1.7263439911
C        1.7980924425    1.5278097550    0.2076102798
C        0.3723132938    0.5862043887    2.0804271486
O       -1.8704997940   -1.6629736918   -0.3371703197
O       -1.6822253907    0.5540854280   -0.0340195465
O       -0.5598865500    1.4989362538    0.0064922995
H        2.1098313563   -1.7183645289    0.4205396114
H        0.8339328976   -2.7143402281   -0.3001332831
H        0.6447146045   -2.1139556305    1.3409534658
H        1.8680140424   -0.4502464097   -1.8192595519
H        0.3686941740    0.4347977919   -2.1799023785
H        0.4080711781   -1.3340544683   -2.2861878454
H        1.7883578939    2.4732818260    0.7576046500
H        1.8682815285    1.7489552622   -0.8578771914
H        2.6872498601    0.9680945041    0.5145258284
H       -0.5194280067    1.1428200305    2.3771178674
H        1.2222318803    1.0230106342    2.6107614852
H        0.2530593449   -0.4407235574    2.4253112906
22   
torsion grid (-105,)
C       -1.1480139369   -0.6619244714   -0.2260758056
C        0.3751654549   -0.5883487151   -0.2401677579
C        0.5770194076    0.7358099271    0.5518556213
C        1.0016610253   -1.8545939228    0.3498779277
C        0.7905702168   -0.4548347154   -1.7248211018
C        1.8341274428    1.5263683677    0.2126315761
C        0.3961299045    0.5925793509    2.0810871199
O       -1.8782757143   -1.6140389460   -0.3541521314
O       -1.6629806695    0.5971290888   -0.0323279215
O       -0.5317880542    1.5272156512    0.0166271874
H        2.0819247118   -1.7212085828    0.4713787585
H        0.8368111319   -2.6946806335   -0.3292694667
H        0.5725603513   -2.1322372626    1.3138051477
H        1.8808344720   -0.4667959173   -1.8149598709
H        0.4092833995    0.4648347027   -2.1747079022
H        0.3962924690   -1.3034919924   -2.2904397045
H        1.8130211206    2.4925507815    0.7247605857
H        1.9362698600    1.7053405816   -0.8579147826
H        2.7118883306    0.9764827913    0.5671300560
H       -0.6217662287    0.8655717227    2.3653440293
H        1.0970338293    1.2412812120    2.6125188334
H        0.5855509869   -0.4215730970    2.4345881070
22   
torsion grid (-90,)
C       -1.1680316645   -0.6614479218   -0.1770161257
C        0.3558733724   -0.6153490527   -0.2013302955
C        0.5944194573    0.7038499704    0.5904809001
C        0.9533887782   -1.8940759200    0.3921139846
C        0.7642611672   -0.4946429748   -1.6884366749
C        1.8574489904    1.4754906533    0.2329428681
C        0.4460991393    0.5448254168    2.1150697803
O       -1.9150640080   -1.5994956620   -0.3128223721
O       -1.6607243198    0.6019560525    0.0394404099
O       -0.5167035601    1.5138308004    0.0879777371
H        2.0385386734   -1.7915784794    0.4997111557
H        0.7553441763   -2.7351584904   -0.2768523445
H        0.5267227351   -2.1468435812    1.3642205894
H        1.8535216549   -0.5252401302   -1.7857987054
H        0.3958516828    0.4300605829   -2.1391783688
H        0.3514151716   -1.3380805121   -2.2485680675
H        1.8557235059    2.4446749931    0.7395082930
H        1.9488474333    1.6477219157   -0.8396196790
H        2.7323074944    0.9156848493    0.5790447385
H       -0.6052495104    0.5363795218    2.4091965455
H        0.9651457332    1.3562995274    2.6316117283
H        0.9087621507   -0.3792217005    2.4678559571
22   
torsion grid (-75,)
C       -1.1703128494   -0.6299907481   -0.2198613032
C        0.3548025986   -0.5951616866   -0.2225959071
C        0.5948533657    0.7184159370    0.5742443466
C        0.9285240562   -1.8747832873    0.3913402043
C        0.7879359044   -0.4840592321   -1.7022542348
C        1.8601141935    1.4908740168    0.2254525847
C        0.4503831597    0.5436469904    2.0918624685
O       -1.9202883029   -1.5619218976   -0.3808252995
O       -1.6593070586    0.6315656234    0.0099848552
O       -0.5132955703    1.5387418764    0.0833503915
H        2.0185437702   -1.8022353608    0.4701037396
H        0.6882083701   -2.7274666575   -0.2485754930
H        0.5191270988   -2.0838799541    1.3813043749
H        1.8786916061   -0.5124822752   -1.7814812951
H        0.4254303254    0.4372571996   -2.1649992442
H        0.3855723806   -1.3314775410   -2.2640725956
H        1.8725997199    2.4463368288    0.7572021513
H        1.9382752078    1.6914599684   -0.8433794028
H        2.7358282230    0.9160027781    0.5430697724
H       -0.5720629127    0.2789911223    2.3714162459
H        0.7361335218    1.4688718419    2.5989298611
H        1.1222696603   -0.2358815367    2.4599726227
22   
torsion grid (-60,)
C       -1.1773336675   -0.6236288202   -0.1384448072
C        0.3487713700   -0.6311646476   -0.1623543825
C        0.6339115802    0.6724215201    0.6279062108
C        0.8990109172   -1.9185249507    0.4567063199
C        0.7656518703   -0.5393203845   -1.6472954696
C        1.9118536926    1.4157239937    0.2572310614
C        0.5194566843    0.5003412242    2.1467046861
O       -1.9543021865   -1.5343900790   -0.2926113375
O       -1.6293427037    0.6499594773    0.1008026643
O       -0.4577188167    1.5274915796    0.1647834066
H        1.9934130117   -1.8871030637    0.4846177666
H        0.5966642362   -2.7758021886   -0.1499365079
H        0.5292718610   -2.0853357021    1.4701294989
H        1.8549928457   -0.5802497176   -1.7389943281
H        0.4086900051    0.3823025096   -2.1140303803
H        0.3467370226   -1.3868165277   -2.1967038760
H        1.9850245871    2.3450085645    0.8290728943
H        1.9461931731    1.6618856788   -0.8046418828
H        2.7796765076    0.7966574365    0.5049915783
H       -0.4304682780    0.0418452605    2.4341740636
H        0.5861347829    1.4809032312    2.6250465142
H        1.3329218729   -0.1207348521    2.5315985334
22   
torsion grid (-45,)
C       -1.1809820768   -0.6026306264   -0.1631212384
C        0.3456653847   -0.6206867765   -0.1840118692
C        0.6302380396    0.6773321224    0.6089341555
C        0.8972517600   -1.9079978468    0.4322670146
C        0.7650817931   -0.5236475250   -1.6680576151
C        1.9199052335    1.4113305388    0.2557313928
C        0.4979327087    0.5158255799    2.1296074161
O       -1.9645613542   -1.5088941266   -0.3096269972
O       -1.6237668782    0.6778532413    0.0596040030
O       -0.4424470446    1.5458388394    0.1309653413
H        1.9921897527   -1.8917618522    0.4210821128
H        0.5619273353   -2.7684254537   -0.1523619195
H        0.5630595387   -2.0566849643    1.4606946563
H        1.8546603711   -0.5630737074   -1.7573917055
H        0.4085071989    0.3994889621   -2.1318907403
H        0.3485367643   -1.3697441213   -2.2214777755
H        2.0151349783    2.3167183959    0.8619167640
H        1.9489712699    1.6963862810   -0.7967626871
H        2.7781077694    0.7676058517    0.4715978258
H       -0.3432274556   -0.1271795503    2.4038773690
H        0.3071552766    1.4980065110    2.5694561011
H        1.4075448178    0.0929189733    2.5641776281
22   
torsion grid (-30,)
C       -1.1974355856   -0.6097297244   -0.1103892505
C        0.3284784257   -0.6472319213   -0.1586087885
C        0.6359682506    0.6528851517    0.6210845983
C        0.8849946292   -1.9376034877    0.4460487211
C        0.7208576743   -0.5572595408   -1.6511088629
C        1.9335056893    1.3662507445    0.2530092486
C        0.5076507959    0.5212269341    2.1501046129
O       -1.9958252943   -1.5072173425   -0.2268511282
O       -1.6184291127    0.6817622326    0.0965970465
O       -0.4214764603    1.5330005841    0.1318361015
H        1.9792693246   -1.9296037894    0.4049746993
H        0.5279807574   -2.7962196044   -0.1283713422
H        0.5791180852   -2.0845597408    1.4832498339
H        1.8082928579   -0.6049720094   -1.7602241309
H        0.3623490901    0.3668842107   -2.1110867343
H        0.2885766603   -1.4023820668   -2.1938415355
H        2.0445807266    2.2740835533    0.8531229225
H        1.9600171321    1.6438969190   -0.8015541735
H        2.7836859233    0.7119173186    0.4687753628
H       -0.1759821686   -0.2791615513    2.4454365681
H        0.0781469294    1.4473319839    2.5398108171
H        1.4753162060    0.3292847786    2.6200700327
22   
torsion grid (-15,)
C       -1.0163060935   -1.0846261468   -0.0307557991
C        0.4672798659   -0.7349049979   -0.1182563011
C        0.4451601861    0.6237933395    0.6254095016
C        1.3507621314   -1.8288213336    0.4842679801
C        0.7905242660   -0.5817285910   -1.6231103478
C        1.5186530969    1.6274571594    0.2157991465
C        0.3562907630    0.5157188281    2.1651716575
O       -1.5629587669   -2.1584714171   -0.0956325394
O       -1.7469650921    0.0665999187    0.1441459820
O       -0.8020166560    1.1914273063    0.1187368336
H        2.4028385988   -1.5282387239    0.4392351235
H        1.2349226472   -2.7510608147   -0.0907282754
H        1.1006246068   -2.0569915454    1.5213520813
H        1.8533207724   -0.3622537805   -1.7611200598
H        0.2039478901    0.2148397779   -2.0868899687
H        0.5690486811   -1.5190366191   -2.1408377255
H        1.3900766338    2.5592679986    0.7742247237
H        1.4804777044    1.8553257566   -0.8501437042
H        2.5061771020    1.2221810481    0.4573887966
H        0.1560738625   -0.5000425570    2.5122842727
H       -0.4835713049    1.1254289680    2.5057887040
H        1.2762759926    0.8564629187    2.6454704628
22   
torsion grid (0,)
C       -1.0210294805   -1.0481927767   -0.0332456838
C        0.4660180509   -0.7182041499   -0.1206755540
C        0.4653995992    0.6420556520    0.6288164053
C        1.3320433375   -1.8339313710    0.4686604446
C        0.7891067661   -0.5607624819   -1.6258079740
C        1.5556340982    1.6259220477    0.2194654137
C        0.3662428003    0.5269551801    2.1704824556
O       -1.5828279024   -2.1140601654   -0.0987996550
O       -1.7350814254    0.1130603234    0.1449088410
O       -0.7751101964    1.2226836173    0.1170899553
H        2.3814002511   -1.5216510346    0.4957865476
H        1.2582520875   -2.7247979429   -0.1599838465
H        1.0294939344   -2.1241726148    1.4757262388
H        1.8581630749   -0.3749662649   -1.7654024589
H        0.2267308680    0.2579731795   -2.0805991803
H        0.5362061517   -1.4858324150   -2.1510478029
H        1.4153457128    2.5751947295    0.7444884771
H        1.5537241686    1.8211325271   -0.8533497086
H        2.5320889169    1.2229169332    0.5063142643
H        0.4552713401   -0.4954258319    2.5384198871
H       -0.6051701248    0.9078718201    2.4924889719
H        1.1438596948    1.1202519830    2.6576213453
22   
torsion grid (15,)
C       -1.0398295455   -1.0454504145   -0.0235762070
C        0.4490096462   -0.7275082459   -0.1136325578
C        0.4685941173    0.6358313547    0.6363921392
C        1.2971975151   -1.8570683235    0.4769454812
C        0.7715082719   -0.5765676322   -1.6193664127
C        1.5624257609    1.6086500196    0.2153292794
C        0.3855934952    0.5100619460    2.1754480030
O       -1.6103719232   -2.1063231247   -0.0962817481
O       -1.7437602501    0.1185990291    0.1685384272
O       -0.7785362109    1.2204256752    0.1421883196
H        2.3462430415   -1.5490144366    0.5412992063
H        1.2394196870   -2.7350251862   -0.1711358031
H        0.9617223769   -2.1668358079    1.4678558745
H        1.8440272371   -0.4145070129   -1.7621161405
H        0.2256907719    0.2541857394   -2.0728011804
H        0.4966282319   -1.4956660727   -2.1440565140
H        1.4060233576    2.5750234500    0.7031099719
H        1.5859060896    1.7663633886   -0.8631440234
H        2.5333633602    1.2210218228    0.5401042501
H        0.7734196668   -0.4336080150    2.5576767315
H       -0.6508334907    0.6282348534    2.4987789768
H        0.9559686148    1.3142773073    2.6485670473
22   
torsion grid (30,)
C       -1.0325767606   -0.9831603724   -0.0787204545
C        0.4615695628   -0.6849131937   -0.1399177647
C        0.4932563684    0.6719101291    0.6219802677
C        1.2751059189   -1.8317472721    0.4659546237
C        0.8145047594   -0.5327809305   -1.6381021690
C        1.6012243484    1.6356019676    0.2191217807
C        0.4065483479    0.5209699392    2.1524718199
O       -1.6153638200   -2.0348848635   -0.1816453831
O       -1.7248083778    0.1847681773    0.1277585499
O       -0.7482960415    1.2753151153    0.1367820552
H        2.3306959997   -1.5495773866    0.5417783904
H        1.2029844828   -2.7119276987   -0.1776534259
H        0.9181020560   -2.1239136996    1.4549945933
H        1.8911700567   -0.3819282941   -1.7602703391
H        0.2866744073    0.3059231275   -2.0985859225
H        0.5388660013   -1.4466498976   -2.1714436542
H        1.4485540858    2.6016495763    0.7084001685
H        1.6391151488    1.7973811659   -0.8583208172
H        2.5646698379    1.2374079684    0.5533480468
H        1.0288992008   -0.2870337302    2.5376047555
H       -0.6308232148    0.3743078956    2.4626323774
H        0.7376822681    1.4494879759    2.6271419595
22   
torsion grid (45,)
C       -1.0441474937   -0.9695404990   -0.0666471434
C        0.4550042721   -0.6933436155   -0.1239041505
C        0.5084920231    0.6597298748    0.6395239639
C        1.2444170438   -1.8493624543    0.4957174542
C        0.8176777878   -0.5522945229   -1.6197252813
C        1.6220528996    1.6145987175    0.2299153744
C        0.4444306626    0.5001322369    2.1649751949
O       -1.6410144830   -2.0117717466   -0.1861200467
O       -1.7205531699    0.2032154428    0.1589215931
O       -0.7320570220    1.2825639194    0.1790185354
H        2.3113272683   -1.6042623972    0.5308966153
H        1.1199535586   -2.7469593860   -0.1151484381
H        0.9073160714   -2.0915922933    1.5052066628
H        1.8957383833   -0.4078306084   -1.7368971700
H        0.2974986450    0.2872289540   -2.0878051924
H        0.5390014021   -1.4670886061   -2.1499557016
H        1.5022419204    2.5712708613    0.7458889856
H        1.6294857068    1.8017028679   -0.8442184452
H        2.5884443096    1.1920378718    0.5228398493
H        1.2424994125   -0.1396921696    2.5460352297
H       -0.5260723752    0.1060431432    2.4779666061
H        0.5482220406    1.4843540887    2.6309178847
22   
torsion grid (60,)
C       -1.0478787798   -0.9367343509   -0.0994173456
C        0.4553589378   -0.6754278036   -0.1403865655
C        0.5112704492    0.6733062469    0.6224522536
C        1.2298289752   -1.8326662126    0.4947078341
C        0.8367919373   -0.5398147392   -1.6316854822
C        1.6371562155    1.6215448936    0.2266345435
C        0.4367814690    0.5146275181    2.1452138048
O       -1.6533155850   -1.9734203442   -0.2241243031
O       -1.7157488352    0.2428459480    0.1159624041
O       -0.7160368559    1.3137594113    0.1530959541
H        2.3026388411   -1.6124469197    0.4996385976
H        1.0701769046   -2.7439087304   -0.0871664346
H        0.9110696245   -2.0357532751    1.5187955415
H        1.9157464540   -0.3919099788   -1.7353536531
H        0.3204221172    0.2967136547   -2.1093314196
H        0.5677041282   -1.4573670402   -2.1620899972
H        1.5517167441    2.5589869809    0.7832380273
H        1.6195310948    1.8515981812   -0.8392818112
H        2.6015246791    1.1673702502    0.4744796444
H        1.3508912426    0.0637398982    2.5403846105
H       -0.4154760053   -0.0999206771    2.4479350838
H        0.3143265272    1.5009234700    2.6004982156
22   
torsion grid (75,)
C       -1.0611517646   -0.9109554153   -0.1911942226
C        0.4422245910   -0.6433568656   -0.2072397145
C        0.4733309910    0.6993131550    0.5612083242
C        1.2210730670   -1.7941132691    0.4335542216
C        0.8457482722   -0.4960540294   -1.6916599398
C        1.6046477513    1.6558635276    0.1979772113
C        0.3632371018    0.5440643723    2.0839331859
O       -1.6602083802   -1.9505399215   -0.3225214522
O       -1.7369220805    0.2678872163    0.0056659915
O       -0.7392887060    1.3427688570    0.0606604451
H        2.2938559309   -1.5744093878    0.4236780701
H        1.0545638832   -2.7120117959   -0.1359083961
H        0.9157904789   -1.9850437599    1.4639838496
H        1.9237866533   -0.3308386978   -1.7768002290
H        0.3245425571    0.3345279831   -2.1742669640
H        0.5998628057   -1.4155675777   -2.2298739701
H        1.5268728218    2.5722973109    0.7899136682
H        1.5833467530    1.9252612223   -0.8588073504
H        2.5673045356    1.1873041818    0.4241534231
H        1.3423459587    0.3142645300    2.5153053636
H       -0.3171965435   -0.2599891883    2.3760364527
H        0.0059191644    1.4826856414    2.5137152454
22   
torsion grid (90,)
C       -1.0693348345   -0.8985050992   -0.1713214417
C        0.4377119119   -0.6524571158   -0.2006152313
C        0.4866997977    0.6904315208    0.5653472508
C        1.2157833881   -1.8112315592    0.4256678438
C        0.8280180317   -0.5056974611   -1.6892224840
C        1.6346883822    1.6289998752    0.2059300196
C        0.3582720962    0.5535386634    2.0936060239
O       -1.6856989354   -1.9301590689   -0.2825329767
O       -1.7253007120    0.2950201666    0.0091726247
O       -0.7074769422    1.3535721677    0.0467434587
H        2.2897794650   -1.5989863073    0.4006562625
H        1.0349786313   -2.7255747564   -0.1451966638
H        0.9260755874   -2.0064980267    1.4595464389
H        1.9068251848   -0.3513036250   -1.7843394021
H        0.3105169725    0.3309037941   -2.1649886879
H        0.5683660210   -1.4218903397   -2.2266484926
H        1.5648208817    2.5482998528    0.7947290845
H        1.6259483609    1.8951273133   -0.8518645204
H        2.5883617263    1.1473702469    0.4424720877
H        1.3505122656    0.5573799762    2.5558009433
H       -0.1220000541   -0.3764869028    2.4054319586
H       -0.2070107506    1.4030134194    2.4820050826
22   
torsion grid (105,)
C       -1.0751944020   -0.8890580923   -0.1739950155
C        0.4330058731   -0.6541734396   -0.2076302353
C        0.4896420179    0.6889039494    0.5625362083
C        1.2096976063   -1.8242711859    0.3983525594
C        0.8161595267   -0.4982459230   -1.6981008739
C        1.6504576533    1.6135045251    0.2099872884
C        0.3359754954    0.5598757407    2.0953301496
O       -1.6999714204   -1.9165630530   -0.2749754211
O       -1.7204047068    0.3126621682   -0.0039062428
O       -0.6916369771    1.3606298091    0.0247289088
H        2.2834052058   -1.6094832547    0.3840368696
H        1.0345066257   -2.7256331127   -0.1944935392
H        0.9153830062   -2.0472892740    1.4249379685
H        1.8966529353   -0.3595571067   -1.7983995770
H        0.3080863704    0.3499974083   -2.1627895612
H        0.5402777847   -1.4056819304   -2.2423020020
H        1.5723037570    2.5440549896    0.7797839806
H        1.6695034763    1.8596097388   -0.8524105954
H        2.5947621112    1.1304511791    0.4796386668
H        1.2737284267    0.8242128628    2.5932549348
H        0.0886208482   -0.4488637249    2.4292796710
H       -0.4367478471    1.2512282036    2.4361251224
22   
torsion grid (120,)
C       -1.0676737376   -0.8194173818   -0.1989986472
C        0.4429816249   -0.6064213626   -0.2214776671
C        0.5192838877    0.7311168674    0.5640872487
C        1.1945589347   -1.8012507944    0.3698890744
C        0.8370089952   -0.4392464242   -1.7085144709
C        1.6982059671    1.6353845082    0.2224749575
C        0.3505696489    0.5869852257    2.0972623044
O       -1.7081241073   -1.8354345645   -0.3151767471
O       -1.6951171797    0.3900386623   -0.0156409300
O       -0.6509238198    1.4204184000    0.0225680265
H        2.2635016997   -1.5747093146    0.4437672143
H        1.0749082082   -2.6685299132   -0.2841627757
H        0.8311318131   -2.0896034928    1.3571815027
H        1.9219667489   -0.3348361055   -1.8025644327
H        0.3584726701    0.4317506019   -2.1621810230
H        0.5340854749   -1.3288283995   -2.2674992712
H        1.6121484538    2.5796345859    0.7678472494
H        1.7532236485    1.8563316319   -0.8439219347
H        2.6283019909    1.1495071262    0.5338945367
H        1.1577016166    1.1018846558    2.6247660531
H        0.3487312403   -0.4467770943    2.4430235613
H       -0.5931424506    1.0468779611    2.3970831281
22   
torsion grid (135,)
C       -1.0860487982   -0.8155466190   -0.1841361767
C        0.4254488000   -0.6147071982   -0.2128540316
C        0.5232521992    0.7257027603    0.5714096989
C        1.1612414506   -1.8208720431    0.3769392345
C        0.8144954012   -0.4546741220   -1.7019633742
C        1.7055593386    1.6177404331    0.2150031325
C        0.3726395270    0.5748853271    2.1029886150
O       -1.7349074373   -1.8261845671   -0.3020666334
O       -1.7031001176    0.3965162703    0.0097786411
O       -0.6537788535    1.4185102072    0.0454297293
H        2.2274808292   -1.5966212261    0.4878979619
H        1.0613921600   -2.6753896911   -0.2968500117
H        0.7657337029   -2.1285599374    1.3460950230
H        1.9010089589   -0.3752250410   -1.8025069284
H        0.3529721880    0.4272096474   -2.1523711851
H        0.4879033944   -1.3365330337   -2.2598719506
H        1.6087170196    2.5811798185    0.7236502693
H        1.7808464672    1.7998740488   -0.8572336226
H        2.6301714913    1.1454759025    0.5621709676
H        0.9892175427    1.3061523815    2.6305673275
H        0.6316348209   -0.4201770062    2.4646028530
H       -0.6688961733    0.7541237534    2.3805912805
22   
torsion grid (150,)
C       -1.0776584224   -0.7654407253   -0.2059973299
C        0.4366647890   -0.5867447870   -0.2174141954
C        0.5530388925    0.7481950407    0.5748098177
C        1.1388675112   -1.8085662250    0.3816004957
C        0.8453627332   -0.4307156116   -1.7011090032
C        1.7457145084    1.6278739595    0.2240339221
C        0.4096829406    0.5779209846    2.0988658204
O       -1.7387565689   -1.7649639820   -0.3482733236
O       -1.6805563399    0.4502306329    0.0056757294
O       -0.6206860807    1.4582297179    0.0646496471
H        2.2089288824   -1.6095113278    0.5035355137
H        1.0254942140   -2.6622223940   -0.2911184402
H        0.7243047836   -2.1019706131    1.3475381442
H        1.9338935674   -0.3656844220   -1.7892472035
H        0.4011710416    0.4581876920   -2.1555194971
H        0.5126382743   -1.3070719609   -2.2640124572
H        1.6587935418    2.5910514533    0.7346763907
H        1.8253256919    1.8121825282   -0.8475213861
H        2.6644738461    1.1444560295    0.5714556089
H        0.8066020634    1.4480258551    2.6263393536
H        0.9033959988   -0.3226799861    2.4660215892
H       -0.6483241267    0.4822507134    2.3586966432
22   
torsion grid (165,)
C       -1.0819556662   -0.7360454129   -0.2212928302
C        0.4354318603   -0.5794179485   -0.2183111749
C        0.5675974224    0.7489078797    0.5787858455
C        1.1077614975   -1.8098445472    0.3962881957
C        0.8630201141   -0.4332103099   -1.6967008219
C        1.7669982525    1.6211039462    0.2312784279
C        0.4347072512    0.5642945203    2.0966412111
O       -1.7541623412   -1.7249704238   -0.3858240600
O       -1.6712418899    0.4821065766    0.0066549133
O       -0.6019023363    1.4779895743    0.0869023391
H        2.1876211394   -1.6488585894    0.4829288281
H        0.9421296807   -2.6772250960   -0.2475335488
H        0.7098320593   -2.0557155206    1.3825096960
H        1.9527487004   -0.3734970883   -1.7723069245
H        0.4289296057    0.4560528647   -2.1605148036
H        0.5319921049   -1.3101277414   -2.2597671867
H        1.7031031086    2.5729241895    0.7659244520
H        1.8292755902    1.8302965105   -0.8369676238
H        2.6856300175    1.1173675704    0.5485378243
H        0.6118369990    1.5121389822    2.6100165846
H        1.1310329354   -0.1874557337    2.4740250618
H       -0.5736155267    0.2254694060    2.3523248276
22   
torsion grid (180,)
C       -1.0797061767   -0.7011372404   -0.2496185808
C        0.4399925358   -0.5603154108   -0.2321970363
C        0.5755536177    0.7612665248    0.5678914274
C        1.0961353741   -1.7916195522    0.3970725283
C        0.8845581468   -0.4199249434   -1.7054346176
C        1.7863462781    1.6253836291    0.2353817816
C        0.4340452355    0.5724216510    2.0824224869
O       -1.7605051815   -1.6826204451   -0.4228371936
O       -1.6593042948    0.5226283029   -0.0254604826
O       -0.5799183244    1.5086753368    0.0744547451
H        2.1818641937   -1.6573522205    0.4483880012
H        0.8888097212   -2.6716471102   -0.2169034945
H        0.7222610022   -1.9960028626    1.4020616670
H        1.9749221562   -0.3574412036   -1.7684243480
H        0.4543573344    0.4669603681   -2.1775750438
H        0.5621111224   -1.2995868232   -2.2692146466
H        1.7532105265    2.5550627696    0.8102505139
H        1.8276817917    1.8778905757   -0.8247700122
H        2.7020204191    1.0914326110    0.5077247387
H        0.3913888914    1.5512105694    2.5668129891
H        1.2819615691    0.0158136531    2.4902404477
H       -0.4810471410    0.0298487006    2.3358113982
