
  -OEChem-05262117483D

 23 24  0     0  0  0  0  0  0999 V2000
    2.1546   -1.2846   -0.1345 C   0  0  0  0  0  0  0  0  0  0  0  0
    0.9511   -0.6688    0.2327 C   0  0  0  0  0  0  0  0  0  0  0  0
   -0.9613   -3.4885    4.7240 C   0  0  0  0  0  0  0  0  0  0  0  0
   -1.1675   -3.1665    6.0694 C   0  0  0  0  0  0  0  0  0  0  0  0
    3.0668   -1.7070    0.8354 C   0  0  0  0  0  0  0  0  0  0  0  0
    0.6552   -0.4818    1.5863 C   0  0  0  0  0  0  0  0  0  0  0  0
   -0.1233   -2.6900    3.9472 C   0  0  0  0  0  0  0  0  0  0  0  0
   -0.5086   -2.0464    6.5787 C   0  0  0  0  0  0  0  0  0  0  0  0
    2.7723   -1.5231    2.1905 C   0  0  0  0  0  0  0  0  0  0  0  0
    1.5589   -0.9193    2.5507 C   0  0  0  0  0  0  0  0  0  0  0  0
    0.4759   -1.5862    4.5733 C   0  0  0  0  0  0  0  0  0  0  0  0
    0.3017   -1.2658    5.8495 N   0  0  0  0  0  0  0  0  0  0  0  0
    3.6619   -1.9365    3.1402 O   0  0  0  0  0  0  0  0  0  0  0  0
    1.3340   -0.7248    3.9144 O   0  0  0  0  0  0  0  0  0  0  0  0
    2.3901   -1.4306   -1.1852 H   0  0  0  0  0  0  0  0  0  0  0  0
    0.2519   -0.3314   -0.5266 H   0  0  0  0  0  0  0  0  0  0  0  0
   -1.4445   -4.3549    4.2800 H   0  0  0  0  0  0  0  0  0  0  0  0
   -1.8138   -3.7635    6.7053 H   0  0  0  0  0  0  0  0  0  0  0  0
    4.0083   -2.1752    0.5638 H   0  0  0  0  0  0  0  0  0  0  0  0
   -0.2675   -0.0048    1.9048 H   0  0  0  0  0  0  0  0  0  0  0  0
    0.0609   -2.9135    2.9032 H   0  0  0  0  0  0  0  0  0  0  0  0
   -0.6314   -1.7566    7.6210 H   0  0  0  0  0  0  0  0  0  0  0  0
    3.3342   -1.6288    4.0049 H   0  0  0  0  0  0  0  0  0  0  0  0
  1  2  1  0  0  0  0
  1  5  2  0  0  0  0
  1 15  1  0  0  0  0
  2  6  2  0  0  0  0
  2 16  1  0  0  0  0
  3  4  1  0  0  0  0
  3  7  2  0  0  0  0
  3 17  1  0  0  0  0
  4  8  2  0  0  0  0
  4 18  1  0  0  0  0
  5  9  1  0  0  0  0
  5 19  1  0  0  0  0
  6 10  1  0  0  0  0
  6 20  1  0  0  0  0
  7 11  1  0  0  0  0
  7 21  1  0  0  0  0
  8 12  1  0  0  0  0
  8 22  1  0  0  0  0
  9 10  2  0  0  0  0
  9 13  1  0  0  0  0
 10 14  1  0  0  0  0
 11 12  2  0  0  0  0
 11 14  1  0  0  0  0
 13 23  1  0  0  0  0
M  END
$$$$
