21
0 1 C8H10O2S
C                     1.848924530878    -1.009094897039    -0.198840072611
C                     2.943309739475    -1.582363687371     0.456364828946
C                     0.749701944062    -0.562525180596     0.543880150755
C                     2.934638107232    -1.709354941165     1.848371366064
C                     0.741985656604    -0.687624863992     1.934626081922
C                     1.836854930054    -1.262713632338     2.598501753163
C                     1.197013789208    -4.208902577390     3.702152553088
C                     1.822994884598    -1.432579379377     4.090115941074
O                     0.984250122250    -3.015395301591     6.075011958264
O                    -0.678039586128    -2.401350687206     4.231694525609
S                     0.686739079551    -2.760390682928     4.655067579102
H                     1.853063897898    -0.908649018960    -1.280982872274
H                     3.802052907672    -1.927450602990    -0.113349742650
H                    -0.103452541279    -0.117722841952     0.038672852651
H                     3.789013071016    -2.153738679468     2.354797819669
H                    -0.120571191206    -0.361686897796     2.508337095065
H                     0.549788086222    -5.021004039779     4.038871446597
H                     1.048988101130    -4.012277233117     2.640477513000
H                     2.239780581419    -4.437002720682     3.928558043405
H                     1.435187741474    -0.555197811929     4.616313481874
H                     2.803849461898    -1.682890545438     4.500243292101
