
  -OEChem-05262117483D

 26 27  0     0  0  0  0  0  0999 V2000
    1.5451   -2.3572   -0.2815 C   0  0  0  0  0  0  0  0  0  0  0  0
    1.5554   -0.9595   -0.2142 C   0  0  0  0  0  0  0  0  0  0  0  0
    2.6737   -3.0646    0.1221 C   0  0  0  0  0  0  0  0  0  0  0  0
    2.6883   -0.2918    0.2421 C   0  0  0  0  0  0  0  0  0  0  0  0
    3.8353   -2.4140    0.5780 C   0  0  0  0  0  0  0  0  0  0  0  0
    3.8396   -0.9983    0.6369 C   0  0  0  0  0  0  0  0  0  0  0  0
    5.0042   -3.2221    1.0187 C   0  0  0  0  0  0  0  0  0  0  0  0
    6.2560   -0.4826    0.7546 C   0  0  0  0  0  0  0  0  0  0  0  0
    6.4937   -1.7494   -0.0557 C   0  0  0  0  0  0  0  0  0  0  0  0
    4.7350   -4.4685    1.8312 C   0  0  0  0  0  0  0  0  0  0  0  0
    4.6845    0.9555    1.9203 C   0  0  0  0  0  0  0  0  0  0  0  0
    6.2271   -2.9317    0.7569 N   0  0  0  0  0  0  0  0  0  0  0  0
    4.9401   -0.2668    1.1496 N   0  0  0  0  0  0  0  0  0  0  0  0
    7.1539    0.2902    1.0652 O   0  0  0  0  0  0  0  0  0  0  0  0
    0.6671   -2.8863   -0.6407 H   0  0  0  0  0  0  0  0  0  0  0  0
    0.6838   -0.3883   -0.5224 H   0  0  0  0  0  0  0  0  0  0  0  0
    2.6630   -4.1492    0.0791 H   0  0  0  0  0  0  0  0  0  0  0  0
    2.6889    0.7923    0.2827 H   0  0  0  0  0  0  0  0  0  0  0  0
    5.8705   -1.7221   -0.9617 H   0  0  0  0  0  0  0  0  0  0  0  0
    7.5435   -1.7458   -0.3477 H   0  0  0  0  0  0  0  0  0  0  0  0
    4.2314   -5.2347    1.2312 H   0  0  0  0  0  0  0  0  0  0  0  0
    4.0859   -4.2488    2.6854 H   0  0  0  0  0  0  0  0  0  0  0  0
    5.6836   -4.8764    2.1831 H   0  0  0  0  0  0  0  0  0  0  0  0
    5.5299    1.1204    2.5876 H   0  0  0  0  0  0  0  0  0  0  0  0
    3.7710    0.8259    2.5028 H   0  0  0  0  0  0  0  0  0  0  0  0
    4.5878    1.8364    1.2754 H   0  0  0  0  0  0  0  0  0  0  0  0
  1  2  1  0  0  0  0
  1  3  2  0  0  0  0
  1 15  1  0  0  0  0
  2  4  2  0  0  0  0
  2 16  1  0  0  0  0
  3  5  1  0  0  0  0
  3 17  1  0  0  0  0
  4  6  1  0  0  0  0
  4 18  1  0  0  0  0
  5  6  2  0  0  0  0
  5  7  1  0  0  0  0
  6 13  1  0  0  0  0
  7 10  1  0  0  0  0
  7 12  2  0  0  0  0
  8  9  1  0  0  0  0
  8 13  1  0  0  0  0
  8 14  2  0  0  0  0
  9 12  1  0  0  0  0
  9 19  1  0  0  0  0
  9 20  1  0  0  0  0
 10 21  1  0  0  0  0
 10 22  1  0  0  0  0
 10 23  1  0  0  0  0
 11 13  1  0  0  0  0
 11 24  1  0  0  0  0
 11 25  1  0  0  0  0
 11 26  1  0  0  0  0
M  END
$$$$
