
  -OEChem-05262117483D

 23 24  0     0  0  0  0  0  0999 V2000
    2.3451   -0.6858   -0.1840 C   0  0  0  0  0  0  0  0  0  0  0  0
    0.9900   -0.7433    0.1614 C   0  0  0  0  0  0  0  0  0  0  0  0
    0.6189   -4.0241    6.2695 C   0  0  0  0  0  0  0  0  0  0  0  0
    1.7416   -4.8345    6.0335 C   0  0  0  0  0  0  0  0  0  0  0  0
    3.3242   -0.9672    0.7681 C   0  0  0  0  0  0  0  0  0  0  0  0
    0.6335   -1.0671    1.4713 C   0  0  0  0  0  0  0  0  0  0  0  0
    0.4129   -2.8968    5.4859 C   0  0  0  0  0  0  0  0  0  0  0  0
    2.6161   -4.4584    5.0219 C   0  0  0  0  0  0  0  0  0  0  0  0
    2.9811   -1.2970    2.0884 C   0  0  0  0  0  0  0  0  0  0  0  0
    1.6145   -1.3370    2.4267 C   0  0  0  0  0  0  0  0  0  0  0  0
    1.3539   -2.6152    4.4797 C   0  0  0  0  0  0  0  0  0  0  0  0
    2.4316   -3.3640    4.2575 N   0  0  0  0  0  0  0  0  0  0  0  0
    3.9826   -1.5334    2.9796 O   0  0  0  0  0  0  0  0  0  0  0  0
    1.1376   -1.4963    3.7419 O   0  0  0  0  0  0  0  0  0  0  0  0
    2.6409   -0.4286   -1.1976 H   0  0  0  0  0  0  0  0  0  0  0  0
    0.2200   -0.5328   -0.5751 H   0  0  0  0  0  0  0  0  0  0  0  0
   -0.0899   -4.2779    7.0533 H   0  0  0  0  0  0  0  0  0  0  0  0
    1.9331   -5.7257    6.6221 H   0  0  0  0  0  0  0  0  0  0  0  0
    4.3808   -0.9373    0.5183 H   0  0  0  0  0  0  0  0  0  0  0  0
   -0.4071   -1.0961    1.7820 H   0  0  0  0  0  0  0  0  0  0  0  0
   -0.4410   -2.2412    5.6176 H   0  0  0  0  0  0  0  0  0  0  0  0
    3.5096   -5.0396    4.8050 H   0  0  0  0  0  0  0  0  0  0  0  0
    3.6566   -2.2517    3.5783 H   0  0  0  0  0  0  0  0  0  0  0  0
  1  2  1  0  0  0  0
  1  5  2  0  0  0  0
  1 15  1  0  0  0  0
  2  6  2  0  0  0  0
  2 16  1  0  0  0  0
  3  4  1  0  0  0  0
  3  7  2  0  0  0  0
  3 17  1  0  0  0  0
  4  8  2  0  0  0  0
  4 18  1  0  0  0  0
  5  9  1  0  0  0  0
  5 19  1  0  0  0  0
  6 10  1  0  0  0  0
  6 20  1  0  0  0  0
  7 11  1  0  0  0  0
  7 21  1  0  0  0  0
  8 12  1  0  0  0  0
  8 22  1  0  0  0  0
  9 10  2  0  0  0  0
  9 13  1  0  0  0  0
 10 14  1  0  0  0  0
 11 12  2  0  0  0  0
 11 14  1  0  0  0  0
 13 23  1  0  0  0  0
M  END
$$$$
