
  -OEChem-05262117483D

 19 19  0     0  0  0  0  0  0999 V2000
    1.8929   -1.0852   -0.2027 C   0  0  0  0  0  0  0  0  0  0  0  0
    0.8105   -0.4808    0.4337 C   0  0  0  0  0  0  0  0  0  0  0  0
    2.9054   -1.6694    0.5713 C   0  0  0  0  0  0  0  0  0  0  0  0
    0.7357   -0.4576    1.8330 C   0  0  0  0  0  0  0  0  0  0  0  0
    2.8599   -1.6628    1.9666 C   0  0  0  0  0  0  0  0  0  0  0  0
    1.7545   -1.0450    2.5919 C   0  0  0  0  0  0  0  0  0  0  0  0
    3.9449   -2.2887    2.8065 C   0  0  0  0  0  0  0  0  0  0  0  0
    0.6882   -0.4634    4.6586 C   0  0  0  0  0  0  0  0  0  0  0  0
    1.7702   -1.0731    3.9649 O   0  0  0  0  0  0  0  0  0  0  0  0
    1.9541   -1.1049   -1.2873 H   0  0  0  0  0  0  0  0  0  0  0  0
    0.0159   -0.0227   -0.1496 H   0  0  0  0  0  0  0  0  0  0  0  0
    3.7525   -2.1426    0.0792 H   0  0  0  0  0  0  0  0  0  0  0  0
   -0.1136    0.0167    2.3120 H   0  0  0  0  0  0  0  0  0  0  0  0
    4.4068   -1.5500    3.4704 H   0  0  0  0  0  0  0  0  0  0  0  0
    3.5416   -3.0785    3.4494 H   0  0  0  0  0  0  0  0  0  0  0  0
    4.7244   -2.7214    2.1738 H   0  0  0  0  0  0  0  0  0  0  0  0
    0.9014   -0.5950    5.7205 H   0  0  0  0  0  0  0  0  0  0  0  0
   -0.2664   -0.9478    4.4176 H   0  0  0  0  0  0  0  0  0  0  0  0
    0.6198    0.6080    4.4324 H   0  0  0  0  0  0  0  0  0  0  0  0
  1  2  1  0  0  0  0
  1  3  2  0  0  0  0
  1 10  1  0  0  0  0
  2  4  2  0  0  0  0
  2 11  1  0  0  0  0
  3  5  1  0  0  0  0
  3 12  1  0  0  0  0
  4  6  1  0  0  0  0
  4 13  1  0  0  0  0
  5  6  2  0  0  0  0
  5  7  1  0  0  0  0
  6  9  1  0  0  0  0
  7 14  1  0  0  0  0
  7 15  1  0  0  0  0
  7 16  1  0  0  0  0
  8  9  1  0  0  0  0
  8 17  1  0  0  0  0
  8 18  1  0  0  0  0
  8 19  1  0  0  0  0
M  END
$$$$
