19
0 1 C8H10O
C                     1.892909952300    -1.085233268659    -0.202683719530
C                     0.810548792952    -0.480771746636     0.433714435631
C                     2.905361526221    -1.669433452552     0.571339939399
C                     0.735697972987    -0.457564346680     1.833016865955
C                     2.859903192951    -1.662793310453     1.966561016401
C                     1.754476744188    -1.045041455159     2.591924726031
C                     3.944858103813    -2.288698802295     2.806540111052
C                     0.688164947545    -0.463430625318     4.658556290990
O                     1.770242018107    -1.073139939529     3.964920291391
H                     1.954098512082    -1.104928138459    -1.287264047011
H                     0.015880766845    -0.022654076389    -0.149629603037
H                     3.752472654355    -2.142571934343     0.079244483093
H                    -0.113607711249     0.016651222405     2.311996199418
H                     4.406838270272    -1.550046173643     3.470424365547
H                     3.541567637680    -3.078516231335     3.449445706542
H                     4.724434704969    -2.721361953312     2.173827050735
H                     0.901364931697    -0.595020127442     5.720523177601
H                    -0.266427289763    -0.947821324937     4.417636252966
H                     0.619772264468     0.608045485809     4.432441832263
