29
0 1 C12H15NO
C                     1.282016604080     1.454746834986    -7.726505758321
C                     0.510017921124     2.618249964027    -7.629514005109
C                     1.180158436694     0.468287874141    -6.739587418740
C                    -0.360067589072     2.794391414111    -6.551322539927
C                     0.326352031488     0.655146046467    -5.649446682341
C                    -0.443073029854     1.823098349326    -5.544779012600
C                    -1.444926030929     2.020030743384    -4.439434660389
C                    -0.377990313187     0.615694631262    -0.566654482665
C                     0.632846852191     0.634442374399    -1.721874744792
C                    -1.816339047103     0.625152049329    -1.102418827752
C                     0.339894279572     1.793509379132    -2.678823969147
C                    -2.043066679339     1.782561845666    -2.080921556317
N                    -1.045871205025     1.735535644990    -3.154234452125
O                    -2.595291176816     2.375382585618    -4.712117428044
H                     1.951530642625     1.313297703073    -8.571097203874
H                     0.578602647902     3.382023529178    -8.399841392971
H                     1.761913927709    -0.446378911016    -6.820667363572
H                    -0.988844338249     3.677271714872    -6.482909308899
H                     0.240720210126    -0.116107872482    -4.888389923573
H                    -0.220175624602     1.502882640897     0.062084493843
H                    -0.212300472854    -0.257962343555     0.073387893691
H                     1.655635225576     0.730465251765    -1.339738836170
H                     0.579129311521    -0.309777396901    -2.278459228560
H                    -2.023799469393    -0.318755703213    -1.621664620453
H                    -2.533786190229     0.706006442958    -0.277907609428
H                     0.485644743773     2.747997013981    -2.147936552984
H                     1.023321037873     1.790138726679    -3.525560471566
H                    -3.030784864983     1.739592428614    -2.538175572314
H                    -1.964716849697     2.745540287613    -1.553008417709
