
  -OEChem-05262117483D

 26 27  0     0  0  0  0  0  0999 V2000
    1.7569   -1.2375   -0.2124 C   0  0  0  0  0  0  0  0  0  0  0  0
    0.6988   -0.5529    0.3997 C   0  0  0  0  0  0  0  0  0  0  0  0
    2.7877   -1.7344    0.5809 C   0  0  0  0  0  0  0  0  0  0  0  0
    0.6939   -0.3557    1.7775 C   0  0  0  0  0  0  0  0  0  0  0  0
    5.8181   -2.5707    3.6148 C   0  0  0  0  0  0  0  0  0  0  0  0
    4.8220   -3.4796    4.0514 C   0  0  0  0  0  0  0  0  0  0  0  0
    2.7909   -1.5465    1.9693 C   0  0  0  0  0  0  0  0  0  0  0  0
    1.7405   -0.8357    2.5843 C   0  0  0  0  0  0  0  0  0  0  0  0
    5.1641   -1.7040    2.7521 C   0  0  0  0  0  0  0  0  0  0  0  0
    5.6591   -0.5198    1.9833 C   0  0  0  0  0  0  0  0  0  0  0  0
    2.7657   -0.3664    4.7358 C   0  0  0  0  0  0  0  0  0  0  0  0
    3.6330   -3.2094    3.5133 N   0  0  0  0  0  0  0  0  0  0  0  0
    3.8576   -2.1189    2.7222 N   0  0  0  0  0  0  0  0  0  0  0  0
    1.6070   -0.5852    3.9176 O   0  0  0  0  0  0  0  0  0  0  0  0
    1.7677   -1.3969   -1.2865 H   0  0  0  0  0  0  0  0  0  0  0  0
   -0.1214   -0.1656   -0.1990 H   0  0  0  0  0  0  0  0  0  0  0  0
    3.6019   -2.3038    0.1412 H   0  0  0  0  0  0  0  0  0  0  0  0
   -0.1122    0.1823    2.2672 H   0  0  0  0  0  0  0  0  0  0  0  0
    6.8655   -2.5451    3.8850 H   0  0  0  0  0  0  0  0  0  0  0  0
    4.9195   -4.3179    4.7307 H   0  0  0  0  0  0  0  0  0  0  0  0
    5.6622   -0.7051    0.9042 H   0  0  0  0  0  0  0  0  0  0  0  0
    5.0323    0.3615    2.1567 H   0  0  0  0  0  0  0  0  0  0  0  0
    6.6801   -0.2818    2.2899 H   0  0  0  0  0  0  0  0  0  0  0  0
    2.3946    0.1468    5.6251 H   0  0  0  0  0  0  0  0  0  0  0  0
    3.4895    0.2774    4.2251 H   0  0  0  0  0  0  0  0  0  0  0  0
    3.2376   -1.3072    5.0240 H   0  0  0  0  0  0  0  0  0  0  0  0
  1  2  1  0  0  0  0
  1  3  2  0  0  0  0
  1 15  1  0  0  0  0
  2  4  2  0  0  0  0
  2 16  1  0  0  0  0
  3  7  1  0  0  0  0
  3 17  1  0  0  0  0
  4  8  1  0  0  0  0
  4 18  1  0  0  0  0
  5  6  1  0  0  0  0
  5  9  2  0  0  0  0
  5 19  1  0  0  0  0
  6 12  2  0  0  0  0
  6 20  1  0  0  0  0
  7  8  2  0  0  0  0
  7 13  1  0  0  0  0
  8 14  1  0  0  0  0
  9 10  1  0  0  0  0
  9 13  1  0  0  0  0
 10 21  1  0  0  0  0
 10 22  1  0  0  0  0
 10 23  1  0  0  0  0
 11 14  1  0  0  0  0
 11 24  1  0  0  0  0
 11 25  1  0  0  0  0
 11 26  1  0  0  0  0
 12 13  1  0  0  0  0
M  END
$$$$
