17
0 1 C8F2H6O
C                     1.822523816336    -1.045255719011     0.671072523640
C                     2.953487150763    -1.483396446837     1.363426570279
C                     0.717047349743    -0.542641103483     1.361354180028
C                     1.874386934848    -0.922974930866     3.500631711062
C                     2.955448741889    -1.422018309319     2.753128016759
C                     0.775115362098    -0.487431674670     2.748257342710
C                     1.913706473801    -0.892815327719     5.009620781798
C                     1.297185183068     0.294264916227     5.723428090607
O                     2.445633897812    -1.801569420106     5.625771791362
F                     4.067739777973    -1.823766086297     3.394856970846
F                    -0.313093697562    -0.008988609392     3.404065855544
H                     1.802533655069    -1.094405624254    -0.413562287927
H                     3.828615100639    -1.867377543476     0.849548899373
H                    -0.177467552299    -0.202996701391     0.849803428320
H                     0.218496111388     0.139168526305     5.825017256050
H                     1.442887058218     1.226554905907     5.171021926594
H                     1.737371651781     0.365639142462     6.719620911694
