
  -OEChem-05262117483D

 26 27  0     0  0  0  0  0  0999 V2000
    1.5519   -1.0385   -0.2161 C   0  0  0  0  0  0  0  0  0  0  0  0
    0.4482   -0.5086    0.4622 C   0  0  0  0  0  0  0  0  0  0  0  0
    2.6093   -1.5919    0.5072 C   0  0  0  0  0  0  0  0  0  0  0  0
    0.4180   -0.5080    1.8585 C   0  0  0  0  0  0  0  0  0  0  0  0
    4.9017   -3.4761    3.9066 C   0  0  0  0  0  0  0  0  0  0  0  0
    5.6684   -2.4781    3.2558 C   0  0  0  0  0  0  0  0  0  0  0  0
    2.5739   -1.6119    1.9046 C   0  0  0  0  0  0  0  0  0  0  0  0
    1.4844   -1.0429    2.5880 C   0  0  0  0  0  0  0  0  0  0  0  0
    3.5991   -3.2776    3.4733 C   0  0  0  0  0  0  0  0  0  0  0  0
    2.3414   -4.0299    3.7708 C   0  0  0  0  0  0  0  0  0  0  0  0
    2.3682   -0.1664    4.6122 C   0  0  0  0  0  0  0  0  0  0  0  0
    4.9164   -1.7061    2.4728 N   0  0  0  0  0  0  0  0  0  0  0  0
    3.6501   -2.2033    2.6210 N   0  0  0  0  0  0  0  0  0  0  0  0
    1.4138   -1.0288    3.9635 O   0  0  0  0  0  0  0  0  0  0  0  0
    1.5849   -1.0294   -1.3018 H   0  0  0  0  0  0  0  0  0  0  0  0
   -0.3842   -0.0867   -0.0947 H   0  0  0  0  0  0  0  0  0  0  0  0
    3.4733   -2.0178    0.0064 H   0  0  0  0  0  0  0  0  0  0  0  0
   -0.4189   -0.0857    2.4072 H   0  0  0  0  0  0  0  0  0  0  0  0
    5.2438   -4.2466    4.5847 H   0  0  0  0  0  0  0  0  0  0  0  0
    6.7330   -2.2884    3.3233 H   0  0  0  0  0  0  0  0  0  0  0  0
    1.6573   -3.4351    4.3825 H   0  0  0  0  0  0  0  0  0  0  0  0
    1.8136   -4.2972    2.8493 H   0  0  0  0  0  0  0  0  0  0  0  0
    2.5831   -4.9510    4.3060 H   0  0  0  0  0  0  0  0  0  0  0  0
    2.1681   -0.2506    5.6817 H   0  0  0  0  0  0  0  0  0  0  0  0
    2.2198    0.8706    4.2887 H   0  0  0  0  0  0  0  0  0  0  0  0
    3.3969   -0.4721    4.4034 H   0  0  0  0  0  0  0  0  0  0  0  0
  1  2  1  0  0  0  0
  1  3  2  0  0  0  0
  1 15  1  0  0  0  0
  2  4  2  0  0  0  0
  2 16  1  0  0  0  0
  3  7  1  0  0  0  0
  3 17  1  0  0  0  0
  4  8  1  0  0  0  0
  4 18  1  0  0  0  0
  5  6  1  0  0  0  0
  5  9  2  0  0  0  0
  5 19  1  0  0  0  0
  6 12  2  0  0  0  0
  6 20  1  0  0  0  0
  7  8  2  0  0  0  0
  7 13  1  0  0  0  0
  8 14  1  0  0  0  0
  9 10  1  0  0  0  0
  9 13  1  0  0  0  0
 10 21  1  0  0  0  0
 10 22  1  0  0  0  0
 10 23  1  0  0  0  0
 11 14  1  0  0  0  0
 11 24  1  0  0  0  0
 11 25  1  0  0  0  0
 11 26  1  0  0  0  0
 12 13  1  0  0  0  0
M  END
$$$$
