
  -OEChem-05262117483D

 53 56  0     1  0  0  0  0  0999 V2000
   -2.4335    2.1271   -0.0047 C   0  0  0  0  0  0  0  0  0  0  0  0
   -3.6090    1.4404    0.3003 C   0  0  0  0  0  0  0  0  0  0  0  0
    4.4348   -3.1128   -3.6209 C   0  0  0  0  0  0  0  0  0  0  0  0
    3.7982   -5.0215   -2.2479 C   0  0  0  0  0  0  0  0  0  0  0  0
    5.7499   -3.5719   -3.6546 C   0  0  0  0  0  0  0  0  0  0  0  0
    5.1164   -5.4846   -2.2793 C   0  0  0  0  0  0  0  0  0  0  0  0
   -2.4053   -0.6972    0.4461 C   0  0  0  0  0  0  0  0  0  0  0  0
   -1.2123   -0.0147    0.1450 C   0  0  0  0  0  0  0  0  0  0  0  0
    0.1569   -0.4282   -0.0038 C   0  0  0  0  0  0  0  0  0  0  0  0
   -1.2460    1.3926   -0.0838 C   0  0  0  0  0  0  0  0  0  0  0  0
   -3.5668    0.0538    0.5156 C   0  0  0  0  0  0  0  0  0  0  0  0
    3.4736   -3.8399   -2.9133 C   0  0  0  0  0  0  0  0  0  0  0  0
    6.0778   -4.7541   -2.9801 C   0  0  0  0  0  0  0  0  0  0  0  0
    0.8890    0.7018   -0.3061 C   0  0  0  0  0  0  0  0  0  0  0  0
    1.1487    5.3041    0.6641 C   0  0  0  0  0  0  0  0  0  0  0  0
    0.7662   -1.7981    0.1022 C   0  0  0  0  0  0  0  0  0  0  0  0
    2.3621    0.7354   -0.5778 C   0  0  0  0  0  0  0  0  0  0  0  0
    2.9930   -0.6171   -0.1917 C   0  0  0  0  0  0  0  0  0  0  0  0
    2.1259   -1.8120   -0.6207 C   0  0  2  0  0  0  0  0  0  0  0  0
    1.6852    7.3003    1.8133 C   0  0  0  0  0  0  0  0  0  0  0  0
    0.6823    3.8732    0.8229 C   0  0  0  0  0  0  0  0  0  0  0  0
    0.4662    3.1885   -0.5322 C   0  0  0  0  0  0  0  0  0  0  0  0
    0.0477    1.8070   -0.3806 N   0  0  0  0  0  0  0  0  0  0  0  0
    1.9800   -1.7783   -2.0961 N   0  0  0  0  0  0  0  0  0  0  0  0
    1.4218    5.8348   -0.3968 O   0  0  0  0  0  0  0  0  0  0  0  0
    1.3491   -2.8985   -4.2426 O   0  0  0  0  0  0  0  0  0  0  0  0
    1.0106   -4.2143   -2.0845 O   0  0  0  0  0  0  0  0  0  0  0  0
    1.2345    5.9278    1.8596 O   0  0  0  0  0  0  0  0  0  0  0  0
   -4.7395   -0.5775    0.8106 F   0  0  0  0  0  0  0  0  0  0  0  0
    1.7784   -3.2531   -2.8876 S   0  0  0  0  0  0  0  0  0  0  0  0
    7.7317   -5.3286   -3.0187 Cl  0  0  0  0  0  0  0  0  0  0  0  0
   -2.4579    3.1994   -0.1774 H   0  0  0  0  0  0  0  0  0  0  0  0
   -4.5607    1.9569    0.3731 H   0  0  0  0  0  0  0  0  0  0  0  0
    4.1556   -2.2005   -4.1384 H   0  0  0  0  0  0  0  0  0  0  0  0
    3.0262   -5.5694   -1.7172 H   0  0  0  0  0  0  0  0  0  0  0  0
    6.5138   -3.0251   -4.1978 H   0  0  0  0  0  0  0  0  0  0  0  0
    5.3925   -6.4015   -1.7688 H   0  0  0  0  0  0  0  0  0  0  0  0
   -2.4346   -1.7685    0.6206 H   0  0  0  0  0  0  0  0  0  0  0  0
    0.9195   -2.0783    1.1531 H   0  0  0  0  0  0  0  0  0  0  0  0
    0.1178   -2.5639   -0.3335 H   0  0  0  0  0  0  0  0  0  0  0  0
    2.5488    0.9447   -1.6399 H   0  0  0  0  0  0  0  0  0  0  0  0
    2.8555    1.5401   -0.0195 H   0  0  0  0  0  0  0  0  0  0  0  0
    3.9852   -0.7054   -0.6432 H   0  0  0  0  0  0  0  0  0  0  0  0
    3.1151   -0.6643    0.8964 H   0  0  0  0  0  0  0  0  0  0  0  0
    2.6593   -2.7341   -0.3745 H   0  0  0  0  0  0  0  0  0  0  0  0
    1.6935    7.6370    2.8494 H   0  0  0  0  0  0  0  0  0  0  0  0
    0.9992    7.9049    1.2158 H   0  0  0  0  0  0  0  0  0  0  0  0
    2.6863    7.3570    1.3800 H   0  0  0  0  0  0  0  0  0  0  0  0
   -0.2353    3.8602    1.4192 H   0  0  0  0  0  0  0  0  0  0  0  0
    1.4300    3.3302    1.4119 H   0  0  0  0  0  0  0  0  0  0  0  0
   -0.2871    3.7271   -1.1123 H   0  0  0  0  0  0  0  0  0  0  0  0
    1.3842    3.2215   -1.1205 H   0  0  0  0  0  0  0  0  0  0  0  0
    1.2386   -1.1504   -2.4142 H   0  0  0  0  0  0  0  0  0  0  0  0
  1  2  1  0  0  0  0
  1 10  2  0  0  0  0
  1 32  1  0  0  0  0
  2 11  2  0  0  0  0
  2 33  1  0  0  0  0
  3  5  2  0  0  0  0
  3 12  1  0  0  0  0
  3 34  1  0  0  0  0
  4  6  1  0  0  0  0
  4 12  2  0  0  0  0
  4 35  1  0  0  0  0
  5 13  1  0  0  0  0
  5 36  1  0  0  0  0
  6 13  2  0  0  0  0
  6 37  1  0  0  0  0
  7  8  2  0  0  0  0
  7 11  1  0  0  0  0
  7 38  1  0  0  0  0
  8  9  1  0  0  0  0
  8 10  1  0  0  0  0
  9 14  2  0  0  0  0
  9 16  1  0  0  0  0
 10 23  1  0  0  0  0
 11 29  1  0  0  0  0
 12 30  1  0  0  0  0
 13 31  1  0  0  0  0
 14 17  1  0  0  0  0
 14 23  1  0  0  0  0
 15 21  1  0  0  0  0
 15 25  2  0  0  0  0
 15 28  1  0  0  0  0
 16 19  1  0  0  0  0
 16 39  1  0  0  0  0
 16 40  1  0  0  0  0
 17 18  1  0  0  0  0
 17 41  1  0  0  0  0
 17 42  1  0  0  0  0
 18 19  1  0  0  0  0
 18 43  1  0  0  0  0
 18 44  1  0  0  0  0
 19 24  1  0  0  0  0
 19 45  1  0  0  0  0
 20 28  1  0  0  0  0
 20 46  1  0  0  0  0
 20 47  1  0  0  0  0
 20 48  1  0  0  0  0
 21 22  1  0  0  0  0
 21 49  1  0  0  0  0
 21 50  1  0  0  0  0
 22 23  1  0  0  0  0
 22 51  1  0  0  0  0
 22 52  1  0  0  0  0
 24 30  1  0  0  0  0
 24 53  1  0  0  0  0
 26 30  2  0  0  0  0
 27 30  2  0  0  0  0
M  END
$$$$
