50
0 1 C15H25NO8S
C                     1.094223661378    -1.205737074439     1.267874126162
C                     0.522261515415    -0.690104794780    -1.694122040687
C                    -1.492628181407    -1.156292401615     0.852214052769
C                    -2.134008010829    -1.107675959919     2.239482649357
C                    -0.966814325836     0.830307449774     2.870991598682
C                    -0.171790179342     0.915638777858     1.576161333579
C                    -0.136425451565    -0.418158827014     0.765951108206
C                     2.673161455487    -1.833239818897     3.738945990540
C                     0.887453302046    -3.590481693931     4.012604894354
C                     2.514180867796    -3.771008895944     2.097391985328
C                     2.491058919376    -2.741496278327    -2.576122208619
C                     0.794080395981    -4.314087898861    -1.575653947886
C                     0.182460656788    -2.990920268211    -3.629030465110
C                     1.751043902829    -2.817317895052     3.016475638034
C                     1.003729780970    -3.006850486667    -2.338790785850
N                     0.113932747767     0.060770700290    -0.594420606705
O                     2.221363796292    -0.990904255793     0.877792044918
O                     0.841126626016    -0.181279168121    -2.748739708904
O                    -1.148567959537     2.039015314490    -1.765926599121
O                     1.157659890779     2.445244534512    -0.804106060412
O                    -2.237615770368     0.235497395101     2.715912978531
O                    -0.800520112211     1.873403443127     0.696270492467
O                     0.735643779949    -2.064791457045     2.231045776000
O                     0.468961093389    -1.997851577083    -1.387606534447
S                    -0.116600224250     1.754358658293    -0.794434124488
H                    -1.367367310633    -2.189968262728     0.523836071621
H                    -2.165321109168    -0.660362484906     0.147733529340
H                    -3.157851103188    -1.484416689916     2.185277514222
H                    -1.573897889187    -1.716522572399     2.958732720407
H                    -0.357341220457     0.272011035396     3.599422254033
H                    -1.128344722166     1.839857285752     3.255429057747
H                     0.849179565431     1.254405708883     1.785051185225
H                     3.307937841250    -1.287185728784     3.040762760587
H                     2.085767327287    -1.117980807662     4.323863490018
H                     3.314096987722    -2.386851596766     4.432118123980
H                     0.180564752428    -4.240012233550     3.488310534101
H                     0.322180940295    -2.905454195734     4.651377224237
H                     1.521776886745    -4.212531812286     4.650516882636
H                     1.819003274439    -4.440633580153     1.583164597079
H                     3.103491448307    -3.227900608360     1.358165670371
H                     3.190742509600    -4.384822079968     2.700507629783
H                     2.647547717417    -1.820850351617    -3.139171999627
H                     3.019584485354    -2.664780288615    -1.621385347180
H                     2.918243731569    -3.574537034229    -3.143555618971
H                    -0.265048693169    -4.460870152789    -1.343149637297
H                     1.360872956856    -4.308961478758    -0.641675956989
H                     1.134738331186    -5.157232060619    -2.183270757820
H                    -0.881893549308    -3.114563444253    -3.405491839957
H                     0.322409412556    -2.061066292903    -4.179918419706
H                     0.496536660715    -3.826481664505    -4.262956822936
