50
0 1 C15H25NO8S
C                     0.415907304986     2.428854005968    -1.268075906724
C                    -0.349843843028     2.234885745138     1.724261958442
C                    -0.551603127013     0.156728689946    -0.617662948231
C                    -0.253362200771    -1.191231829668     0.026639288795
C                     2.069632534213    -0.899403060107    -0.030571329476
C                     1.954508867842     0.519034068898    -0.612946317668
C                     0.577689504999     1.177206463958    -0.365995871403
C                     1.513156970991     4.022351724729    -3.579579172279
C                     0.360172022195     2.212308716951    -4.903547850224
C                    -1.024657586046     3.810918319317    -3.531815774830
C                    -1.861057008538     2.947377217770     4.293400435491
C                     0.350180786033     4.071838742313     4.770971062177
C                    -1.056583090587     4.879885019193     2.838639307429
C                     0.312544236989     3.076721092900    -3.644285104188
C                    -0.658632456435     3.676618958907     3.693974066379
N                     0.696837204217     1.604590924129     1.029791531050
O                     0.319905303661     3.554239087621    -0.830443924577
O                    -1.497349548107     2.247031372851     1.323176896543
O                     2.757993711251     1.119151543448     2.540908687938
O                     2.633352729245     3.399961070255     1.476940749456
O                     0.988177469128    -1.714854896878    -0.452610067923
O                     2.919035317175     1.400994416246     0.017361902107
O                     0.418707229233     2.065396756397    -2.557744773110
O                     0.131184972605     2.729915833042     2.863951303361
S                     2.343982273583     1.982273399058     1.449467239247
H                    -0.621161455190     0.019245164424    -1.699369356616
H                    -1.495933755647     0.567155449439    -0.258974315594
H                    -0.228499560959    -1.112035469950     1.122730353048
H                    -1.019291485708    -1.918959340799    -0.250472834991
H                     2.988565334372    -1.362818101155    -0.395650972873
H                     2.117337605750    -0.853500281481     1.064160918828
H                     2.189785770675     0.529645347289    -1.675783055194
H                     1.489038835889     4.642168122576    -2.683034018367
H                     2.448752868291     3.454577683006    -3.592906288659
H                     1.500943830849     4.676681176675    -4.457087329498
H                    -0.473696403908     1.504380450533    -4.919334412942
H                     1.296059178632     1.647778367485    -4.950838972887
H                     0.293524427973     2.846143982212    -5.792409589166
H                    -1.851814732758     3.094961355092    -3.498447230494
H                    -1.063687728566     4.439259222268    -2.641779299522
H                    -1.159853044562     4.445005255968    -4.413861658381
H                    -2.571984169834     2.651904089428     3.520798987942
H                    -1.533784303955     2.056122005012     4.837562288443
H                    -2.367660450752     3.611890478757     5.000836948111
H                     1.227919309968     4.540354829418     4.318284887988
H                     0.678626628866     3.192214812894     5.331609847728
H                    -0.110161957966     4.779328548369     5.466805909506
H                    -0.174774199050     5.305235316875     2.351406947355
H                    -1.784497983369     4.606133435283     2.073647952055
H                    -1.499768888105     5.645012119106     3.483877293809
