
  -OEChem-05262117483D

 41 43  0     1  0  0  0  0  0999 V2000
   -2.7785   -0.1938    1.4084 C   0  0  0  0  0  0  0  0  0  0  0  0
   -1.7190   -1.4764    3.1545 C   0  0  0  0  0  0  0  0  0  0  0  0
   -4.0161   -0.7325    1.7490 C   0  0  0  0  0  0  0  0  0  0  0  0
   -2.9537   -2.0254    3.5082 C   0  0  0  0  0  0  0  0  0  0  0  0
   -2.0424    1.6506    5.4360 C   0  0  0  0  0  0  0  0  0  0  0  0
   -0.0978    1.0746    4.8742 C   0  0  0  0  0  0  0  0  0  0  0  0
   -1.6201   -0.5635    2.1006 C   0  0  0  0  0  0  0  0  0  0  0  0
   -4.0939   -1.6466    2.8014 C   0  0  0  0  0  0  0  0  0  0  0  0
    1.2555    0.9691   -0.1808 C   0  0  0  0  0  0  0  0  0  0  0  0
   -0.1362    1.3548   -0.6055 C   0  0  0  0  0  0  0  0  0  0  0  0
    0.0625    0.1529    0.2928 C   0  0  0  0  0  0  0  0  0  0  0  0
    0.2272   -4.0816   -0.4262 C   0  0  0  0  0  0  0  0  0  0  0  0
   -0.3556    1.5598    2.3901 C   0  0  0  0  0  0  0  0  0  0  0  0
    0.3934   -2.7774    0.3531 C   0  0  0  0  0  0  0  0  0  0  0  0
   -0.2947    0.1203    1.7893 C   0  0  1  0  0  0  0  0  0  0  0  0
   -0.8800    1.1370    5.9421 N   0  0  0  0  0  0  0  0  0  0  0  0
   -2.0213    1.9095    4.1350 N   0  0  0  0  0  0  0  0  0  0  0  0
   -0.7542    1.5395    3.7822 N   0  0  0  0  0  0  0  0  0  0  0  0
    0.7224   -1.2949   -1.8397 O   0  0  0  0  0  0  0  0  0  0  0  0
   -1.6267   -1.5693   -0.9219 O   0  0  0  0  0  0  0  0  0  0  0  0
    0.7415   -0.6015    2.4796 O   0  0  0  0  0  0  0  0  0  0  0  0
   -0.1862   -1.3988   -0.6787 S   0  0  0  0  0  0  0  0  0  0  0  0
   -5.6514   -2.3280    3.2408 Cl  0  0  0  0  0  0  0  0  0  0  0  0
   -2.7247    0.5035    0.5791 H   0  0  0  0  0  0  0  0  0  0  0  0
   -0.8323   -1.7576    3.7105 H   0  0  0  0  0  0  0  0  0  0  0  0
   -4.9094   -0.4528    1.2005 H   0  0  0  0  0  0  0  0  0  0  0  0
   -3.0280   -2.7303    4.3300 H   0  0  0  0  0  0  0  0  0  0  0  0
   -2.9210    1.8421    6.0382 H   0  0  0  0  0  0  0  0  0  0  0  0
    0.9164    0.7027    4.8393 H   0  0  0  0  0  0  0  0  0  0  0  0
    1.8900    0.5169   -0.9350 H   0  0  0  0  0  0  0  0  0  0  0  0
    1.7640    1.5957    0.5466 H   0  0  0  0  0  0  0  0  0  0  0  0
   -0.5920    2.2407   -0.1789 H   0  0  0  0  0  0  0  0  0  0  0  0
   -0.4117    1.1580   -1.6367 H   0  0  0  0  0  0  0  0  0  0  0  0
   -0.8223   -4.2559   -0.6740 H   0  0  0  0  0  0  0  0  0  0  0  0
    0.8111   -4.0697   -1.3495 H   0  0  0  0  0  0  0  0  0  0  0  0
    0.5776   -4.9103    0.1961 H   0  0  0  0  0  0  0  0  0  0  0  0
    0.6187    2.0497    2.3062 H   0  0  0  0  0  0  0  0  0  0  0  0
   -1.1012    2.1652    1.8785 H   0  0  0  0  0  0  0  0  0  0  0  0
    1.4372   -2.5651    0.5938 H   0  0  0  0  0  0  0  0  0  0  0  0
   -0.2000   -2.7602    1.2665 H   0  0  0  0  0  0  0  0  0  0  0  0
    1.5912   -0.2893    2.1273 H   0  0  0  0  0  0  0  0  0  0  0  0
  1  3  1  0  0  0  0
  1  7  2  0  0  0  0
  1 24  1  0  0  0  0
  2  4  2  0  0  0  0
  2  7  1  0  0  0  0
  2 25  1  0  0  0  0
  3  8  2  0  0  0  0
  3 26  1  0  0  0  0
  4  8  1  0  0  0  0
  4 27  1  0  0  0  0
  5 16  1  0  0  0  0
  5 17  2  0  0  0  0
  5 28  1  0  0  0  0
  6 16  2  0  0  0  0
  6 18  1  0  0  0  0
  6 29  1  0  0  0  0
  7 15  1  0  0  0  0
  8 23  1  0  0  0  0
  9 10  1  0  0  0  0
  9 11  1  0  0  0  0
  9 30  1  0  0  0  0
  9 31  1  0  0  0  0
 10 11  1  0  0  0  0
 10 32  1  0  0  0  0
 10 33  1  0  0  0  0
 11 15  1  0  0  0  0
 11 22  1  0  0  0  0
 12 14  1  0  0  0  0
 12 34  1  0  0  0  0
 12 35  1  0  0  0  0
 12 36  1  0  0  0  0
 13 15  1  0  0  0  0
 13 18  1  0  0  0  0
 13 37  1  0  0  0  0
 13 38  1  0  0  0  0
 14 22  1  0  0  0  0
 14 39  1  0  0  0  0
 14 40  1  0  0  0  0
 15 21  1  0  0  0  0
 17 18  1  0  0  0  0
 19 22  2  0  0  0  0
 20 22  2  0  0  0  0
 21 41  1  0  0  0  0
M  END
$$$$
