
  -OEChem-05262117483D

 50 51  0     1  0  0  0  0  0999 V2000
    1.1132   -1.5006    1.4148 C   0  0  0  0  0  0  0  0  0  0  0  0
    1.2059   -0.8681   -1.6242 C   0  0  0  0  0  0  0  0  0  0  0  0
   -1.2328   -1.6673    0.3995 C   0  0  0  0  0  0  0  0  0  0  0  0
   -2.1167   -1.7868    1.6404 C   0  0  0  0  0  0  0  0  0  0  0  0
   -1.4087    0.2680    2.5273 C   0  0  0  0  0  0  0  0  0  0  0  0
   -0.3801    0.5096    1.4318 C   0  0  1  0  0  0  0  0  0  0  0  0
   -0.0004   -0.7730    0.6337 C   0  0  1  0  0  0  0  0  0  0  0  0
    3.9129   -2.6047    1.7196 C   0  0  0  0  0  0  0  0  0  0  0  0
    4.4733   -0.1473    1.7174 C   0  0  0  0  0  0  0  0  0  0  0  0
    3.1373   -1.1151    3.6287 C   0  0  0  0  0  0  0  0  0  0  0  0
    3.4305   -2.7070   -2.5106 C   0  0  0  0  0  0  0  0  0  0  0  0
    1.9379   -4.4263   -1.4216 C   0  0  0  0  0  0  0  0  0  0  0  0
    1.1387   -3.2171   -3.4859 C   0  0  0  0  0  0  0  0  0  0  0  0
    3.4544   -1.2065    2.1350 C   0  0  0  0  0  0  0  0  0  0  0  0
    1.9880   -3.1226   -2.2174 C   0  0  0  0  0  0  0  0  0  0  0  0
    0.4996   -0.2073   -0.6243 N   0  0  0  0  0  0  0  0  0  0  0  0
    0.9088   -2.5217    2.0424 O   0  0  0  0  0  0  0  0  0  0  0  0
    1.5956   -0.3127   -2.6311 O   0  0  0  0  0  0  0  0  0  0  0  0
   -0.7699    1.6194   -2.0314 O   0  0  0  0  0  0  0  0  0  0  0  0
    1.2064    2.2963   -0.6022 O   0  0  0  0  0  0  0  0  0  0  0  0
   -2.5184   -0.4959    2.1085 O   0  0  0  0  0  0  0  0  0  0  0  0
   -0.9271    1.4147    0.4445 O   0  0  0  0  0  0  0  0  0  0  0  0
    2.2513   -0.8093    1.3587 O   0  0  0  0  0  0  0  0  0  0  0  0
    1.3582   -2.1583   -1.2779 O   0  0  0  0  0  0  0  0  0  0  0  0
    0.0637    1.4417   -0.8642 S   0  0  0  0  0  0  0  0  0  0  0  0
   -0.9028   -2.6548    0.0714 H   0  0  0  0  0  0  0  0  0  0  0  0
   -1.8185   -1.2134   -0.4043 H   0  0  0  0  0  0  0  0  0  0  0  0
   -3.0398   -2.3151    1.3928 H   0  0  0  0  0  0  0  0  0  0  0  0
   -1.6003   -2.3335    2.4388 H   0  0  0  0  0  0  0  0  0  0  0  0
   -0.8870   -0.2243    3.3643 H   0  0  0  0  0  0  0  0  0  0  0  0
   -1.7904    1.2303    2.8760 H   0  0  0  0  0  0  0  0  0  0  0  0
    0.5183    0.9671    1.8584 H   0  0  0  0  0  0  0  0  0  0  0  0
    3.1950   -3.3697    2.0161 H   0  0  0  0  0  0  0  0  0  0  0  0
    4.0565   -2.6500    0.6372 H   0  0  0  0  0  0  0  0  0  0  0  0
    4.8737   -2.8205    2.1976 H   0  0  0  0  0  0  0  0  0  0  0  0
    4.1136    0.8550    1.9657 H   0  0  0  0  0  0  0  0  0  0  0  0
    4.6509   -0.1884    0.6392 H   0  0  0  0  0  0  0  0  0  0  0  0
    5.4213   -0.3178    2.2357 H   0  0  0  0  0  0  0  0  0  0  0  0
    2.7587   -0.1188    3.8784 H   0  0  0  0  0  0  0  0  0  0  0  0
    2.4029   -1.8640    3.9289 H   0  0  0  0  0  0  0  0  0  0  0  0
    4.0543   -1.2801    4.2029 H   0  0  0  0  0  0  0  0  0  0  0  0
    3.4716   -1.7815   -3.0848 H   0  0  0  0  0  0  0  0  0  0  0  0
    3.9881   -2.5706   -1.5796 H   0  0  0  0  0  0  0  0  0  0  0  0
    3.9200   -3.5001   -3.0848 H   0  0  0  0  0  0  0  0  0  0  0  0
    0.9049   -4.6917   -1.1795 H   0  0  0  0  0  0  0  0  0  0  0  0
    2.4962   -4.3333   -0.4866 H   0  0  0  0  0  0  0  0  0  0  0  0
    2.3757   -5.2369   -2.0112 H   0  0  0  0  0  0  0  0  0  0  0  0
    0.1007   -3.4549   -3.2331 H   0  0  0  0  0  0  0  0  0  0  0  0
    1.1620   -2.2856   -4.0526 H   0  0  0  0  0  0  0  0  0  0  0  0
    1.5272   -4.0207   -4.1195 H   0  0  0  0  0  0  0  0  0  0  0  0
  1  7  1  0  0  0  0
  1 17  2  0  0  0  0
  1 23  1  0  0  0  0
  2 16  1  0  0  0  0
  2 18  2  0  0  0  0
  2 24  1  0  0  0  0
  3  4  1  0  0  0  0
  3  7  1  0  0  0  0
  3 26  1  0  0  0  0
  3 27  1  0  0  0  0
  4 21  1  0  0  0  0
  4 28  1  0  0  0  0
  4 29  1  0  0  0  0
  5  6  1  0  0  0  0
  5 21  1  0  0  0  0
  5 30  1  0  0  0  0
  5 31  1  0  0  0  0
  6  7  1  0  0  0  0
  6 22  1  0  0  0  0
  6 32  1  0  0  0  0
  7 16  1  0  0  0  0
  8 14  1  0  0  0  0
  8 33  1  0  0  0  0
  8 34  1  0  0  0  0
  8 35  1  0  0  0  0
  9 14  1  0  0  0  0
  9 36  1  0  0  0  0
  9 37  1  0  0  0  0
  9 38  1  0  0  0  0
 10 14  1  0  0  0  0
 10 39  1  0  0  0  0
 10 40  1  0  0  0  0
 10 41  1  0  0  0  0
 11 15  1  0  0  0  0
 11 42  1  0  0  0  0
 11 43  1  0  0  0  0
 11 44  1  0  0  0  0
 12 15  1  0  0  0  0
 12 45  1  0  0  0  0
 12 46  1  0  0  0  0
 12 47  1  0  0  0  0
 13 15  1  0  0  0  0
 13 48  1  0  0  0  0
 13 49  1  0  0  0  0
 13 50  1  0  0  0  0
 14 23  1  0  0  0  0
 15 24  1  0  0  0  0
 16 25  1  0  0  0  0
 19 25  2  0  0  0  0
 20 25  2  0  0  0  0
 22 25  1  0  0  0  0
M  END
$$$$
