39
0 1 C15H17N3O3S
C                     2.755677465558    -0.330756256994    -5.219048658498
C                     2.637344619868    -1.112543712910    -4.063048420913
C                     2.448043479782     1.033533136727    -5.187283409984
C                     2.210171248486    -0.534868051187    -2.865829988294
C                     2.013955878965     1.625714948115    -3.997519110432
C                    -4.004114637600     0.677418411459     1.209165296080
C                    -2.881602660111    -0.674099099779     0.048615266923
C                     1.902450001388     0.828679578963    -2.857040169613
C                     0.097170562192    -0.803485129165     0.526573759337
C                     0.401724265635    -2.558195431007     2.327311805003
C                     1.755867316062    -2.039188366021     1.978167587165
C                     0.560903225986    -1.087588477670     1.907339164889
C                     0.435573853222    -0.009909308946     2.968438830596
C                    -0.406085844749     1.016708995085    -1.171797034591
C                    -0.640873951884     0.529773889726     0.257874722392
N                    -4.118892597791    -0.473064079475     0.479724907111
N                    -2.781455195645     1.194280816461     1.255420776609
N                    -2.063370806738     0.309580029677     0.503439735094
O                     0.202509763105    -1.604985266987    -0.397310948865
O                     2.071908869361     0.971146757870    -0.203145109140
O                     1.327038715408     3.043483890348    -1.507707683996
S                     1.337115747070     1.583251133428    -1.329454742756
H                     3.091649023260    -0.786764902052    -6.146555335994
H                     2.880815810641    -2.170869135339    -4.092524813947
H                     2.547992254080     1.637308585788    -6.084890680767
H                     2.111979358402    -1.124921543583    -1.960365430786
H                     1.778162684387     2.683849909082    -3.941250337636
H                    -4.836195825882     1.144395989909     1.720142250355
H                    -2.532270986538    -1.493758816144    -0.565093658607
H                    -0.088330984978    -3.212717905633     1.614203322326
H                     0.152195308159    -2.724124898656     3.370962317863
H                     2.464990173574    -1.838338764120     2.775196420978
H                     2.184945312644    -2.337424513793     1.028033117513
H                     0.782509221881    -0.394478427301     3.931881636129
H                    -0.600005759949     0.319140970681     3.101756133355
H                     1.053207553829     0.859350097415     2.720496023599
H                    -1.032703826078     1.877757190418    -1.409558577889
H                    -0.564666485595     0.210553314917    -1.888775448419
H                    -0.337434140011     1.294320773285     0.968448525607
