41
0 1 C15ClH18N3O3S
C                    -2.307697703520    -1.800529004792     2.128519120211
C                    -2.982813701977     0.471229792510     1.723703067930
C                    -3.632933480420    -2.159452893742     2.378818586165
C                    -4.313913529679     0.132114594087     1.972633933447
C                    -0.679051531708     0.815768168325     5.527141964802
C                    -1.272893901182     2.272011754592     4.131139129015
C                    -1.960816078098    -0.485365708630     1.794383098333
C                    -4.630707853436    -1.186868551895     2.298008971511
C                    -1.101909230098     0.459830320539    -1.008792546348
C                    -0.988717595015    -1.037411397128    -0.952106305650
C                    -0.179921886785    -0.184432619788     0.006702696136
C                     3.765564196916    -1.711900251798    -0.587055269573
C                    -0.127508143510     1.249822325141     2.094957013435
C                     2.321389147825    -1.682392044630    -0.090539109184
C                    -0.488819828205    -0.146509161444     1.517716256003
N                    -1.397310337423     1.966612277797     5.418322180162
N                    -0.118343482152     0.404130868337     4.392932329275
N                    -0.509515837787     1.356596861029     3.497900167094
O                     2.253992720225     0.964244768304     0.344186023169
O                     1.597759405093     0.079628464661    -1.946599912254
O                     0.356807375903    -1.131182117452     2.113404808346
S                     1.585187181171    -0.065416574568    -0.476413660092
Cl                   -6.299024032975    -1.624620694312     2.616093085342
H                    -1.524835023013    -2.547814529914     2.195938450602
H                    -2.761522952822     1.505103841072     1.477388486294
H                    -3.888980504103    -3.182266064371     2.637095985955
H                    -5.094411814658     0.884534805061     1.921165951558
H                    -0.560462860587     0.267387047886     6.452469532878
H                    -1.702466583204     3.130290294614     3.630861529386
H                    -0.633354931107     0.961906328918    -1.847757647503
H                    -2.006170772011     0.919146497792    -0.627341699958
H                    -1.805793598357    -1.606824178961    -0.524899791900
H                    -0.454344700236    -1.517140939831    -1.765213485204
H                     3.817236218953    -1.561859721490    -1.667839486125
H                     4.363963904030    -0.940371541707    -0.096134576092
H                     4.201592978494    -2.687093050994    -0.349958706233
H                     0.946412983292     1.400421237950     1.994816512941
H                    -0.633456353211     2.048100964399     1.550946976134
H                     2.230901839799    -1.801016059497     0.987861338662
H                     1.695351859108    -2.426122065116    -0.589500904386
H                     0.366475766340    -0.946443410982     3.079797247651
