41
0 1 C15ClH18N3O3S
C                    -1.274278075304    -2.797057811073     1.509352012218
C                    -2.623232701934    -0.803911450201     1.451334605080
C                    -2.400796702168    -3.559970542488     1.816711683111
C                    -3.761812743250    -1.552346469936     1.759074733221
C                    -0.088344431371     0.166570745760     5.014045211289
C                    -1.236863971193     1.406877448633     3.762895212277
C                    -1.367488227626    -1.411190470447     1.325278126953
C                    -3.640861909729    -2.929699100529     1.941470708678
C                    -0.970084482245     0.275163672129    -1.394731826212
C                    -0.894932428153    -1.216092035264    -1.554250571251
C                     0.043101653146    -0.513150269204    -0.589313480402
C                     4.200177011405     0.584090019781    -0.941155798208
C                    -0.108715118679     0.788073970052     1.566138965922
C                     2.803964039348     0.550728291248    -0.319192914716
C                    -0.099912949002    -0.638089140937     0.948298859744
N                    -1.115269573515     1.060869314867     5.038331884041
N                     0.429210089797    -0.049801830399     3.808277714453
N                    -0.321665542859     0.760910880486     3.006726923788
O                     1.607581669679     0.091965553981    -2.641547239440
O                     2.266295952787    -1.912140066923    -1.233052413579
O                     1.055248309867    -1.329438142467     1.409246432128
S                     1.739547898351    -0.543276825234    -1.311320607053
Cl                   -5.062707104016    -3.879393882129     2.331884986208
H                    -0.307232477859    -3.276099164105     1.400652387847
H                    -2.745885967334     0.265315028059     1.308617543402
H                    -2.319041453130    -4.633369683598     1.956205499940
H                    -4.729243322407    -1.070844448166     1.860027203227
H                     0.290020936165    -0.336649476043     5.894138917777
H                    -1.953095049213     2.107845902292     3.353661382262
H                    -0.589018061932     0.883781230254    -2.207552376929
H                    -1.817249036110     0.685016708274    -0.852770678402
H                    -1.670950651241    -1.833612089773    -1.119070616377
H                    -0.460052511466    -1.597079269499    -2.472341937310
H                     4.644522685992    -0.413750378675    -0.946540096950
H                     4.166767000743     0.961118960855    -1.965714301113
H                     4.838456343924     1.244575453721    -0.346435910040
H                     0.850488860977     1.264385266104     1.360964388095
H                    -0.891257906270     1.411276011943     1.134817199757
H                     2.331466422910     1.536900803177    -0.336832026305
H                     2.809287133454     0.141751752485     0.690822914714
H                     1.073000077992    -1.232341463997     2.386426334084
