34
0 1 C10H17N3O2S2
C                     9.469836998557    -2.104338346403    -0.803523240508
C                     7.811871906266    -0.798969474814     0.220390994435
C                    10.538090229967    -3.084142438147    -1.189059737138
C                     0.048229041644    -0.849513963094     0.582435282644
C                    11.379926022238    -5.019701570619    -3.707165819228
C                     1.316953783129    -0.287806885174     1.233063536884
C                     2.598399526709    -0.727599397329     0.514616185329
C                     3.868705671955    -0.171400704915     1.172247771863
C                    12.014270197222    -3.803308417646    -3.025693259448
C                     5.128243277926    -0.624147819152     0.438684886044
N                     8.989117423502    -1.189488127257    -1.609271025590
N                     8.026631820167    -0.421460379507    -1.010435313497
N                    11.024236353272    -2.902266215254    -2.440432937806
O                    10.909103542719    -3.950254959930    -0.395416367448
O                     6.714744527822    -0.750308486981     2.637370734763
S                     8.778220524406    -2.126893069770     0.791853718823
S                     6.620171707140     0.011406721699     1.330031238993
H                    -0.041274224317    -0.520833266123    -0.459408206461
H                     0.054689787376    -1.945525767185     0.584953965079
H                    -0.850608047561    -0.520371072164     1.114273836633
H                    10.804693100728    -5.603455504662    -2.983364294990
H                    10.711097538061    -4.714516585223    -4.518771670118
H                    12.157996002957    -5.664776131201    -4.129168959925
H                     1.364591522158    -0.606340228123     2.282200606691
H                     1.268237115269     0.808742076119     1.247251587544
H                     2.556002811693    -0.407120121607    -0.535088146572
H                     2.648301461561    -1.824528112064     0.500590385695
H                     3.920740392053    -0.505690923741     2.214197466835
H                     3.824341846493     0.924994207601     1.188146742405
H                    12.610074935714    -3.224128061691    -3.737558186263
H                    12.676290938295    -4.125602062104    -2.219105167414
H                     5.189929899299    -0.233864841072    -0.582003542833
H                     5.221478592624    -1.714447980770     0.422293992367
H                    10.583551743592    -2.185461630848    -3.006862927623
