
  -OEChem-05262117483D

 34 34  0     1  0  0  0  0  0999 V2000
    9.5119   -1.9671   -1.2253 C   0  0  0  0  0  0  0  0  0  0  0  0
    7.9884   -0.6885    0.0180 C   0  0  0  0  0  0  0  0  0  0  0  0
   10.5247   -2.9371   -1.7573 C   0  0  0  0  0  0  0  0  0  0  0  0
    2.3924    3.1082    2.6047 C   0  0  0  0  0  0  0  0  0  0  0  0
   13.2722   -2.9578   -3.5473 C   0  0  0  0  0  0  0  0  0  0  0  0
    2.6586    1.6093    2.4298 C   0  0  0  0  0  0  0  0  0  0  0  0
    3.8926    1.3197    1.5677 C   0  0  0  0  0  0  0  0  0  0  0  0
    4.1614   -0.1810    1.4046 C   0  0  0  0  0  0  0  0  0  0  0  0
   11.8653   -3.5333   -3.7362 C   0  0  0  0  0  0  0  0  0  0  0  0
    5.3424   -0.5145    0.4956 C   0  0  0  0  0  0  0  0  0  0  0  0
    8.9905   -0.9921   -1.9286 N   0  0  0  0  0  0  0  0  0  0  0  0
    8.1064   -0.2402   -1.2022 N   0  0  0  0  0  0  0  0  0  0  0  0
   10.8365   -2.7449   -3.0616 N   0  0  0  0  0  0  0  0  0  0  0  0
   10.9912   -3.8163   -1.0313 O   0  0  0  0  0  0  0  0  0  0  0  0
    7.1212   -0.7416    2.5296 O   0  0  0  0  0  0  0  0  0  0  0  0
    8.9648   -2.0697    0.4223 S   0  0  0  0  0  0  0  0  0  0  0  0
    6.9198    0.0796    1.2709 S   0  0  1  0  0  0  0  0  0  0  0  0
    3.2405    3.6058    3.0888 H   0  0  0  0  0  0  0  0  0  0  0  0
    2.2295    3.5968    1.6371 H   0  0  0  0  0  0  0  0  0  0  0  0
    1.5053    3.2856    3.2217 H   0  0  0  0  0  0  0  0  0  0  0  0
   13.3403   -1.9404   -3.9467 H   0  0  0  0  0  0  0  0  0  0  0  0
   13.5330   -2.9328   -2.4858 H   0  0  0  0  0  0  0  0  0  0  0  0
   14.0079   -3.5799   -4.0682 H   0  0  0  0  0  0  0  0  0  0  0  0
    1.7807    1.1299    1.9770 H   0  0  0  0  0  0  0  0  0  0  0  0
    2.7903    1.1418    3.4139 H   0  0  0  0  0  0  0  0  0  0  0  0
    4.7645    1.8097    2.0202 H   0  0  0  0  0  0  0  0  0  0  0  0
    3.7642    1.7780    0.5775 H   0  0  0  0  0  0  0  0  0  0  0  0
    3.2761   -0.6679    0.9764 H   0  0  0  0  0  0  0  0  0  0  0  0
    4.3271   -0.6458    2.3831 H   0  0  0  0  0  0  0  0  0  0  0  0
   11.8149   -4.5467   -3.3320 H   0  0  0  0  0  0  0  0  0  0  0  0
   11.6028   -3.5819   -4.7973 H   0  0  0  0  0  0  0  0  0  0  0  0
    5.2809   -0.0295   -0.4836 H   0  0  0  0  0  0  0  0  0  0  0  0
    5.4593   -1.5944    0.3659 H   0  0  0  0  0  0  0  0  0  0  0  0
   10.4242   -1.9396   -3.5202 H   0  0  0  0  0  0  0  0  0  0  0  0
  1  3  1  0  0  0  0
  1 11  2  0  0  0  0
  1 16  1  0  0  0  0
  2 12  2  0  0  0  0
  2 16  1  0  0  0  0
  2 17  1  0  0  0  0
  3 13  1  0  0  0  0
  3 14  2  0  0  0  0
  4  6  1  0  0  0  0
  4 18  1  0  0  0  0
  4 19  1  0  0  0  0
  4 20  1  0  0  0  0
  5  9  1  0  0  0  0
  5 21  1  0  0  0  0
  5 22  1  0  0  0  0
  5 23  1  0  0  0  0
  6  7  1  0  0  0  0
  6 24  1  0  0  0  0
  6 25  1  0  0  0  0
  7  8  1  0  0  0  0
  7 26  1  0  0  0  0
  7 27  1  0  0  0  0
  8 10  1  0  0  0  0
  8 28  1  0  0  0  0
  8 29  1  0  0  0  0
  9 13  1  0  0  0  0
  9 30  1  0  0  0  0
  9 31  1  0  0  0  0
 10 17  1  0  0  0  0
 10 32  1  0  0  0  0
 10 33  1  0  0  0  0
 11 12  1  0  0  0  0
 13 34  1  0  0  0  0
 15 17  2  0  0  0  0
M  END
$$$$
