53
0 1 C22ClFH22N2O4S
C                    -1.949159526547     0.925483447807    -0.223461079524
C                    -2.919020489630     0.024745464102     0.218687281947
C                     1.378692909465    -5.042792974930    -0.437155616822
C                     0.457437672240    -3.338258213725    -1.908989732111
C                     0.085702154306    -5.424215139914    -0.070566336679
C                    -0.833359161830    -3.706919249107    -1.536637040088
C                    -1.200154524747    -1.546933405121     0.999974025094
C                    -0.215433090814    -0.644406003386     0.560081069813
C                     1.222247070030    -0.663151603355     0.572119438598
C                    -0.605640560599     0.581117800726    -0.051683674520
C                    -2.523636481368    -1.181461567326     0.817923390685
C                     1.552736050198    -3.999297389281    -1.346279477077
C                    -1.007067089967    -4.746955354616    -0.617660720395
C                     1.652699445664     0.513154433828    -0.003361582355
C                     1.114281477952     3.158620225221     1.663631273150
C                     2.168347992229    -1.737191318771     1.021779348863
C                     3.085142228527     0.882091482752    -0.253904199945
C                     4.026240976140    -0.166830931611     0.381292950493
C                     3.496726261536    -1.605598773878     0.248264091648
C                     1.194420138237     1.811918581149     3.603095484723
C                     0.247677435209     3.576924422507     0.494515690613
C                     0.585707460509     2.690487675175    -0.726714390778
N                     0.551482326439     1.270629758277    -0.412298443411
N                     3.391935113585    -1.901885337553    -1.194679784327
O                     2.307711197538     3.388547405751     1.753983344648
O                     4.150328539327    -4.299015630126    -1.020857326367
O                     3.262210733583    -3.328818380217    -3.230545901735
O                     0.417085523337     2.430262273528     2.556108546592
F                    -3.503245142677    -2.029873254290     1.239155610146
S                     3.216459109135    -3.460833023312    -1.774380136268
Cl                   -2.625850282298    -5.194782729493    -0.132660477422
H                    -2.247153930293     1.860351075555    -0.689574702093
H                    -3.977695841073     0.238656979932     0.112216361484
H                     2.247217426267    -5.542011214701    -0.019560030156
H                     0.603868250868    -2.540698800381    -2.631102985252
H                    -0.072375678231    -6.234045204379     0.634462065083
H                    -1.695369507168    -3.189092445097    -1.943046947668
H                    -0.954287076686    -2.496135300483     1.464845224241
H                     2.387442936424    -1.652836693065     2.095139780660
H                     1.730908805215    -2.727512050854     0.880471422597
H                     3.270007069677     0.952406581966    -1.335378669959
H                     3.319424077116     1.867603184639     0.159893661801
H                     5.016527158243    -0.095470236438    -0.075582301623
H                     4.137393405674     0.050771034335     1.448930431301
H                     4.234849369012    -2.303157849895     0.649153516731
H                     0.473365101932     1.279654976149     4.222148131686
H                     1.726796484443     2.567959300888     4.183982966359
H                     1.910251846217     1.113526442616     3.162728069154
H                     0.462146608567     4.620310637810     0.248004424391
H                    -0.805687437713     3.476761442565     0.759704673952
H                    -0.119227038757     2.900731680720    -1.536820193612
H                     1.584048005514     2.933863571716    -1.092776271747
H                     2.791006997759    -1.267831522105    -1.716727496274
