
  -OEChem-05262117483D

 17 17  0     0  0  0  0  0  0999 V2000
    1.9072   -1.0471   -0.1670 C   0  0  0  0  0  0  0  0  0  0  0  0
    0.8067   -0.4579    0.4556 C   0  0  0  0  0  0  0  0  0  0  0  0
    2.9225   -1.6326    0.6010 C   0  0  0  0  0  0  0  0  0  0  0  0
    0.7100   -0.4480    1.8559 C   0  0  0  0  0  0  0  0  0  0  0  0
    2.8333   -1.6265    1.9902 C   0  0  0  0  0  0  0  0  0  0  0  0
    1.7204   -1.0306    2.6199 C   0  0  0  0  0  0  0  0  0  0  0  0
    0.6730   -0.5194    4.7193 C   0  0  0  0  0  0  0  0  0  0  0  0
    3.8246   -2.1982    2.7425 O   0  0  0  0  0  0  0  0  0  0  0  0
    1.7586   -1.0946    3.9978 O   0  0  0  0  0  0  0  0  0  0  0  0
    1.9829   -1.0552   -1.2507 H   0  0  0  0  0  0  0  0  0  0  0  0
    0.0180   -0.0032   -0.1369 H   0  0  0  0  0  0  0  0  0  0  0  0
    3.7884   -2.0971    0.1379 H   0  0  0  0  0  0  0  0  0  0  0  0
   -0.1489    0.0122    2.3326 H   0  0  0  0  0  0  0  0  0  0  0  0
    0.8954   -0.6765    5.7755 H   0  0  0  0  0  0  0  0  0  0  0  0
   -0.2732   -1.0132    4.4675 H   0  0  0  0  0  0  0  0  0  0  0  0
    0.5919    0.5555    4.5186 H   0  0  0  0  0  0  0  0  0  0  0  0
    3.5757   -2.0900    3.6776 H   0  0  0  0  0  0  0  0  0  0  0  0
  1  2  1  0  0  0  0
  1  3  2  0  0  0  0
  1 10  1  0  0  0  0
  2  4  2  0  0  0  0
  2 11  1  0  0  0  0
  3  5  1  0  0  0  0
  3 12  1  0  0  0  0
  4  6  1  0  0  0  0
  4 13  1  0  0  0  0
  5  6  2  0  0  0  0
  5  8  1  0  0  0  0
  6  9  1  0  0  0  0
  7  9  1  0  0  0  0
  7 14  1  0  0  0  0
  7 15  1  0  0  0  0
  7 16  1  0  0  0  0
  8 17  1  0  0  0  0
M  END
$$$$
