
  -OEChem-05262117483D

 23 24  0     0  0  0  0  0  0999 V2000
    1.9984   -0.7859   -0.0794 C   0  0  0  0  0  0  0  0  0  0  0  0
    0.8362   -0.3438    0.5669 C   0  0  0  0  0  0  0  0  0  0  0  0
    6.3566   -2.7520    3.0277 C   0  0  0  0  0  0  0  0  0  0  0  0
    6.0499   -3.4998    4.1690 C   0  0  0  0  0  0  0  0  0  0  0  0
    2.9949   -1.3959    0.6763 C   0  0  0  0  0  0  0  0  0  0  0  0
    0.6854   -0.5320    1.9355 C   0  0  0  0  0  0  0  0  0  0  0  0
    5.3303   -2.1077    2.3444 C   0  0  0  0  0  0  0  0  0  0  0  0
    4.7160   -3.5412    4.5748 C   0  0  0  0  0  0  0  0  0  0  0  0
    2.8808   -1.5890    2.0672 C   0  0  0  0  0  0  0  0  0  0  0  0
    1.6829   -1.1623    2.7109 C   0  0  0  0  0  0  0  0  0  0  0  0
    4.0004   -2.2263    2.8018 C   0  0  0  0  0  0  0  0  0  0  0  0
    3.7201   -2.9288    3.9228 N   0  0  0  0  0  0  0  0  0  0  0  0
    1.4996   -1.2805    4.0828 N   0  0  0  0  0  0  0  0  0  0  0  0
    2.1178   -0.6668   -1.1523 H   0  0  0  0  0  0  0  0  0  0  0  0
    0.0423    0.1375    0.0010 H   0  0  0  0  0  0  0  0  0  0  0  0
    7.3839   -2.6612    2.6836 H   0  0  0  0  0  0  0  0  0  0  0  0
    6.8167   -4.0180    4.7369 H   0  0  0  0  0  0  0  0  0  0  0  0
    3.8805   -1.7657    0.1681 H   0  0  0  0  0  0  0  0  0  0  0  0
   -0.2208   -0.1914    2.4328 H   0  0  0  0  0  0  0  0  0  0  0  0
    5.5562   -1.4930    1.4801 H   0  0  0  0  0  0  0  0  0  0  0  0
    4.4296   -4.0917    5.4699 H   0  0  0  0  0  0  0  0  0  0  0  0
    2.0203   -2.0480    4.5002 H   0  0  0  0  0  0  0  0  0  0  0  0
    0.5365   -1.2111    4.3875 H   0  0  0  0  0  0  0  0  0  0  0  0
  1  2  1  0  0  0  0
  1  5  2  0  0  0  0
  1 14  1  0  0  0  0
  2  6  2  0  0  0  0
  2 15  1  0  0  0  0
  3  4  1  0  0  0  0
  3  7  2  0  0  0  0
  3 16  1  0  0  0  0
  4  8  2  0  0  0  0
  4 17  1  0  0  0  0
  5  9  1  0  0  0  0
  5 18  1  0  0  0  0
  6 10  1  0  0  0  0
  6 19  1  0  0  0  0
  7 11  1  0  0  0  0
  7 20  1  0  0  0  0
  8 12  1  0  0  0  0
  8 21  1  0  0  0  0
  9 10  2  0  0  0  0
  9 11  1  0  0  0  0
 10 13  1  0  0  0  0
 11 12  2  0  0  0  0
 13 22  1  0  0  0  0
 13 23  1  0  0  0  0
M  END
$$$$
