28
0 1 C11H15NO
C                     0.365107271739    -0.680538588463     7.733871741049
C                    -1.019743953391    -0.754864607513     7.959546903314
C                     0.850359598860    -0.809788095420     6.440726958279
C                    -1.845719500309    -0.957046418333     6.858742976239
C                    -0.080965811891    -1.012033074124     5.400683608334
C                     0.804884300169     0.369202939305     0.947345520540
C                     1.412542915103    -0.976293164997     1.370652564467
C                     0.009291229964     1.005679592613     2.096772784490
C                     0.336519266698    -1.931460988357     1.908435895242
C                    -1.069743198640     0.051202287303     2.627023161252
C                    -0.487126297085    -1.305906595011     3.033963055684
N                    -1.395952775623    -1.083062271526     5.596869560893
O                     0.430795113129    -1.145891852173     4.154787042539
H                     1.053242230812    -0.523722584277     8.560822566858
H                    -1.440557355548    -0.657556300492     8.955443972549
H                     1.909397812408    -0.762874424277     6.208137788833
H                    -2.925966432655    -1.021081131284     6.982049542657
H                     0.136279483323     0.211457451224     0.088873936671
H                     1.594265697771     1.050669307712     0.608813655323
H                     1.932688795904    -1.443274325976     0.526136288537
H                     2.163174475354    -0.806773663898     2.151530571138
H                     0.694676658334     1.263649222938     2.913463996623
H                    -0.455217197038     1.942214065073     1.766991832846
H                    -0.357855369035    -2.197695239565     1.100786141429
H                     0.786685059794    -2.863703463214     2.266286655143
H                    -1.602499636960     0.485916735568     3.477037852989
H                    -1.818133471149    -0.133734696576     1.844426773301
H                    -1.288609003810    -1.978427619555     3.348328858219
