
  -OEChem-05262117483D

 19 20  0     0  0  0  0  0  0999 V2000
    1.5004   -3.7464    0.0806 C   0  0  0  0  0  0  0  0  0  0  0  0
    0.4778   -4.6241    0.4500 C   0  0  0  0  0  0  0  0  0  0  0  0
    1.2312   -2.3778    0.0516 C   0  0  0  0  0  0  0  0  0  0  0  0
   -0.7694   -4.0822    0.7712 C   0  0  0  0  0  0  0  0  0  0  0  0
   -0.0533   -1.9273    0.3922 C   0  0  0  0  0  0  0  0  0  0  0  0
   -1.3416    0.0835    1.4482 C   0  0  0  0  0  0  0  0  0  0  0  0
    0.6028    0.5780    0.8876 C   0  0  0  0  0  0  0  0  0  0  0  0
   -0.4063   -0.4646    0.3500 C   0  0  0  0  0  0  0  0  0  0  0  0
   -1.0386   -2.7697    0.7464 N   0  0  0  0  0  0  0  0  0  0  0  0
   -0.3920    1.1379    1.7799 O   0  0  0  0  0  0  0  0  0  0  0  0
    2.4878   -4.1206   -0.1778 H   0  0  0  0  0  0  0  0  0  0  0  0
    0.6378   -5.6977    0.4908 H   0  0  0  0  0  0  0  0  0  0  0  0
    2.0028   -1.6666   -0.2312 H   0  0  0  0  0  0  0  0  0  0  0  0
   -1.5930   -4.7320    1.0645 H   0  0  0  0  0  0  0  0  0  0  0  0
   -2.3010    0.4937    1.1185 H   0  0  0  0  0  0  0  0  0  0  0  0
   -1.4988   -0.6038    2.2856 H   0  0  0  0  0  0  0  0  0  0  0  0
    1.4477    0.1508    1.4438 H   0  0  0  0  0  0  0  0  0  0  0  0
    0.9717    1.3223    0.1728 H   0  0  0  0  0  0  0  0  0  0  0  0
   -0.7615   -0.2097   -0.6538 H   0  0  0  0  0  0  0  0  0  0  0  0
  1  2  1  0  0  0  0
  1  3  2  0  0  0  0
  1 11  1  0  0  0  0
  2  4  2  0  0  0  0
  2 12  1  0  0  0  0
  3  5  1  0  0  0  0
  3 13  1  0  0  0  0
  4  9  1  0  0  0  0
  4 14  1  0  0  0  0
  5  8  1  0  0  0  0
  5  9  2  0  0  0  0
  6  8  1  0  0  0  0
  6 10  1  0  0  0  0
  6 15  1  0  0  0  0
  6 16  1  0  0  0  0
  7  8  1  0  0  0  0
  7 10  1  0  0  0  0
  7 17  1  0  0  0  0
  7 18  1  0  0  0  0
  8 19  1  0  0  0  0
M  END
$$$$
