
  -OEChem-05262117483D

 28 29  0     0  0  0  0  0  0999 V2000
    5.8229    4.9775   -2.1631 C   0  0  0  0  0  0  0  0  0  0  0  0
    6.2917    4.1386   -3.1883 C   0  0  0  0  0  0  0  0  0  0  0  0
    4.8893    4.4903   -1.2602 C   0  0  0  0  0  0  0  0  0  0  0  0
    5.7877    2.8435   -3.2468 C   0  0  0  0  0  0  0  0  0  0  0  0
    4.4490    3.1593   -1.4159 C   0  0  0  0  0  0  0  0  0  0  0  0
    0.8003   -0.5410   -0.3441 C   0  0  0  0  0  0  0  0  0  0  0  0
    1.3032   -0.1054   -1.7278 C   0  0  0  0  0  0  0  0  0  0  0  0
    1.9172   -0.4495    0.7060 C   0  0  0  0  0  0  0  0  0  0  0  0
    1.9252    1.2990   -1.6837 C   0  0  0  0  0  0  0  0  0  0  0  0
    2.5393    0.9547    0.7452 C   0  0  0  0  0  0  0  0  0  0  0  0
    3.0386    1.3615   -0.6379 C   0  0  0  0  0  0  0  0  0  0  0  0
    4.8808    2.3522   -2.3827 N   0  0  0  0  0  0  0  0  0  0  0  0
    3.5467    2.7153   -0.5087 O   0  0  0  0  0  0  0  0  0  0  0  0
    6.1856    5.9985   -2.0740 H   0  0  0  0  0  0  0  0  0  0  0  0
    7.0212    4.4810   -3.9156 H   0  0  0  0  0  0  0  0  0  0  0  0
    4.4945    5.0922   -0.4481 H   0  0  0  0  0  0  0  0  0  0  0  0
    6.1190    2.1554   -4.0234 H   0  0  0  0  0  0  0  0  0  0  0  0
    0.4048   -1.5626   -0.3875 H   0  0  0  0  0  0  0  0  0  0  0  0
   -0.0332    0.1079   -0.0419 H   0  0  0  0  0  0  0  0  0  0  0  0
    2.0553   -0.8230   -2.0834 H   0  0  0  0  0  0  0  0  0  0  0  0
    0.4849   -0.1256   -2.4565 H   0  0  0  0  0  0  0  0  0  0  0  0
    1.5324   -0.7115    1.6981 H   0  0  0  0  0  0  0  0  0  0  0  0
    2.6971   -1.1861    0.4689 H   0  0  0  0  0  0  0  0  0  0  0  0
    2.3273    1.5748   -2.6624 H   0  0  0  0  0  0  0  0  0  0  0  0
    1.1590    2.0389   -1.4175 H   0  0  0  0  0  0  0  0  0  0  0  0
    1.7913    1.6854    1.0782 H   0  0  0  0  0  0  0  0  0  0  0  0
    3.3689    0.9945    1.4594 H   0  0  0  0  0  0  0  0  0  0  0  0
    3.8643    0.7132   -0.9464 H   0  0  0  0  0  0  0  0  0  0  0  0
  1  2  1  0  0  0  0
  1  3  2  0  0  0  0
  1 14  1  0  0  0  0
  2  4  2  0  0  0  0
  2 15  1  0  0  0  0
  3  5  1  0  0  0  0
  3 16  1  0  0  0  0
  4 12  1  0  0  0  0
  4 17  1  0  0  0  0
  5 12  2  0  0  0  0
  5 13  1  0  0  0  0
  6  7  1  0  0  0  0
  6  8  1  0  0  0  0
  6 18  1  0  0  0  0
  6 19  1  0  0  0  0
  7  9  1  0  0  0  0
  7 20  1  0  0  0  0
  7 21  1  0  0  0  0
  8 10  1  0  0  0  0
  8 22  1  0  0  0  0
  8 23  1  0  0  0  0
  9 11  1  0  0  0  0
  9 24  1  0  0  0  0
  9 25  1  0  0  0  0
 10 11  1  0  0  0  0
 10 26  1  0  0  0  0
 10 27  1  0  0  0  0
 11 13  1  0  0  0  0
 11 28  1  0  0  0  0
M  END
$$$$
