22
0 1 C8H10N2O2
C                     2.236245725277     0.312462119270    -0.164142764299
C                     0.896417939710     0.653804513445    -0.498998858775
C                     3.229028041575     0.682937195297    -1.028831275500
C                     0.575657930186     1.298938828718    -1.669324473797
C                     1.623684807372     1.723142716890    -2.589791094101
C                    -0.857038915947     1.715233015162    -1.889175178300
C                    -2.768598946439     1.937411009287    -3.378358786490
C                    -0.842543423912     0.581623291964    -4.119113333481
N                     2.919368286060     1.351065128224    -2.176727418109
N                    -1.444014920066     1.407206877322    -3.081605615517
O                     1.484037227522     2.356413948038    -3.640343749988
O                    -1.453995588559     2.299954623820    -0.977016513201
H                     2.476542588343    -0.213426461415     0.752110938645
H                     0.091434508775     0.411163797512     0.189881546943
H                     4.280928501235     0.478980095478    -0.856504669219
H                    -2.745409586134     2.480829045460    -4.330502557886
H                    -3.068140780768     2.612090383629    -2.578214099051
H                    -3.502597186350     1.125374889700    -3.456758496376
H                    -1.600346351389    -0.112099937206    -4.501387563734
H                    -0.021738202931    -0.009730716929    -3.713815010257
H                    -0.458776771047     1.191425857784    -4.942975658834
H                     3.654446550199     1.653626564137    -2.808663032435
