15
0 1 C4H8O3
C                     0.453577927750     0.048295305214     1.146489933548
C                     0.048441278748     1.120382420223    -0.590469208722
C                    -0.212288497574    -0.345761203805    -0.181732069729
C                     0.533504387974    -1.392850939901    -0.997767435502
O                     0.849060627561     1.338825195840     0.598013836384
O                    -1.571867981282    -0.747897137559     0.002182030478
O                     0.473391476124    -2.671686284052    -0.379766776959
H                    -0.260659819095     0.156623658853     1.969690909098
H                     1.316008720257    -0.547910586646     1.457958326809
H                     0.624563498435     1.287925222185    -1.508954028621
H                    -0.858139133578     1.738910848366    -0.594067714298
H                     1.591084533094    -1.126636061871    -1.080327277322
H                     0.113760278330    -1.424774544696    -2.018794379040
H                    -2.017792905877    -0.724950828347    -0.861315678538
H                    -0.446780471850    -2.795025188489    -0.088650147629
