
  -OEChem-05262117483D

 16 16  0     0  0  0  0  0  0999 V2000
   -0.2260   -1.3434   -1.7548 C   0  0  0  0  0  0  0  0  0  0  0  0
    0.0892   -0.9565   -0.4265 C   0  0  0  0  0  0  0  0  0  0  0  0
    0.0600   -2.7039   -1.7710 C   0  0  0  0  0  0  0  0  0  0  0  0
    0.9874   -4.3451   -0.0996 C   0  0  0  0  0  0  0  0  0  0  0  0
   -0.5203   -3.2128   -3.9860 C   0  0  0  0  0  0  0  0  0  0  0  0
    0.5277   -1.9754    0.3111 N   0  0  0  0  0  0  0  0  0  0  0  0
    0.4945   -3.0518   -0.5313 N   0  0  0  0  0  0  0  0  0  0  0  0
   -0.0139   -3.6620   -2.7253 O   0  0  0  0  0  0  0  0  0  0  0  0
   -0.6053   -0.7321   -2.5607 H   0  0  0  0  0  0  0  0  0  0  0  0
    0.0065    0.0275    0.0194 H   0  0  0  0  0  0  0  0  0  0  0  0
    2.0682   -4.4280   -0.2579 H   0  0  0  0  0  0  0  0  0  0  0  0
    0.7700   -4.4540    0.9636 H   0  0  0  0  0  0  0  0  0  0  0  0
    0.4821   -5.1309   -0.6636 H   0  0  0  0  0  0  0  0  0  0  0  0
   -0.5261   -4.0863   -4.6386 H   0  0  0  0  0  0  0  0  0  0  0  0
    0.1285   -2.4374   -4.4089 H   0  0  0  0  0  0  0  0  0  0  0  0
   -1.5386   -2.8225   -3.8771 H   0  0  0  0  0  0  0  0  0  0  0  0
  1  2  1  0  0  0  0
  1  3  2  0  0  0  0
  1  9  1  0  0  0  0
  2  6  2  0  0  0  0
  2 10  1  0  0  0  0
  3  7  1  0  0  0  0
  3  8  1  0  0  0  0
  4  7  1  0  0  0  0
  4 11  1  0  0  0  0
  4 12  1  0  0  0  0
  4 13  1  0  0  0  0
  5  8  1  0  0  0  0
  5 14  1  0  0  0  0
  5 15  1  0  0  0  0
  5 16  1  0  0  0  0
  6  7  1  0  0  0  0
M  END
$$$$
