
  -OEChem-05262117483D

 18 18  0     0  0  0  0  0  0999 V2000
    1.8581   -1.1068   -0.1253 C   0  0  0  0  0  0  0  0  0  0  0  0
    0.8370   -0.4093    0.5288 C   0  0  0  0  0  0  0  0  0  0  0  0
    2.8142   -1.7752    0.6349 C   0  0  0  0  0  0  0  0  0  0  0  0
    0.7869   -0.3900    1.9206 C   0  0  0  0  0  0  0  0  0  0  0  0
    2.7998   -1.7713    2.0437 C   0  0  0  0  0  0  0  0  0  0  0  0
    1.7546   -1.0597    2.6873 C   0  0  0  0  0  0  0  0  0  0  0  0
    3.8662   -2.4911    2.8099 C   0  0  0  0  0  0  0  0  0  0  0  0
    4.8395   -3.3689    2.0286 C   0  0  0  0  0  0  0  0  0  0  0  0
    3.9829   -2.3932    4.0244 O   0  0  0  0  0  0  0  0  0  0  0  0
    1.6872   -1.0398    4.0461 O   0  0  0  0  0  0  0  0  0  0  0  0
    1.9057   -1.1282   -1.2099 H   0  0  0  0  0  0  0  0  0  0  0  0
    0.0779    0.1188   -0.0422 H   0  0  0  0  0  0  0  0  0  0  0  0
    3.6021   -2.3131    0.1195 H   0  0  0  0  0  0  0  0  0  0  0  0
   -0.0112    0.1507    2.4279 H   0  0  0  0  0  0  0  0  0  0  0  0
    5.4639   -2.7664    1.3597 H   0  0  0  0  0  0  0  0  0  0  0  0
    4.3169   -4.1111    1.4164 H   0  0  0  0  0  0  0  0  0  0  0  0
    5.4841   -3.8783    2.7457 H   0  0  0  0  0  0  0  0  0  0  0  0
    0.9017   -0.5304    4.3055 H   0  0  0  0  0  0  0  0  0  0  0  0
  1  2  1  0  0  0  0
  1  3  2  0  0  0  0
  1 11  1  0  0  0  0
  2  4  2  0  0  0  0
  2 12  1  0  0  0  0
  3  5  1  0  0  0  0
  3 13  1  0  0  0  0
  4  6  1  0  0  0  0
  4 14  1  0  0  0  0
  5  6  2  0  0  0  0
  5  7  1  0  0  0  0
  6 10  1  0  0  0  0
  7  8  1  0  0  0  0
  7  9  2  0  0  0  0
  8 15  1  0  0  0  0
  8 16  1  0  0  0  0
  8 17  1  0  0  0  0
 10 18  1  0  0  0  0
M  END
$$$$
