
  -OEChem-05262117483D

 18 18  0     0  0  0  0  0  0999 V2000
    1.8263   -1.2082   -0.1715 C   0  0  0  0  0  0  0  0  0  0  0  0
    0.7607   -0.6105    0.5136 C   0  0  0  0  0  0  0  0  0  0  0  0
    2.9214   -1.6713    0.5490 C   0  0  0  0  0  0  0  0  0  0  0  0
    0.8064   -0.4858    1.9001 C   0  0  0  0  0  0  0  0  0  0  0  0
    2.9988   -1.5619    1.9513 C   0  0  0  0  0  0  0  0  0  0  0  0
    1.9144   -0.9560    2.6220 C   0  0  0  0  0  0  0  0  0  0  0  0
    4.2426   -2.1071    2.6018 C   0  0  0  0  0  0  0  0  0  0  0  0
    4.4147   -2.0691    4.1054 C   0  0  0  0  0  0  0  0  0  0  0  0
    5.1253   -2.5900    1.8978 O   0  0  0  0  0  0  0  0  0  0  0  0
    1.9471   -0.8251    3.9884 O   0  0  0  0  0  0  0  0  0  0  0  0
    1.7976   -1.3088   -1.2525 H   0  0  0  0  0  0  0  0  0  0  0  0
   -0.1057   -0.2409   -0.0288 H   0  0  0  0  0  0  0  0  0  0  0  0
    3.7630   -2.1384    0.0477 H   0  0  0  0  0  0  0  0  0  0  0  0
   -0.0216   -0.0203    2.4331 H   0  0  0  0  0  0  0  0  0  0  0  0
    3.5966   -2.5951    4.6058 H   0  0  0  0  0  0  0  0  0  0  0  0
    4.3877   -1.0391    4.4728 H   0  0  0  0  0  0  0  0  0  0  0  0
    5.3708   -2.5327    4.3531 H   0  0  0  0  0  0  0  0  0  0  0  0
    1.1293   -0.3894    4.2779 H   0  0  0  0  0  0  0  0  0  0  0  0
  1  2  1  0  0  0  0
  1  3  2  0  0  0  0
  1 11  1  0  0  0  0
  2  4  2  0  0  0  0
  2 12  1  0  0  0  0
  3  5  1  0  0  0  0
  3 13  1  0  0  0  0
  4  6  1  0  0  0  0
  4 14  1  0  0  0  0
  5  6  2  0  0  0  0
  5  7  1  0  0  0  0
  6 10  1  0  0  0  0
  7  8  1  0  0  0  0
  7  9  2  0  0  0  0
  8 15  1  0  0  0  0
  8 16  1  0  0  0  0
  8 17  1  0  0  0  0
 10 18  1  0  0  0  0
M  END
$$$$
