
  -OEChem-05262117483D

 22 22  0     0  0  0  0  0  0999 V2000
    2.1251   -0.2658   -0.6697 C   0  0  0  0  0  0  0  0  0  0  0  0
    0.8313    0.3196   -0.7548 C   0  0  0  0  0  0  0  0  0  0  0  0
    3.1973    0.4844   -1.0675 C   0  0  0  0  0  0  0  0  0  0  0  0
    0.6388    1.6122   -1.1802 C   0  0  0  0  0  0  0  0  0  0  0  0
    1.7678    2.4168   -1.6314 C   0  0  0  0  0  0  0  0  0  0  0  0
   -0.7752    2.1115   -1.3400 C   0  0  0  0  0  0  0  0  0  0  0  0
   -2.4113    3.8916   -1.0657 C   0  0  0  0  0  0  0  0  0  0  0  0
   -0.2284    4.1055    0.0681 C   0  0  0  0  0  0  0  0  0  0  0  0
    3.0088    1.7571   -1.5201 N   0  0  0  0  0  0  0  0  0  0  0  0
   -1.1018    3.3156   -0.7880 N   0  0  0  0  0  0  0  0  0  0  0  0
    1.7328    3.5630   -2.0889 O   0  0  0  0  0  0  0  0  0  0  0  0
   -1.5913    1.4054   -1.9447 O   0  0  0  0  0  0  0  0  0  0  0  0
    2.2679   -1.2794   -0.3147 H   0  0  0  0  0  0  0  0  0  0  0  0
   -0.0433   -0.2677   -0.4871 H   0  0  0  0  0  0  0  0  0  0  0  0
    4.2206    0.1233   -1.0512 H   0  0  0  0  0  0  0  0  0  0  0  0
   -3.0101    3.9532   -0.1481 H   0  0  0  0  0  0  0  0  0  0  0  0
   -2.9296    3.2628   -1.7876 H   0  0  0  0  0  0  0  0  0  0  0  0
   -2.2926    4.9022   -1.4742 H   0  0  0  0  0  0  0  0  0  0  0  0
    0.2113    4.9468   -0.4767 H   0  0  0  0  0  0  0  0  0  0  0  0
    0.5784    3.4913    0.4675 H   0  0  0  0  0  0  0  0  0  0  0  0
   -0.8130    4.4848    0.9143 H   0  0  0  0  0  0  0  0  0  0  0  0
    3.7976    2.3089   -1.8433 H   0  0  0  0  0  0  0  0  0  0  0  0
  1  2  1  0  0  0  0
  1  3  2  0  0  0  0
  1 13  1  0  0  0  0
  2  4  2  0  0  0  0
  2 14  1  0  0  0  0
  3  9  1  0  0  0  0
  3 15  1  0  0  0  0
  4  5  1  0  0  0  0
  4  6  1  0  0  0  0
  5  9  1  0  0  0  0
  5 11  2  0  0  0  0
  6 10  1  0  0  0  0
  6 12  2  0  0  0  0
  7 10  1  0  0  0  0
  7 16  1  0  0  0  0
  7 17  1  0  0  0  0
  7 18  1  0  0  0  0
  8 10  1  0  0  0  0
  8 19  1  0  0  0  0
  8 20  1  0  0  0  0
  8 21  1  0  0  0  0
  9 22  1  0  0  0  0
M  END
$$$$
