
  -OEChem-05262117483D

 66 70  0     0  0  0  0  0  0999 V2000
   -4.3060    2.9331    4.4030 C   0  0  0  0  0  0  0  0  0  0  0  0
   -3.9862    1.3308    6.1743 C   0  0  0  0  0  0  0  0  0  0  0  0
   -0.6103    0.1895    0.9743 C   0  0  0  0  0  0  0  0  0  0  0  0
   -4.6380   -1.3330   -0.5505 C   0  0  0  0  0  0  0  0  0  0  0  0
   -6.5199   -2.0050    0.8046 C   0  0  0  0  0  0  0  0  0  0  0  0
   -1.5877   -0.7791    1.1552 C   0  0  0  0  0  0  0  0  0  0  0  0
   -4.5739    3.9341    5.3417 C   0  0  0  0  0  0  0  0  0  0  0  0
   -4.2540    2.3147    7.1185 C   0  0  0  0  0  0  0  0  0  0  0  0
   -5.4991   -0.8196   -1.5222 C   0  0  0  0  0  0  0  0  0  0  0  0
   -7.4000   -1.5035   -0.1596 C   0  0  0  0  0  0  0  0  0  0  0  0
   -1.5410    1.6013    2.7126 C   0  0  0  0  0  0  0  0  0  0  0  0
   -2.5613    0.6475    2.9015 C   0  0  0  0  0  0  0  0  0  0  0  0
   -4.0163    1.6167    4.7934 C   0  0  0  0  0  0  0  0  0  0  0  0
   -3.6937    0.5897    3.7797 C   0  0  0  0  0  0  0  0  0  0  0  0
   -5.1321   -1.9232    0.6225 C   0  0  0  0  0  0  0  0  0  0  0  0
   -0.5722    1.3855    1.7399 C   0  0  0  0  0  0  0  0  0  0  0  0
   -2.5752   -0.5424    2.1264 C   0  0  0  0  0  0  0  0  0  0  0  0
   -4.5496    3.6267    6.7105 C   0  0  0  0  0  0  0  0  0  0  0  0
   -6.8700   -0.9160   -1.3033 C   0  0  0  0  0  0  0  0  0  0  0  0
   -4.3557   -0.6069    3.5070 C   0  0  0  0  0  0  0  0  0  0  0  0
   -5.5904   -1.1486    4.1142 C   0  0  0  0  0  0  0  0  0  0  0  0
   -2.8389    1.8712   -3.3913 C   0  0  0  0  0  0  0  0  0  0  0  0
   -2.2791    0.8216   -2.4540 C   0  0  0  0  0  0  0  0  0  0  0  0
   -1.4395    2.0193   -2.8299 C   0  0  0  0  0  0  0  0  0  0  0  0
   -5.3412    6.6410    8.6478 C   0  0  0  0  0  0  0  0  0  0  0  0
    0.4607    2.4440    1.4227 C   0  0  0  0  0  0  0  0  0  0  0  0
   -4.1806   -2.4154    1.6970 C   0  0  0  0  0  0  0  0  0  0  0  0
   -1.1782    3.0639   -1.7780 C   0  0  0  0  0  0  0  0  0  0  0  0
   -5.1114    5.8731    7.3580 C   0  0  0  0  0  0  0  0  0  0  0  0
   -0.0111    3.3626    0.2897 C   0  0  0  0  0  0  0  0  0  0  0  0
   -3.6555   -1.3108    2.5181 N   0  0  0  0  0  0  0  0  0  0  0  0
   -5.9614   -2.3048    3.9965 O   0  0  0  0  0  0  0  0  0  0  0  0
   -6.3499   -0.2815    4.8304 O   0  0  0  0  0  0  0  0  0  0  0  0
   -4.7960    4.5196    7.7114 O   0  0  0  0  0  0  0  0  0  0  0  0
   -0.1825    2.5776   -0.8827 O   0  0  0  0  0  0  0  0  0  0  0  0
   -7.7201   -0.4212   -2.2424 F   0  0  0  0  0  0  0  0  0  0  0  0
   -4.3355    3.1752    3.3439 H   0  0  0  0  0  0  0  0  0  0  0  0
   -3.7487    0.3228    6.5032 H   0  0  0  0  0  0  0  0  0  0  0  0
    0.1444    0.0418    0.2080 H   0  0  0  0  0  0  0  0  0  0  0  0
   -3.5675   -1.2643   -0.7116 H   0  0  0  0  0  0  0  0  0  0  0  0
   -6.9150   -2.4550    1.7101 H   0  0  0  0  0  0  0  0  0  0  0  0
   -1.5742   -1.6851    0.5574 H   0  0  0  0  0  0  0  0  0  0  0  0
   -4.8028    4.9353    4.9953 H   0  0  0  0  0  0  0  0  0  0  0  0
   -4.2344    2.0922    8.1812 H   0  0  0  0  0  0  0  0  0  0  0  0
   -5.1208   -0.3540   -2.4271 H   0  0  0  0  0  0  0  0  0  0  0  0
   -8.4766   -1.5609   -0.0315 H   0  0  0  0  0  0  0  0  0  0  0  0
   -1.5263    2.5051    3.3179 H   0  0  0  0  0  0  0  0  0  0  0  0
   -2.9406    1.6223   -4.4435 H   0  0  0  0  0  0  0  0  0  0  0  0
   -3.6146    2.5307   -3.0108 H   0  0  0  0  0  0  0  0  0  0  0  0
   -2.6558    0.7914   -1.4366 H   0  0  0  0  0  0  0  0  0  0  0  0
   -2.0075   -0.1463   -2.8660 H   0  0  0  0  0  0  0  0  0  0  0  0
   -0.6159    1.8436   -3.5176 H   0  0  0  0  0  0  0  0  0  0  0  0
   -6.1688    6.2049    9.2144 H   0  0  0  0  0  0  0  0  0  0  0  0
   -4.4443    6.6221    9.2735 H   0  0  0  0  0  0  0  0  0  0  0  0
   -5.5858    7.6838    8.4217 H   0  0  0  0  0  0  0  0  0  0  0  0
    0.6629    3.0620    2.3049 H   0  0  0  0  0  0  0  0  0  0  0  0
    1.4084    1.9819    1.1259 H   0  0  0  0  0  0  0  0  0  0  0  0
   -4.6733   -3.1233    2.3580 H   0  0  0  0  0  0  0  0  0  0  0  0
   -3.3160   -2.9119    1.2515 H   0  0  0  0  0  0  0  0  0  0  0  0
   -2.1067    3.2670   -1.2212 H   0  0  0  0  0  0  0  0  0  0  0  0
   -0.8517    4.0110   -2.2373 H   0  0  0  0  0  0  0  0  0  0  0  0
   -4.2808    6.3069    6.7856 H   0  0  0  0  0  0  0  0  0  0  0  0
   -6.0098    5.8883    6.7269 H   0  0  0  0  0  0  0  0  0  0  0  0
   -0.9646    3.8303    0.5773 H   0  0  0  0  0  0  0  0  0  0  0  0
    0.7199    4.1664    0.1096 H   0  0  0  0  0  0  0  0  0  0  0  0
   -5.9330    0.6015    4.8620 H   0  0  0  0  0  0  0  0  0  0  0  0
  1  7  1  0  0  0  0
  1 13  2  0  0  0  0
  1 37  1  0  0  0  0
  2  8  2  0  0  0  0
  2 13  1  0  0  0  0
  2 38  1  0  0  0  0
  3  6  2  0  0  0  0
  3 16  1  0  0  0  0
  3 39  1  0  0  0  0
  4  9  2  0  0  0  0
  4 15  1  0  0  0  0
  4 40  1  0  0  0  0
  5 10  1  0  0  0  0
  5 15  2  0  0  0  0
  5 41  1  0  0  0  0
  6 17  1  0  0  0  0
  6 42  1  0  0  0  0
  7 18  2  0  0  0  0
  7 43  1  0  0  0  0
  8 18  1  0  0  0  0
  8 44  1  0  0  0  0
  9 19  1  0  0  0  0
  9 45  1  0  0  0  0
 10 19  2  0  0  0  0
 10 46  1  0  0  0  0
 11 12  1  0  0  0  0
 11 16  2  0  0  0  0
 11 47  1  0  0  0  0
 12 14  1  0  0  0  0
 12 17  2  0  0  0  0
 13 14  1  0  0  0  0
 14 20  2  0  0  0  0
 15 27  1  0  0  0  0
 16 26  1  0  0  0  0
 17 31  1  0  0  0  0
 18 34  1  0  0  0  0
 19 36  1  0  0  0  0
 20 21  1  0  0  0  0
 20 31  1  0  0  0  0
 21 32  2  0  0  0  0
 21 33  1  0  0  0  0
 22 23  1  0  0  0  0
 22 24  1  0  0  0  0
 22 48  1  0  0  0  0
 22 49  1  0  0  0  0
 23 24  1  0  0  0  0
 23 50  1  0  0  0  0
 23 51  1  0  0  0  0
 24 28  1  0  0  0  0
 24 52  1  0  0  0  0
 25 29  1  0  0  0  0
 25 53  1  0  0  0  0
 25 54  1  0  0  0  0
 25 55  1  0  0  0  0
 26 30  1  0  0  0  0
 26 56  1  0  0  0  0
 26 57  1  0  0  0  0
 27 31  1  0  0  0  0
 27 58  1  0  0  0  0
 27 59  1  0  0  0  0
 28 35  1  0  0  0  0
 28 60  1  0  0  0  0
 28 61  1  0  0  0  0
 29 34  1  0  0  0  0
 29 62  1  0  0  0  0
 29 63  1  0  0  0  0
 30 35  1  0  0  0  0
 30 64  1  0  0  0  0
 30 65  1  0  0  0  0
 33 66  1  0  0  0  0
M  END
$$$$
