54
0 1 C21FH25N4O3
C                    -5.593007271061    -3.242642226008     3.551174495391
C                    -7.440911241354    -2.143546043752     2.480234244983
C                    -5.594601703164    -4.236606602483     2.564933359762
C                    -7.462609750703    -3.122665041512     1.493409299888
C                    -6.508028033438    -2.186898246432     3.528651088731
C                    -6.534202879271    -4.175610869585     1.527562386481
C                    -2.379944288970    -1.455571086701     3.927593194597
C                    -3.832783953413    -0.668490361107     2.398524542228
C                    -1.183893972709    -0.563692783652     0.804660283580
C                    -1.170253837425    -2.171570030554     4.438137737006
C                    -0.089282847777    -2.247687198044     3.346145060289
C                    -0.692303541966    -2.744865136869     2.023826531516
C                    -7.614099099421    -0.707165843768     5.374094390286
C                    -6.424481821173    -1.402759635001     6.005349884894
C                    -2.630648924746    -0.844888213425    -1.322472053666
C                    -1.245238666227     0.822108711453    -1.280835501713
C                    -1.789562886622    -1.807591906564     1.481746334708
C                    -2.459212431576     0.443269127053    -2.156685492726
C                    -6.413416461110    -1.074528812744     4.530922785399
C                    -5.710194236419    -6.174289947530     0.503804041853
C                    -5.524339839177     0.082087090775     4.077554660537
N                    -3.315437472974    -0.879678090706     4.630578374356
N                    -2.644808659133    -1.378690067784     2.576355586353
N                    -4.203228019656    -0.368538647277     3.687480120069
N                    -1.455585797827    -0.421169765967    -0.515492195867
O                    -4.376885040945    -0.380351433108     1.328956876961
O                    -0.465005197400     0.222608040569     1.424531662940
O                    -6.629737939917    -5.089451905455     0.509304272738
F                    -2.132131696610     0.206394204295    -3.491251605786
H                    -4.858784712931    -3.287021291773     4.351696586725
H                    -8.155673381647    -1.325061233089     2.435628204529
H                    -4.870157001068    -5.041861575413     2.620796682271
H                    -8.183529238266    -3.091610398615     0.681531002112
H                    -0.806860216123    -1.665607670655     5.335903030688
H                    -1.464429322704    -3.185964055263     4.738540743744
H                     0.356745118204    -1.262629207405     3.191876419943
H                     0.703520357839    -2.931073453122     3.666112796277
H                     0.083786109462    -2.849026780902     1.260127082925
H                    -1.134828354813    -3.737730692742     2.173069803438
H                    -8.522795887207    -1.284291626868     5.232655286281
H                    -7.777041885601     0.342895873254     5.604526257705
H                    -5.773220808575    -0.827962506800     6.656752431230
H                    -6.544181796187    -2.444227159574     6.287478502802
H                    -3.552548424642    -0.905886465207    -0.740514570417
H                    -2.456217711905    -1.756471673479    -1.902133421122
H                    -0.297895664571     0.848112961137    -1.826911404510
H                    -1.349500906848     1.721074814062    -0.667313555658
H                    -2.414312570767    -2.349794343307     0.767854257002
H                    -3.302069504113     1.135450968844    -2.138825994704
H                    -5.955347358747    -6.771014253137    -0.376037003684
H                    -5.814658474565    -6.794335082228     1.403159825267
H                    -4.673629406410    -5.821558220419     0.424571999715
H                    -5.420265990935     0.826352559222     4.872826186794
H                    -5.948419778171     0.568159415026     3.195019261607
