
  -OEChem-05262117483D

 54 58  0     1  0  0  0  0  0999 V2000
   -3.7018    2.5044    3.3945 C   0  0  0  0  0  0  0  0  0  0  0  0
   -4.9567    2.6818    5.4345 C   0  0  0  0  0  0  0  0  0  0  0  0
   -2.5597    2.9980    4.0317 C   0  0  0  0  0  0  0  0  0  0  0  0
   -3.8371    3.1904    6.0855 C   0  0  0  0  0  0  0  0  0  0  0  0
   -4.9073    2.3272    4.0771 C   0  0  0  0  0  0  0  0  0  0  0  0
   -2.6270    3.3401    5.3877 C   0  0  0  0  0  0  0  0  0  0  0  0
   -2.7130   -0.8534    3.8641 C   0  0  0  0  0  0  0  0  0  0  0  0
   -4.1483   -0.5699    2.1534 C   0  0  0  0  0  0  0  0  0  0  0  0
   -1.5465    0.4560    0.8679 C   0  0  0  0  0  0  0  0  0  0  0  0
   -1.4024   -1.0951    4.5396 C   0  0  0  0  0  0  0  0  0  0  0  0
   -0.2459   -0.7345    3.5924 C   0  0  0  0  0  0  0  0  0  0  0  0
   -0.4479   -1.3961    2.2209 C   0  0  0  0  0  0  0  0  0  0  0  0
   -7.4098    2.2949    3.3115 C   0  0  0  0  0  0  0  0  0  0  0  0
   -6.5496    2.1403    2.0734 C   0  0  0  0  0  0  0  0  0  0  0  0
   -2.5514   -0.3030   -1.3983 C   0  0  0  0  0  0  0  0  0  0  0  0
   -1.8720    1.7509   -1.2533 C   0  0  0  0  0  0  0  0  0  0  0  0
   -1.7380   -0.9281    1.5171 C   0  0  1  0  0  0  0  0  0  0  0  0
   -2.7464    0.9666   -2.2562 C   0  0  0  0  0  0  0  0  0  0  0  0
   -6.0537    1.6310    3.4069 C   0  0  0  0  0  0  0  0  0  0  0  0
   -0.3237    3.9729    5.4472 C   0  0  0  0  0  0  0  0  0  0  0  0
   -6.0634    0.1167    3.6259 C   0  0  0  0  0  0  0  0  0  0  0  0
   -3.8629   -0.6297    4.4310 N   0  0  0  0  0  0  0  0  0  0  0  0
   -2.8242   -0.8644    2.4855 N   0  0  0  0  0  0  0  0  0  0  0  0
   -4.7635   -0.4894    3.3779 N   0  0  0  0  0  0  0  0  0  0  0  0
   -1.7218    0.5099   -0.4722 N   0  0  0  0  0  0  0  0  0  0  0  0
   -4.6175   -0.4245    1.0184 O   0  0  0  0  0  0  0  0  0  0  0  0
   -1.2100    1.4435    1.5277 O   0  0  0  0  0  0  0  0  0  0  0  0
   -1.5696    3.8228    6.1184 O   0  0  0  0  0  0  0  0  0  0  0  0
   -2.1865    0.8729   -3.5289 F   0  0  0  0  0  0  0  0  0  0  0  0
   -3.6307    2.2315    2.3460 H   0  0  0  0  0  0  0  0  0  0  0  0
   -5.8824    2.5467    5.9900 H   0  0  0  0  0  0  0  0  0  0  0  0
   -1.6444    3.0802    3.4587 H   0  0  0  0  0  0  0  0  0  0  0  0
   -3.8701    3.4658    7.1359 H   0  0  0  0  0  0  0  0  0  0  0  0
   -1.3716   -0.5112    5.4626 H   0  0  0  0  0  0  0  0  0  0  0  0
   -1.3337   -2.1537    4.8221 H   0  0  0  0  0  0  0  0  0  0  0  0
   -0.1905    0.3492    3.4666 H   0  0  0  0  0  0  0  0  0  0  0  0
    0.7005   -1.0738    4.0251 H   0  0  0  0  0  0  0  0  0  0  0  0
    0.4001   -1.1885    1.5619 H   0  0  0  0  0  0  0  0  0  0  0  0
   -0.5020   -2.4846    2.3447 H   0  0  0  0  0  0  0  0  0  0  0  0
   -7.5124    3.2874    3.7397 H   0  0  0  0  0  0  0  0  0  0  0  0
   -8.2949    1.6696    3.4025 H   0  0  0  0  0  0  0  0  0  0  0  0
   -6.8351    1.4052    1.3278 H   0  0  0  0  0  0  0  0  0  0  0  0
   -6.0792    3.0340    1.6751 H   0  0  0  0  0  0  0  0  0  0  0  0
   -3.4566   -0.6937   -0.9295 H   0  0  0  0  0  0  0  0  0  0  0  0
   -1.9893   -1.0869   -1.9148 H   0  0  0  0  0  0  0  0  0  0  0  0
   -0.9345    2.1202   -1.6788 H   0  0  0  0  0  0  0  0  0  0  0  0
   -2.3696    2.5482   -0.6944 H   0  0  0  0  0  0  0  0  0  0  0  0
   -2.0168   -1.6535    0.7487 H   0  0  0  0  0  0  0  0  0  0  0  0
   -3.7758    1.3091   -2.3691 H   0  0  0  0  0  0  0  0  0  0  0  0
    0.3748    4.3551    6.1934 H   0  0  0  0  0  0  0  0  0  0  0  0
   -0.3978    4.6871    4.6178 H   0  0  0  0  0  0  0  0  0  0  0  0
    0.0432    3.0127    5.0623 H   0  0  0  0  0  0  0  0  0  0  0  0
   -6.7981   -0.3603    2.9707 H   0  0  0  0  0  0  0  0  0  0  0  0
   -6.3104   -0.1226    4.6627 H   0  0  0  0  0  0  0  0  0  0  0  0
  1  3  1  0  0  0  0
  1  5  2  0  0  0  0
  1 30  1  0  0  0  0
  2  4  2  0  0  0  0
  2  5  1  0  0  0  0
  2 31  1  0  0  0  0
  3  6  2  0  0  0  0
  3 32  1  0  0  0  0
  4  6  1  0  0  0  0
  4 33  1  0  0  0  0
  5 19  1  0  0  0  0
  6 28  1  0  0  0  0
  7 10  1  0  0  0  0
  7 22  2  0  0  0  0
  7 23  1  0  0  0  0
  8 23  1  0  0  0  0
  8 24  1  0  0  0  0
  8 26  2  0  0  0  0
  9 17  1  0  0  0  0
  9 25  1  0  0  0  0
  9 27  2  0  0  0  0
 10 11  1  0  0  0  0
 10 34  1  0  0  0  0
 10 35  1  0  0  0  0
 11 12  1  0  0  0  0
 11 36  1  0  0  0  0
 11 37  1  0  0  0  0
 12 17  1  0  0  0  0
 12 38  1  0  0  0  0
 12 39  1  0  0  0  0
 13 14  1  0  0  0  0
 13 19  1  0  0  0  0
 13 40  1  0  0  0  0
 13 41  1  0  0  0  0
 14 19  1  0  0  0  0
 14 42  1  0  0  0  0
 14 43  1  0  0  0  0
 15 18  1  0  0  0  0
 15 25  1  0  0  0  0
 15 44  1  0  0  0  0
 15 45  1  0  0  0  0
 16 18  1  0  0  0  0
 16 25  1  0  0  0  0
 16 46  1  0  0  0  0
 16 47  1  0  0  0  0
 17 23  1  0  0  0  0
 17 48  1  0  0  0  0
 18 29  1  0  0  0  0
 18 49  1  0  0  0  0
 19 21  1  0  0  0  0
 20 28  1  0  0  0  0
 20 50  1  0  0  0  0
 20 51  1  0  0  0  0
 20 52  1  0  0  0  0
 21 24  1  0  0  0  0
 21 53  1  0  0  0  0
 21 54  1  0  0  0  0
 22 24  1  0  0  0  0
M  END
$$$$
