
  -OEChem-05262117483D

 65 69  0     0  0  0  0  0  0999 V2000
   -5.7822    2.7213    4.4968 C   0  0  0  0  0  0  0  0  0  0  0  0
   -3.3809    2.8211    4.5841 C   0  0  0  0  0  0  0  0  0  0  0  0
   -1.7802    0.2609   -0.1347 C   0  0  0  0  0  0  0  0  0  0  0  0
   -6.1357   -2.0935   -1.2087 C   0  0  0  0  0  0  0  0  0  0  0  0
   -7.4103   -0.5548    0.1510 C   0  0  0  0  0  0  0  0  0  0  0  0
   -2.8959   -0.5193    0.1834 C   0  0  0  0  0  0  0  0  0  0  0  0
   -5.8601    3.7275    5.4663 C   0  0  0  0  0  0  0  0  0  0  0  0
   -3.4480    3.8297    5.5419 C   0  0  0  0  0  0  0  0  0  0  0  0
   -6.9145   -1.7768   -2.3294 C   0  0  0  0  0  0  0  0  0  0  0  0
   -8.1935   -0.2239   -0.9568 C   0  0  0  0  0  0  0  0  0  0  0  0
   -2.2907    1.8332    1.6491 C   0  0  0  0  0  0  0  0  0  0  0  0
   -3.4060    1.0601    2.0139 C   0  0  0  0  0  0  0  0  0  0  0  0
   -4.5442    2.2427    4.0318 C   0  0  0  0  0  0  0  0  0  0  0  0
   -4.4491    1.1872    3.0116 C   0  0  0  0  0  0  0  0  0  0  0  0
   -6.3718   -1.4952    0.0334 C   0  0  0  0  0  0  0  0  0  0  0  0
   -1.4721    1.4348    0.5876 C   0  0  0  0  0  0  0  0  0  0  0  0
   -3.6896   -0.1176    1.2601 C   0  0  0  0  0  0  0  0  0  0  0  0
   -4.6913    4.2920    5.9908 C   0  0  0  0  0  0  0  0  0  0  0  0
   -7.9302   -0.8429   -2.1756 C   0  0  0  0  0  0  0  0  0  0  0  0
   -5.3068    0.1050    2.8345 C   0  0  0  0  0  0  0  0  0  0  0  0
   -6.5920   -0.3304    3.5486 C   0  0  0  0  0  0  0  0  0  0  0  0
    1.4169    1.7226    6.0931 C   0  0  0  0  0  0  0  0  0  0  0  0
   -0.0179    1.7853    5.6113 C   0  0  0  0  0  0  0  0  0  0  0  0
    1.0660    2.5013    4.8415 C   0  0  0  0  0  0  0  0  0  0  0  0
   -5.6093    6.8328    8.4880 C   0  0  0  0  0  0  0  0  0  0  0  0
   -0.2246    2.2260    0.2562 C   0  0  0  0  0  0  0  0  0  0  0  0
   -5.5183   -1.8428    1.2407 C   0  0  0  0  0  0  0  0  0  0  0  0
    1.5069    1.9632    3.5062 C   0  0  0  0  0  0  0  0  0  0  0  0
   -5.9060    5.7634    7.4479 C   0  0  0  0  0  0  0  0  0  0  0  0
    0.9407    1.9274    1.2029 C   0  0  0  0  0  0  0  0  0  0  0  0
   -4.8304   -0.6873    1.7939 N   0  0  0  0  0  0  0  0  0  0  0  0
   -6.5158   -1.4223    4.1648 O   0  5  0  0  0  0  0  0  0  0  0  0
   -7.5862    0.4281    3.3684 O   0  0  0  0  0  0  0  0  0  0  0  0
   -4.6601    5.2945    6.9452 O   0  0  0  0  0  0  0  0  0  0  0  0
    0.6368    2.4432    2.4931 O   0  0  0  0  0  0  0  0  0  0  0  0
   -8.6984   -0.5207   -3.2621 F   0  0  0  0  0  0  0  0  0  0  0  0
   -6.6934    2.2858    4.0966 H   0  0  0  0  0  0  0  0  0  0  0  0
   -2.4055    2.4589    4.2791 H   0  0  0  0  0  0  0  0  0  0  0  0
   -1.1439   -0.0355   -0.9672 H   0  0  0  0  0  0  0  0  0  0  0  0
   -5.3289   -2.8166   -1.3119 H   0  0  0  0  0  0  0  0  0  0  0  0
   -7.6070   -0.0795    1.1112 H   0  0  0  0  0  0  0  0  0  0  0  0
   -3.1406   -1.4006   -0.4032 H   0  0  0  0  0  0  0  0  0  0  0  0
   -6.8404    4.0569    5.7947 H   0  0  0  0  0  0  0  0  0  0  0  0
   -2.5438    4.2666    5.9593 H   0  0  0  0  0  0  0  0  0  0  0  0
   -6.7376   -2.2324   -3.2995 H   0  0  0  0  0  0  0  0  0  0  0  0
   -8.9990    0.5009   -0.8813 H   0  0  0  0  0  0  0  0  0  0  0  0
   -2.0497    2.7456    2.1830 H   0  0  0  0  0  0  0  0  0  0  0  0
    1.6864    2.2810    6.9854 H   0  0  0  0  0  0  0  0  0  0  0  0
    1.9533    0.7842    5.9741 H   0  0  0  0  0  0  0  0  0  0  0  0
   -0.4475    0.8962    5.1591 H   0  0  0  0  0  0  0  0  0  0  0  0
   -0.7254    2.3799    6.1799 H   0  0  0  0  0  0  0  0  0  0  0  0
    1.0837    3.5861    4.9186 H   0  0  0  0  0  0  0  0  0  0  0  0
   -5.0113    6.4187    9.3058 H   0  0  0  0  0  0  0  0  0  0  0  0
   -5.0520    7.6616    8.0400 H   0  0  0  0  0  0  0  0  0  0  0  0
   -6.5439    7.2256    8.9038 H   0  0  0  0  0  0  0  0  0  0  0  0
    0.1078    1.9986   -0.7642 H   0  0  0  0  0  0  0  0  0  0  0  0
   -0.4231    3.3039    0.2955 H   0  0  0  0  0  0  0  0  0  0  0  0
   -6.1254   -2.2637    2.0457 H   0  0  0  0  0  0  0  0  0  0  0  0
   -4.7696   -2.5932    0.9656 H   0  0  0  0  0  0  0  0  0  0  0  0
    1.4895    0.8608    3.5254 H   0  0  0  0  0  0  0  0  0  0  0  0
    2.5456    2.2718    3.2909 H   0  0  0  0  0  0  0  0  0  0  0  0
   -6.5129    6.1772    6.6298 H   0  0  0  0  0  0  0  0  0  0  0  0
   -6.4698    4.9327    7.8955 H   0  0  0  0  0  0  0  0  0  0  0  0
    1.0989    0.8388    1.2602 H   0  0  0  0  0  0  0  0  0  0  0  0
    1.8731    2.3867    0.8294 H   0  0  0  0  0  0  0  0  0  0  0  0
  1  7  1  0  0  0  0
  1 13  2  0  0  0  0
  1 37  1  0  0  0  0
  2  8  2  0  0  0  0
  2 13  1  0  0  0  0
  2 38  1  0  0  0  0
  3  6  2  0  0  0  0
  3 16  1  0  0  0  0
  3 39  1  0  0  0  0
  4  9  2  0  0  0  0
  4 15  1  0  0  0  0
  4 40  1  0  0  0  0
  5 10  1  0  0  0  0
  5 15  2  0  0  0  0
  5 41  1  0  0  0  0
  6 17  1  0  0  0  0
  6 42  1  0  0  0  0
  7 18  2  0  0  0  0
  7 43  1  0  0  0  0
  8 18  1  0  0  0  0
  8 44  1  0  0  0  0
  9 19  1  0  0  0  0
  9 45  1  0  0  0  0
 10 19  2  0  0  0  0
 10 46  1  0  0  0  0
 11 12  1  0  0  0  0
 11 16  2  0  0  0  0
 11 47  1  0  0  0  0
 12 14  1  0  0  0  0
 12 17  2  0  0  0  0
 13 14  1  0  0  0  0
 14 20  2  0  0  0  0
 15 27  1  0  0  0  0
 16 26  1  0  0  0  0
 17 31  1  0  0  0  0
 18 34  1  0  0  0  0
 19 36  1  0  0  0  0
 20 21  1  0  0  0  0
 20 31  1  0  0  0  0
 21 32  1  0  0  0  0
 21 33  2  0  0  0  0
 22 23  1  0  0  0  0
 22 24  1  0  0  0  0
 22 48  1  0  0  0  0
 22 49  1  0  0  0  0
 23 24  1  0  0  0  0
 23 50  1  0  0  0  0
 23 51  1  0  0  0  0
 24 28  1  0  0  0  0
 24 52  1  0  0  0  0
 25 29  1  0  0  0  0
 25 53  1  0  0  0  0
 25 54  1  0  0  0  0
 25 55  1  0  0  0  0
 26 30  1  0  0  0  0
 26 56  1  0  0  0  0
 26 57  1  0  0  0  0
 27 31  1  0  0  0  0
 27 58  1  0  0  0  0
 27 59  1  0  0  0  0
 28 35  1  0  0  0  0
 28 60  1  0  0  0  0
 28 61  1  0  0  0  0
 29 34  1  0  0  0  0
 29 62  1  0  0  0  0
 29 63  1  0  0  0  0
 30 35  1  0  0  0  0
 30 64  1  0  0  0  0
 30 65  1  0  0  0  0
M  CHG  1  32  -1
M  END
$$$$
