
  -OEChem-05262117483D

 66 70  0     0  0  0  0  0  0999 V2000
   -4.6821    2.9065    4.2659 C   0  0  0  0  0  0  0  0  0  0  0  0
   -4.5582    1.3773    6.1241 C   0  0  0  0  0  0  0  0  0  0  0  0
   -0.5483    0.2407    1.3518 C   0  0  0  0  0  0  0  0  0  0  0  0
   -4.6726   -1.4825   -0.2695 C   0  0  0  0  0  0  0  0  0  0  0  0
   -6.2868   -2.8703    0.8728 C   0  0  0  0  0  0  0  0  0  0  0  0
   -1.4939   -0.7691    1.4668 C   0  0  0  0  0  0  0  0  0  0  0  0
   -5.1062    3.9285    5.1204 C   0  0  0  0  0  0  0  0  0  0  0  0
   -4.9834    2.3824    6.9845 C   0  0  0  0  0  0  0  0  0  0  0  0
   -5.6002   -1.2122   -1.2771 C   0  0  0  0  0  0  0  0  0  0  0  0
   -7.2283   -2.6152   -0.1297 C   0  0  0  0  0  0  0  0  0  0  0  0
   -1.7281    1.6606    2.9274 C   0  0  0  0  0  0  0  0  0  0  0  0
   -2.7134    0.6600    3.0513 C   0  0  0  0  0  0  0  0  0  0  0  0
   -4.4080    1.6149    4.7419 C   0  0  0  0  0  0  0  0  0  0  0  0
   -3.9215    0.5680    3.8193 C   0  0  0  0  0  0  0  0  0  0  0  0
   -5.0031   -2.3139    0.8120 C   0  0  0  0  0  0  0  0  0  0  0  0
   -0.6461    1.4603    2.0788 C   0  0  0  0  0  0  0  0  0  0  0  0
   -2.5797   -0.5589    2.3350 C   0  0  0  0  0  0  0  0  0  0  0  0
   -5.2606    3.6685    6.4905 C   0  0  0  0  0  0  0  0  0  0  0  0
   -6.8641   -1.7896   -1.1866 C   0  0  0  0  0  0  0  0  0  0  0  0
   -4.4746   -0.6837    3.5497 C   0  0  0  0  0  0  0  0  0  0  0  0
   -5.7178   -1.2923    4.0708 C   0  0  0  0  0  0  0  0  0  0  0  0
    3.1446   -2.0379    1.6130 C   0  0  0  0  0  0  0  0  0  0  0  0
    4.4856   -1.9781    2.3144 C   0  0  0  0  0  0  0  0  0  0  0  0
    3.9121   -0.7367    1.6641 C   0  0  0  0  0  0  0  0  0  0  0  0
   -6.3921    6.7200    8.1863 C   0  0  0  0  0  0  0  0  0  0  0  0
    0.4396    2.5073    1.9509 C   0  0  0  0  0  0  0  0  0  0  0  0
   -3.9936   -2.5881    1.9106 C   0  0  0  0  0  0  0  0  0  0  0  0
    3.4009    0.3791    2.5341 C   0  0  0  0  0  0  0  0  0  0  0  0
   -5.9684    5.9158    6.9698 C   0  0  0  0  0  0  0  0  0  0  0  0
    1.7568    2.0967    2.6130 C   0  0  0  0  0  0  0  0  0  0  0  0
   -3.6412   -1.3787    2.6657 N   0  0  0  0  0  0  0  0  0  0  0  0
   -5.9674   -2.4847    4.0211 O   0  0  0  0  0  0  0  0  0  0  0  0
   -6.6243   -0.4479    4.6252 O   0  0  0  0  0  0  0  0  0  0  0  0
   -5.6694    4.5856    7.4138 O   0  0  0  0  0  0  0  0  0  0  0  0
    2.3309    1.0359    1.8619 O   0  0  0  0  0  0  0  0  0  0  0  0
   -7.7722   -1.5327   -2.1655 F   0  0  0  0  0  0  0  0  0  0  0  0
   -4.5747    3.1120    3.2042 H   0  0  0  0  0  0  0  0  0  0  0  0
   -4.3360    0.3910    6.5219 H   0  0  0  0  0  0  0  0  0  0  0  0
    0.3088    0.0941    0.7032 H   0  0  0  0  0  0  0  0  0  0  0  0
   -3.6856   -1.0314   -0.3248 H   0  0  0  0  0  0  0  0  0  0  0  0
   -6.5616   -3.4880    1.7221 H   0  0  0  0  0  0  0  0  0  0  0  0
   -1.3798   -1.6896    0.9020 H   0  0  0  0  0  0  0  0  0  0  0  0
   -5.3159    4.9086    4.7078 H   0  0  0  0  0  0  0  0  0  0  0  0
   -5.1023    2.1967    8.0478 H   0  0  0  0  0  0  0  0  0  0  0  0
   -5.3586   -0.5715   -2.1197 H   0  0  0  0  0  0  0  0  0  0  0  0
   -8.2280   -3.0370   -0.0927 H   0  0  0  0  0  0  0  0  0  0  0  0
   -1.8211    2.5836    3.4953 H   0  0  0  0  0  0  0  0  0  0  0  0
    3.0854   -2.5603    0.6628 H   0  0  0  0  0  0  0  0  0  0  0  0
    2.2502   -2.1118    2.2255 H   0  0  0  0  0  0  0  0  0  0  0  0
    4.4940   -2.0269    3.4001 H   0  0  0  0  0  0  0  0  0  0  0  0
    5.3378   -2.4549    1.8394 H   0  0  0  0  0  0  0  0  0  0  0  0
    4.3791   -0.4109    0.7378 H   0  0  0  0  0  0  0  0  0  0  0  0
   -7.2777    6.2781    8.6517 H   0  0  0  0  0  0  0  0  0  0  0  0
   -5.5890    6.7503    8.9281 H   0  0  0  0  0  0  0  0  0  0  0  0
   -6.6306    7.7463    7.8895 H   0  0  0  0  0  0  0  0  0  0  0  0
    0.6454    2.7237    0.8960 H   0  0  0  0  0  0  0  0  0  0  0  0
    0.1054    3.4435    2.4111 H   0  0  0  0  0  0  0  0  0  0  0  0
   -4.3805   -3.3291    2.6059 H   0  0  0  0  0  0  0  0  0  0  0  0
   -3.0623   -2.9743    1.4910 H   0  0  0  0  0  0  0  0  0  0  0  0
    4.2056    1.0992    2.7559 H   0  0  0  0  0  0  0  0  0  0  0  0
    3.0434   -0.0246    3.4952 H   0  0  0  0  0  0  0  0  0  0  0  0
   -5.0788    6.3553    6.4994 H   0  0  0  0  0  0  0  0  0  0  0  0
   -6.7721    5.8821    6.2225 H   0  0  0  0  0  0  0  0  0  0  0  0
    2.4496    2.9533    2.6467 H   0  0  0  0  0  0  0  0  0  0  0  0
    1.5687    1.7725    3.6485 H   0  0  0  0  0  0  0  0  0  0  0  0
   -6.2936    0.4709    4.6144 H   0  0  0  0  0  0  0  0  0  0  0  0
  1  7  1  0  0  0  0
  1 13  2  0  0  0  0
  1 37  1  0  0  0  0
  2  8  2  0  0  0  0
  2 13  1  0  0  0  0
  2 38  1  0  0  0  0
  3  6  2  0  0  0  0
  3 16  1  0  0  0  0
  3 39  1  0  0  0  0
  4  9  2  0  0  0  0
  4 15  1  0  0  0  0
  4 40  1  0  0  0  0
  5 10  1  0  0  0  0
  5 15  2  0  0  0  0
  5 41  1  0  0  0  0
  6 17  1  0  0  0  0
  6 42  1  0  0  0  0
  7 18  2  0  0  0  0
  7 43  1  0  0  0  0
  8 18  1  0  0  0  0
  8 44  1  0  0  0  0
  9 19  1  0  0  0  0
  9 45  1  0  0  0  0
 10 19  2  0  0  0  0
 10 46  1  0  0  0  0
 11 12  1  0  0  0  0
 11 16  2  0  0  0  0
 11 47  1  0  0  0  0
 12 14  1  0  0  0  0
 12 17  2  0  0  0  0
 13 14  1  0  0  0  0
 14 20  2  0  0  0  0
 15 27  1  0  0  0  0
 16 26  1  0  0  0  0
 17 31  1  0  0  0  0
 18 34  1  0  0  0  0
 19 36  1  0  0  0  0
 20 21  1  0  0  0  0
 20 31  1  0  0  0  0
 21 32  2  0  0  0  0
 21 33  1  0  0  0  0
 22 23  1  0  0  0  0
 22 24  1  0  0  0  0
 22 48  1  0  0  0  0
 22 49  1  0  0  0  0
 23 24  1  0  0  0  0
 23 50  1  0  0  0  0
 23 51  1  0  0  0  0
 24 28  1  0  0  0  0
 24 52  1  0  0  0  0
 25 29  1  0  0  0  0
 25 53  1  0  0  0  0
 25 54  1  0  0  0  0
 25 55  1  0  0  0  0
 26 30  1  0  0  0  0
 26 56  1  0  0  0  0
 26 57  1  0  0  0  0
 27 31  1  0  0  0  0
 27 58  1  0  0  0  0
 27 59  1  0  0  0  0
 28 35  1  0  0  0  0
 28 60  1  0  0  0  0
 28 61  1  0  0  0  0
 29 34  1  0  0  0  0
 29 62  1  0  0  0  0
 29 63  1  0  0  0  0
 30 35  1  0  0  0  0
 30 64  1  0  0  0  0
 30 65  1  0  0  0  0
 33 66  1  0  0  0  0
M  END
$$$$
