54
0 1 C21FH25N4O3
C                    -3.701763015159     2.504404758046     3.394468554773
C                    -4.956750125752     2.681792790885     5.434485040795
C                    -2.559714492399     2.998021201949     4.031737386366
C                    -3.837077141664     3.190383452279     6.085531154528
C                    -4.907337409940     2.327161994934     4.077093900648
C                    -2.627014572705     3.340116123161     5.387734229230
C                    -2.712963884519    -0.853429911495     3.864143196005
C                    -4.148265097463    -0.569927994057     2.153389517761
C                    -1.546535612028     0.456034299569     0.867874967650
C                    -1.402442959483    -1.095074784712     4.539585908472
C                    -0.245858970642    -0.734530851482     3.592438787052
C                    -0.447938787847    -1.396141538426     2.220874661921
C                    -7.409762478998     2.294918825314     3.311538325949
C                    -6.549582599966     2.140341775198     2.073417527130
C                    -2.551402346111    -0.303014528024    -1.398323060893
C                    -1.871950999853     1.750891060575    -1.253310835943
C                    -1.738047305243    -0.928122597435     1.517088053860
C                    -2.746392146504     0.966587779781    -2.256156599924
C                    -6.053738415258     1.630994263390     3.406865187113
C                    -0.323675135651     3.972859748754     5.447194406283
C                    -6.063393380469     0.116671499129     3.625873192783
N                    -3.862872424559    -0.629726458225     4.431028823275
N                    -2.824226573418    -0.864360823505     2.485493626153
N                    -4.763539048718    -0.489369177651     3.377851316128
N                    -1.721806301012     0.509852214572    -0.472213760491
O                    -4.617547464920    -0.424519722299     1.018414353315
O                    -1.209971264723     1.443545222374     1.527730003363
O                    -1.569620316955     3.822845693182     6.118421365000
F                    -2.186508015281     0.872877126362    -3.528877550118
H                    -3.630698421094     2.231548388515     2.346026236435
H                    -5.882378541656     2.546658182457     5.989987452419
H                    -1.644401962876     3.080234046396     3.458676880184
H                    -3.870139594026     3.465839743531     7.135907964829
H                    -1.371553456918    -0.511180232409     5.462562008820
H                    -1.333699971677    -2.153680612853     4.822132719254
H                    -0.190493349883     0.349164083150     3.466646294268
H                     0.700490262672    -1.073848915280     4.025104927920
H                     0.400082244625    -1.188549451554     1.561938002675
H                    -0.501981619040    -2.484640391402     2.344697017366
H                    -7.512420063812     3.287419418248     3.739740952297
H                    -8.294936969346     1.669553342940     3.402454923695
H                    -6.835118547599     1.405239449371     1.327769048752
H                    -6.079155521659     3.034046607474     1.675127690386
H                    -3.456556657604    -0.693683821343    -0.929544486016
H                    -1.989265152954    -1.086930525185    -1.914797499624
H                    -0.934485508884     2.120217525716    -1.678762291140
H                    -2.369643124299     2.548167173607    -0.694435178898
H                    -2.016820616838    -1.653507515140     0.748748599566
H                    -3.775799045098     1.309085087343    -2.369117847125
H                     0.374776471817     4.355112108114     6.193386603662
H                    -0.397806766744     4.687096812960     4.617800877302
H                     0.043163926720     3.012729777772     5.062330324550
H                    -6.798069554596    -0.360258579711     2.970651182927
H                    -6.310420165838    -0.122636596318     4.662744553984
