18
0 1 C5H7N5O
C                     1.266110743651    -1.041576423950     0.011876350598
C                    -0.094110388592     0.943923659609     1.937418751150
C                    -0.291670000523     1.595840973659     4.000714203053
C                    -1.357835522001     1.566596921172    -0.144269323648
C                    -0.085797316244     0.932797962759     0.419893009527
N                     2.313813531546    -1.539674644280     0.163574094593
N                    -0.529101501286     1.939870132828     2.648375355867
N                     0.373333305020    -0.127696255425     2.677288069336
N                     0.435711254085     0.368418106000     3.997136134301
N                     0.089785042242    -0.417844654504    -0.153080267084
O                    -0.630363248913     2.190283726430     5.003253441135
H                    -2.237783688880     0.971605750307     0.122716586746
H                    -1.490169020825     2.563332101273     0.277548197558
H                    -1.286489109321     1.629815314774    -1.232409203972
H                     0.779876649926     1.520570161617     0.097430890921
H                     1.219494263721    -0.606123556514     2.366187787617
H                     0.167933768669    -0.305134554808     4.709698373802
H                    -0.721902651195    -1.024754197930    -0.079252627131
