22
0 1 C7H11NO3
C                    -0.389439078015     1.426626522056     0.634856042809
C                    -1.625188723713    -0.006097687831    -0.955484022619
C                    -0.395044160073    -1.210429569230     0.996904215178
C                    -0.558593060539     0.013336054183     0.087175039695
C                     0.700668844105    -0.878596129689     0.027365261719
C                     1.976386217921    -0.278233434420     0.602327445584
C                     0.962685605862    -1.766786496213    -1.176734443178
N                    -1.140205874795     1.700712519504     1.754968164605
O                     0.379430056208     2.237265052879     0.139291639383
O                    -2.181898315557     0.987845680309    -1.384689450365
O                    -1.989358679734    -1.255164178579    -1.369546160755
H                    -0.221701464755    -1.011626401438     2.051042485885
H                    -1.041763276423    -2.055461422516     0.783793762517
H                     2.454594058637     0.388793090227    -0.119624583136
H                     2.671224127135    -1.090101482034     0.845766245420
H                     1.796529398765     0.296280197674     1.513568210477
H                     1.398880146910    -1.180899438250    -1.993337383261
H                     0.062924186949    -2.256551403165    -1.546163833287
H                     1.685865336295    -2.542096865405    -0.899649582602
H                    -1.218929732181     2.680875615652     2.002815127024
H                    -1.944617863136     1.119784608729     1.955527269384
H                    -2.687005069991    -1.112388732780    -2.037700827715
