24
-1 1 C7H9N2O4S2
C                     3.271460073878     1.573891258597    -6.172493464985
C                     2.716092374897     0.397365882751    -5.759815305174
C                     4.458966427190    -0.523872436679    -6.840157843967
C                     0.804774178391    -1.106195909470    -5.371685247533
C                     0.384720113780    -2.427249170241    -7.292756127114
C                     4.814485230126    -3.514745819790    -5.715138534894
C                     1.429840712683     0.224524799803    -4.981913348803
N                     3.378822827278    -0.756875232200    -6.107068640544
N                     5.342365977797    -1.367756732142    -7.390574994891
O                     0.634275302570    -2.043404543113    -4.611899366046
O                     6.114140607121    -3.667780334212    -8.010862365748
O                     3.630051179156    -3.228954903993    -8.060707556927
O                     0.482548310951    -1.120566483933    -6.682116979751
S                     4.734771171051     1.243552146706    -7.088205470385
S                     4.951862639743    -2.955579485703    -7.439434064338
H                     2.909838619428     2.582329139794    -6.015875563580
H                    -0.039616317408    -2.253680648548    -8.283149943862
H                    -0.263375302535    -3.081576748900    -6.704506689788
H                     1.392011749514    -2.844142628709    -7.383469372642
H                     4.595929977893    -4.584623588194    -5.747028970862
H                     5.773315414876    -3.332179443979    -5.225960834725
H                     4.008141416876    -2.957723134957    -5.238153945510
H                     1.606850849492     0.192309126230    -3.902983723746
H                     0.738755812915     1.044790990293    -5.201809901220
