28
1 1 C8H15N2O3
C                     1.310878103778     1.863586830153    -0.200865223212
C                     3.456053759334     3.494759204009    -2.725564361212
C                     3.515220788087     1.993676559394    -2.561605242573
C                    -1.464375939307     0.506585106224     1.889853805739
C                    -2.682315824348    -0.116525112837    -0.042740664328
C                     3.210752245133     2.871357339512    -1.373217724537
C                    -2.527203802531    -0.504262372818     1.434686414860
C                    -0.096549297563     2.082897937947     0.399535504023
N                     1.855950633667     2.897130497507    -0.856418582670
N                    -0.614045259981     0.708934057667     0.670701718585
O                     1.837140008401     0.762774441535    -0.007266084654
O                    -1.342436465171     0.223457444077    -0.484088253677
O                    -3.688643833673    -0.281221507625     2.197520388831
H                     4.379693447904     4.048679312271    -2.855789268772
H                     2.601132271910     3.906285662538    -3.254773968111
H                     2.697546936207     1.408668967497    -2.968905268556
H                     4.480996175014     1.500254852704    -2.573595435064
H                    -1.953315308643     1.446418607002     2.149736850897
H                    -0.828821223827     0.167368020021     2.708063094995
H                    -3.003925099794    -0.927793491544    -0.696213097907
H                    -3.349426948557     0.746086563024    -0.139407740863
H                     3.971845067328     2.976971553821    -0.605446500732
H                    -2.152546385003    -1.529312433726     1.529134090423
H                    -0.803369620363     2.594411742502    -0.254005320418
H                    -0.012131197051     2.611559142627     1.352228497863
H                     1.339255321660     3.768589413069    -0.913981601213
H                     0.264561982430     0.131985924648     0.672167978676
H                    -4.191028262406    -1.105317020208     2.296388525056
