28
1 1 C8H15N2O3
C                     1.932111246605    -0.101679411324    -0.129606172397
C                     1.924927650095    -2.400112063276    -2.437144958709
C                     2.499219493436    -3.488950610979    -1.559163907567
C                    -0.751804730252     1.470118057095     2.108335438838
C                    -0.788304701899     2.079381655925    -0.227846312860
C                     2.850747548772    -2.043785921129    -1.302039526709
C                    -0.754811869712     2.699018832035     1.192063638033
C                     1.405975545454     0.447926293973     1.209724467055
N                     2.286764331500    -1.414200986057    -0.126808899328
N                    -0.117846182576     0.414535095561     1.229184837267
O                     1.961266143316     0.643817547744    -1.098074589775
O                    -0.718352168450     0.628836043483    -0.044006202211
O                     0.440237174473     3.417798353418     1.457083935553
H                     2.309217357591    -2.279578385443    -3.444125406491
H                     0.875419224889    -2.153460215836    -2.315340371844
H                     1.825707912655    -3.977588920817    -0.860673934751
H                     3.280960350007    -4.127670541735    -1.956561355738
H                    -0.159032923317     1.619301272696     3.010108911217
H                    -1.757720462903     1.123089828419     2.343918883445
H                    -1.722299150207     2.244998120546    -0.764703535889
H                     0.075349659446     2.393047663933    -0.817571149166
H                     3.850847152911    -1.699522347040    -1.551637293097
H                    -1.641870178012     3.308185945985     1.389620207195
H                     1.704892130451     1.491103727699     1.294707697078
H                     1.719150704557    -0.106982661284     2.098423468130
H                     2.426843010856    -1.881241166171     0.762396730717
H                    -0.434455442479    -0.529540935334     1.474322925670
H                     0.412177478793     4.288812601369     1.027633414090
