
  -OEChem-05262117483D

 28 29  0     1  0  0  0  0  0999 V2000
    1.9321   -0.1017   -0.1296 C   0  0  0  0  0  0  0  0  0  0  0  0
    1.9249   -2.4001   -2.4371 C   0  0  0  0  0  0  0  0  0  0  0  0
    2.4992   -3.4890   -1.5592 C   0  0  0  0  0  0  0  0  0  0  0  0
   -0.7518    1.4701    2.1083 C   0  0  0  0  0  0  0  0  0  0  0  0
   -0.7883    2.0794   -0.2278 C   0  0  0  0  0  0  0  0  0  0  0  0
    2.8507   -2.0438   -1.3020 C   0  0  0  0  0  0  0  0  0  0  0  0
   -0.7548    2.6990    1.1921 C   0  0  2  0  0  0  0  0  0  0  0  0
    1.4060    0.4479    1.2097 C   0  0  0  0  0  0  0  0  0  0  0  0
    2.2868   -1.4142   -0.1268 N   0  0  0  0  0  0  0  0  0  0  0  0
   -0.1178    0.4145    1.2292 N   0  3  2  0  0  0  0  0  0  0  0  0
    1.9613    0.6438   -1.0981 O   0  0  0  0  0  0  0  0  0  0  0  0
   -0.7184    0.6288   -0.0440 O   0  0  0  0  0  0  0  0  0  0  0  0
    0.4402    3.4178    1.4571 O   0  0  0  0  0  0  0  0  0  0  0  0
    2.3092   -2.2796   -3.4441 H   0  0  0  0  0  0  0  0  0  0  0  0
    0.8754   -2.1535   -2.3153 H   0  0  0  0  0  0  0  0  0  0  0  0
    1.8257   -3.9776   -0.8607 H   0  0  0  0  0  0  0  0  0  0  0  0
    3.2810   -4.1277   -1.9566 H   0  0  0  0  0  0  0  0  0  0  0  0
   -0.1590    1.6193    3.0101 H   0  0  0  0  0  0  0  0  0  0  0  0
   -1.7577    1.1231    2.3439 H   0  0  0  0  0  0  0  0  0  0  0  0
   -1.7223    2.2450   -0.7647 H   0  0  0  0  0  0  0  0  0  0  0  0
    0.0753    2.3930   -0.8176 H   0  0  0  0  0  0  0  0  0  0  0  0
    3.8508   -1.6995   -1.5516 H   0  0  0  0  0  0  0  0  0  0  0  0
   -1.6419    3.3082    1.3896 H   0  0  0  0  0  0  0  0  0  0  0  0
    1.7049    1.4911    1.2947 H   0  0  0  0  0  0  0  0  0  0  0  0
    1.7192   -0.1070    2.0984 H   0  0  0  0  0  0  0  0  0  0  0  0
    2.4268   -1.8812    0.7624 H   0  0  0  0  0  0  0  0  0  0  0  0
   -0.4345   -0.5295    1.4743 H   0  0  0  0  0  0  0  0  0  0  0  0
    0.4122    4.2888    1.0276 H   0  0  0  0  0  0  0  0  0  0  0  0
  1  8  1  0  0  0  0
  1  9  1  0  0  0  0
  1 11  2  0  0  0  0
  2  3  1  0  0  0  0
  2  6  1  0  0  0  0
  2 14  1  0  0  0  0
  2 15  1  0  0  0  0
  3  6  1  0  0  0  0
  3 16  1  0  0  0  0
  3 17  1  0  0  0  0
  4  7  1  0  0  0  0
  4 10  1  0  0  0  0
  4 18  1  0  0  0  0
  4 19  1  0  0  0  0
  5  7  1  0  0  0  0
  5 12  1  0  0  0  0
  5 20  1  0  0  0  0
  5 21  1  0  0  0  0
  6  9  1  0  0  0  0
  6 22  1  0  0  0  0
  7 13  1  0  0  0  0
  7 23  1  0  0  0  0
  8 10  1  0  0  0  0
  8 24  1  0  0  0  0
  8 25  1  0  0  0  0
  9 26  1  0  0  0  0
 10 12  1  0  0  0  0
 10 27  1  0  0  0  0
 13 28  1  0  0  0  0
M  CHG  1  10   1
M  END
$$$$
