34
0 1 C12H16N2O4
C                     1.868142601428     2.943839371778    -0.202487781084
C                     0.585408607680     2.996558397386    -0.910478231116
C                     2.406750289753     1.755100199610     0.126998683442
C                     0.040887618031     1.899238673610    -1.468074448792
C                    -1.125688511866    -1.571504939257     0.897709470778
C                     2.304979113809    -0.579386174139    -3.052272089747
C                     0.700473625340     0.064717515598     0.934029744428
C                    -0.229006750857    -0.606817112042    -1.228390404688
C                     1.680397951439     0.478194214403    -0.187986452224
C                     0.761238769270     0.563253391939    -1.437378392248
C                    -2.832184282102    -3.184625739638     0.673758987002
C                     3.841435349919    -1.323669756322    -4.682393454161
N                    -0.316275904719    -0.715453430942     0.226346423557
N                     1.466416854098     0.448206816104    -2.722251082153
O                    -1.139584514914    -1.718355324750     2.114554953846
O                     2.462971563603    -1.615598397498    -2.420933053932
O                    -1.940172996821    -2.253538458632     0.036558202307
O                     2.948839122733    -0.292617873326    -4.220005228571
H                     2.360321572482     3.875729573366     0.063721244247
H                     0.071313598402     3.952265568742    -0.986741356263
H                     3.348636040298     1.699484881293     0.667485913968
H                    -0.902417359334     1.951050176177    -2.007149220674
H                     1.177433052348    -0.538008823767     1.709663292726
H                     0.252766654154     0.943029969260     1.411417032378
H                    -1.204202883870    -0.394914008938    -1.673965506104
H                     0.165575225841    -1.524971926449    -1.669040644308
H                     2.384434177682    -0.340617543108    -0.350185829092
H                    -3.404009228290    -3.637735186804    -0.136947860599
H                    -3.497536680559    -2.667772288314     1.369682021712
H                    -2.269557192559    -3.947508318536     1.217277000625
H                     4.267241994152    -0.941013671793    -5.610177595143
H                     3.294474699868    -2.251453563923    -4.866035430278
H                     4.628393454571    -1.509646986178    -3.947651037630
H                     1.573503456370     1.297702797756    -3.262010154253
