72
0 1 C34H34O3S
C                     2.765552441486    -3.665396904179    -4.045571184633
C                    -6.301049945592   -15.327134323754    -2.132582116376
C                     3.084139109623    -3.741936164579    -2.684501670194
C                     1.987594328829    -2.599185286074    -4.508440940317
C                    -6.932116243472   -14.711862187577    -1.045785435983
C                    -4.904020797064   -15.321921737725    -2.230341827432
C                     2.622203134753    -2.769540305070    -1.797484664174
C                     1.534532243024    -1.621216084557    -3.619100147829
C                     0.560213221238    -2.819807218736     1.547173619824
C                    -0.400128071372    -3.128769418144    -0.633918838218
C                    -0.745000384465     0.204538676157     1.536417119331
C                     0.168068618897    -4.103210833327     1.910191197217
C                    -0.810055626251    -4.417968925512    -0.283723388684
C                    -1.028182647117     1.210385393516     2.459670931878
C                    -6.172285191418   -14.080467990330    -0.055264907752
C                    -4.136119580876   -14.698159900430    -1.242600966545
C                     1.200103512063     2.100663417054     2.125137529666
C                     0.302245617661    -2.309647679207     0.259903233269
C                     1.831695902051    -1.695209864987    -2.246516806223
C                     0.492118285011     0.134755939800     0.877519598031
C                     1.483591787313     1.096858963887     1.196223177288
C                    -0.517337415634    -4.916509363360     0.993419398033
C                    -0.048749921356     2.167012020860     2.751290845778
C                    -4.783349607240   -14.071604007463    -0.174361753040
C                     0.751880265007    -0.942900267925    -0.114470148391
C                     1.356273941219    -0.653524933250    -1.300265026185
C                     2.851191126277     1.015970941046     0.557168949413
C                     1.625704237568     0.794068949878    -1.670782769770
C                     2.851074993047     1.380887941827    -0.941524962814
C                    -2.503877411788    -9.375606629615     0.368485777182
C                    -1.778204960354    -8.358936798936     1.256988855686
C                    -2.741665466865   -10.712618054691     1.082730726128
C                    -1.544786056918    -7.038192122564     0.538552029466
C                    -3.469067798601   -11.714275154362     0.190408750322
O                    -4.804358016588   -12.858059002657     2.227757574649
O                    -0.252432976172     3.185939411480     3.652368593003
O                    -0.861417105934    -6.164693472276     1.439595327255
S                    -3.819233418415   -13.262575773475     1.142667755348
H                     3.123608823776    -4.423952861410    -4.736990598482
H                    -6.895108018281   -15.819454214699    -2.897998485719
H                     3.696308505185    -4.560560222933    -2.313925934077
H                     1.732169686339    -2.528691806514    -5.563007384180
H                    -8.016029680666   -14.727204262606    -0.966199305499
H                    -4.413423573736   -15.810430727236    -3.068098557718
H                     2.868612216856    -2.838826514451    -0.742357588807
H                     0.920350428864    -0.805131251298    -3.991699478766
H                     1.084293624561    -2.199649660341     2.269512191329
H                    -0.630365508500    -2.755691425253    -1.626933346892
H                    -1.501853004923    -0.543210762751     1.317016913971
H                     0.380757132109    -4.498266439504     2.899517896368
H                    -1.352207912869    -5.014363172708    -1.008633211089
H                    -1.999981256059     1.248050269416     2.949856540005
H                    -6.628197658518   -13.605760191187     0.809817417129
H                    -3.049712840586   -14.707540005707    -1.305120936190
H                     1.951610442548     2.841335655821     2.385710272650
H                     3.554754236343     1.658834694493     1.095091347958
H                     3.216977321794    -0.012172716295     0.657369543271
H                     1.777258473995     0.888814134161    -2.749409488500
H                     0.749908899977     1.398806887617    -1.412637600781
H                     2.841119307010     2.470351812948    -1.067164433424
H                     3.778771417615     1.011836717628    -1.394331752365
H                    -3.469321761328    -8.961830628180     0.048447602415
H                    -1.921731192196    -9.546490079682    -0.547254269319
H                    -2.360946324388    -8.170419846558     2.165768121033
H                    -0.810280404854    -8.761157353417     1.577844805039
H                    -1.780544267591   -11.133179351533     1.404776292309
H                    -3.336806156751   -10.548469760490     1.987337318041
H                    -2.500356684678    -6.588291299081     0.234756139540
H                    -0.937822870799    -7.190584067682    -0.364844487628
H                    -4.441641583363   -11.335522952994    -0.139553031758
H                    -2.877426224227   -11.998471606306    -0.686530065136
H                    -1.150196179604     3.111511107767     4.012857777559
