72
0 1 C34H34O3S
C                     3.154752627742    -0.389227253670    -4.732842542373
C                     7.127998554148   -15.937934319823     1.493746232310
C                     3.709953281353    -0.954272450228    -3.578824602619
C                     1.928544936170     0.278255194187    -4.647731865310
C                     7.730423421257   -15.332242217364     0.385559716926
C                     5.738379071927   -15.880801739315     1.658014713238
C                     3.041939444324    -0.860969448473    -2.357788882725
C                     1.266283541177     0.378577281841    -3.421534053477
C                     1.817196732234    -3.437796230089     0.357058264110
C                     0.745775152819    -3.073677604257    -1.762888793842
C                    -0.634675736258    -1.758165336892     1.764189654304
C                     2.089758408268    -4.764459324929     0.006882753974
C                     0.999302874930    -4.390498167024    -2.123835245717
C                    -1.155619944383    -1.572006382290     3.044207704228
C                     6.949762901128   -14.658452665086    -0.559833478380
C                     4.949471070965   -15.214629227309     0.715622958153
C                     0.389401464099     0.265171673953     3.371993604870
C                     1.160714486851    -2.561757963116    -0.517919870406
C                     1.803398611095    -0.200325732338    -2.257780332569
C                     0.382116069769    -0.935810034151     1.255127242010
C                     0.908181199847     0.083842604421     2.087761605690
C                     1.682198831447    -5.246573186682    -1.244285221188
C                    -0.641266257409    -0.549962222567     3.850665465207
C                     5.569427182180   -14.598248353748    -0.374547433337
C                     0.901321031156    -1.152200163118    -0.122485013506
C                     1.102617655506    -0.091419337264    -0.952735756650
C                     2.043796917431     0.951793032741     1.595790537779
C                     0.656322444449     1.293714436746    -0.519703038853
C                     1.622019560775     1.943409312347     0.491919541926
C                     3.450798886754    -9.812142124832    -0.742063715535
C                     2.712751176448    -8.758784903812    -1.575838731276
C                     3.592151142195   -11.149294787304    -1.481170965619
C                     2.594880540593    -7.430650712202    -0.842937761478
C                     4.328208230713   -12.189673127591    -0.641900984306
O                     5.524873572603   -13.345669391055    -2.756664227594
O                    -1.101012422896    -0.308453982907     5.124525014255
O                     1.890497502189    -6.523595548542    -1.692628009376
S                     4.576422283364   -13.733135326005    -1.633240721193
H                     3.672936578743    -0.465272220220    -5.685324235752
H                     7.737973256023   -16.462984842559     2.224089233556
H                     4.666390029330    -1.468667360106    -3.630964099804
H                     1.485647265061     0.719507277633    -5.537315449595
H                     8.807966570271   -15.387772417527     0.254235073288
H                     5.269285493731   -16.361692349736     2.512341802360
H                     3.475759535477    -1.307143440906    -1.468114264086
H                     0.307354410872     0.888649046746    -3.373650120043
H                     2.130918023385    -3.076655977644     1.332897971863
H                     0.218229448408    -2.425567376272    -2.455448616331
H                    -1.027919609001    -2.556760688711     1.141509698649
H                     2.611398479134    -5.401613134563     0.712059902159
H                     0.676197970058    -4.781514859891    -3.084345658071
H                    -1.952762493087    -2.216749381599     3.411723404331
H                     7.382508381536   -14.188973660669    -1.439544113484
H                     3.867687884258   -15.183364511642     0.829915943306
H                     0.786286996821     1.038134898794     4.024906184835
H                     2.489367049874     1.497188239018     2.433466552666
H                     2.823872119939     0.299250358230     1.187657883206
H                     0.559253473698     1.951071406766    -1.387881404965
H                    -0.332747418543     1.223203139788    -0.054866781278
H                     1.126131718947     2.815738586834     0.934597959041
H                     2.521832415713     2.307213458746    -0.017766770300
H                     4.449818482539    -9.439793131758    -0.479260046098
H                     2.919978030501    -9.969948219579     0.206629661695
H                     3.238039807762    -8.594121709602    -2.523429398450
H                     1.706621825540    -9.113508792618    -1.827732047237
H                     2.598064213570   -11.527340060837    -1.751666289314
H                     4.141117204539   -10.997749388137    -2.416676013776
H                     3.590392474654    -7.027477331818    -0.610292980799
H                     2.049156630600    -7.556607170545     0.102884744716
H                     5.329125577687   -11.850078494615    -0.357103127754
H                     3.772448982930   -12.467359593863     0.260202340104
H                    -1.811520359423    -0.937700281606     5.326111167332
