
  -OEChem-05262117483D

 29 30  0     1  0  0  0  0  0999 V2000
    1.5358   -6.8247    2.7795 C   0  0  0  0  0  0  0  0  0  0  0  0
    2.6376   -6.2330    2.1537 C   0  0  0  0  0  0  0  0  0  0  0  0
    0.2915   -6.1877    2.7459 C   0  0  0  0  0  0  0  0  0  0  0  0
    2.4986   -5.0077    1.4929 C   0  0  0  0  0  0  0  0  0  0  0  0
    0.1239   -4.9589    2.0888 C   0  0  0  0  0  0  0  0  0  0  0  0
    1.2495   -4.4025    1.4715 C   0  0  0  0  0  0  0  0  0  0  0  0
   -0.6577   -2.4762    3.6359 C   0  0  0  0  0  0  0  0  0  0  0  0
    0.5323   -2.3831    5.6058 C   0  0  0  0  0  0  0  0  0  0  0  0
   -0.1253   -1.0266    5.2952 C   0  0  0  0  0  0  0  0  0  0  0  0
   -1.8561   -4.3099    0.6279 C   0  0  0  0  0  0  0  0  0  0  0  0
   -1.2372   -4.2927    2.0293 C   0  0  2  0  0  0  0  0  0  0  0  0
   -0.1205   -3.2373    4.5952 N   0  3  0  0  0  0  0  0  0  0  0  0
   -1.1815   -2.8799    2.4967 N   0  0  0  0  0  0  0  0  0  0  0  0
   -0.6501   -1.1857    3.9275 O   0  0  0  0  0  0  0  0  0  0  0  0
    1.1152   -3.2068    0.8370 F   0  0  0  0  0  0  0  0  0  0  0  0
    1.6417   -7.7791    3.2859 H   0  0  0  0  0  0  0  0  0  0  0  0
    3.6063   -6.7231    2.1739 H   0  0  0  0  0  0  0  0  0  0  0  0
   -0.5674   -6.6563    3.2225 H   0  0  0  0  0  0  0  0  0  0  0  0
    3.3344   -4.5276    0.9934 H   0  0  0  0  0  0  0  0  0  0  0  0
    1.6152   -2.3718    5.4538 H   0  0  0  0  0  0  0  0  0  0  0  0
    0.3069   -2.7322    6.6141 H   0  0  0  0  0  0  0  0  0  0  0  0
   -0.9795   -0.8078    5.9373 H   0  0  0  0  0  0  0  0  0  0  0  0
    0.5655   -0.1862    5.2769 H   0  0  0  0  0  0  0  0  0  0  0  0
   -1.2278   -3.7724   -0.0864 H   0  0  0  0  0  0  0  0  0  0  0  0
   -1.9475   -5.3443    0.2916 H   0  0  0  0  0  0  0  0  0  0  0  0
   -2.8565   -3.8660    0.6392 H   0  0  0  0  0  0  0  0  0  0  0  0
   -1.9068   -4.8247    2.7136 H   0  0  0  0  0  0  0  0  0  0  0  0
    0.1791   -4.1893    4.4009 H   0  0  0  0  0  0  0  0  0  0  0  0
   -1.5135   -2.1469    1.8767 H   0  0  0  0  0  0  0  0  0  0  0  0
  1  2  1  0  0  0  0
  1  3  2  0  0  0  0
  1 16  1  0  0  0  0
  2  4  2  0  0  0  0
  2 17  1  0  0  0  0
  3  5  1  0  0  0  0
  3 18  1  0  0  0  0
  4  6  1  0  0  0  0
  4 19  1  0  0  0  0
  5  6  2  0  0  0  0
  5 11  1  0  0  0  0
  6 15  1  0  0  0  0
  7 12  2  0  0  0  0
  7 13  1  0  0  0  0
  7 14  1  0  0  0  0
  8  9  1  0  0  0  0
  8 12  1  0  0  0  0
  8 20  1  0  0  0  0
  8 21  1  0  0  0  0
  9 14  1  0  0  0  0
  9 22  1  0  0  0  0
  9 23  1  0  0  0  0
 10 11  1  0  0  0  0
 10 24  1  0  0  0  0
 10 25  1  0  0  0  0
 10 26  1  0  0  0  0
 11 13  1  0  0  0  0
 11 27  1  0  0  0  0
 12 28  1  0  0  0  0
 13 29  1  0  0  0  0
M  CHG  1  12   1
M  END
$$$$
