41
0 1 C15ClH19O5S
C                     0.797927503719    -3.881700375086    -8.716144767279
C                    -0.314052730713    -3.047501160310    -8.687231683386
C                     1.625983706637    -4.028645446258    -7.590137473770
C                     0.158148207814    -2.517194510843    -6.352063501843
C                    -0.625231394160    -2.377213131301    -7.506679956898
C                     1.304938576431    -3.335691053365    -6.404598109193
C                     2.847548418529    -4.885430642900    -7.714455250212
C                    -1.218161430373     0.006479330436    -1.353019464331
C                    -2.414087633410    -0.952429781095    -1.070077347589
C                    -0.435992559398    -0.631354143824    -2.522425898539
C                    -2.312269265443    -2.081502772814    -2.123988924071
C                    -1.490427735563    -1.463973224866    -3.269620082383
C                    -2.624745164487     1.316110692706    -7.028762031208
C                    -0.929557091017    -2.504530411174    -4.213380750118
C                    -1.464612174597     0.328223852993    -7.138025552106
O                     3.842971503736    -4.828052783463    -7.022972377431
O                    -2.638032412656    -1.342616988684    -8.863419066052
O                    -2.973185862390    -1.752107522564    -6.371663966429
O                     2.738842761538    -5.767508499338    -8.748757487805
O                    -0.155573268549    -1.801435612356    -5.237635859854
S                    -2.108913485564    -1.334135484521    -7.488660054679
Cl                    2.261420029299    -3.448975241542    -4.955052059584
H                     1.048341012653    -4.421489366866    -9.621287611502
H                    -0.946959792688    -2.911564409190    -9.558148700317
H                    -1.587551962998     0.996104125694    -1.641608838555
H                    -0.584509614975     0.151952865620    -0.473180540796
H                    -2.390560515168    -1.352844634765    -0.052395058028
H                    -3.363894992170    -0.419172878720    -1.176541372873
H                     0.058410919187     0.105374788080    -3.161577151055
H                     0.344389639976    -1.302592411058    -2.141012544355
H                    -1.766777680121    -2.938614328917    -1.707854268680
H                    -3.289426301652    -2.446127032763    -2.454424155710
H                    -2.139645695495    -0.798598960807    -3.852671205589
H                    -3.194175769009     1.364044739221    -7.960075069797
H                    -3.301106899016     1.034915807986    -6.217932557372
H                    -2.225649978237     2.312205012746    -6.816040153374
H                    -1.731019763093    -3.057871652486    -4.708801899981
H                    -0.261647930533    -3.197520798701    -3.690519534046
H                    -0.896729979636     0.242391748640    -6.210424564648
H                    -0.791852141875     0.564829133503    -7.966484316003
H                     3.585712764784    -6.253014641017    -8.771036165881
