
  -OEChem-05262117483D

 40 41  0     0  0  0  0  0  0999 V2000
    1.0020   -3.2194   -9.0989 C   0  0  0  0  0  0  0  0  0  0  0  0
   -0.1892   -2.5362   -8.8900 C   0  0  0  0  0  0  0  0  0  0  0  0
    1.9314   -3.4235   -8.0620 C   0  0  0  0  0  0  0  0  0  0  0  0
    0.4344   -2.1899   -6.5579 C   0  0  0  0  0  0  0  0  0  0  0  0
   -0.4761   -2.0182   -7.6178 C   0  0  0  0  0  0  0  0  0  0  0  0
    1.6186   -2.8987   -6.8024 C   0  0  0  0  0  0  0  0  0  0  0  0
    3.2254   -4.2063   -8.3564 C   0  0  0  0  0  0  0  0  0  0  0  0
    0.2036    1.4584   -1.7071 C   0  0  0  0  0  0  0  0  0  0  0  0
    0.0070   -0.0204   -1.2517 C   0  0  0  0  0  0  0  0  0  0  0  0
    0.6029    1.3904   -3.2011 C   0  0  0  0  0  0  0  0  0  0  0  0
    0.3444   -0.8878   -2.4850 C   0  0  0  0  0  0  0  0  0  0  0  0
    0.0655    0.0326   -3.6839 C   0  0  0  0  0  0  0  0  0  0  0  0
   -2.7749   -2.7250   -5.1293 C   0  0  0  0  0  0  0  0  0  0  0  0
    0.6849   -0.4244   -4.9883 C   0  0  0  0  0  0  0  0  0  0  0  0
   -3.1246   -2.4159   -6.5798 C   0  0  0  0  0  0  0  0  0  0  0  0
    4.1730   -3.4893   -8.7566 O   0  5  0  0  0  0  0  0  0  0  0  0
    3.1224   -5.4441   -8.1847 O   0  0  0  0  0  0  0  0  0  0  0  0
   -1.9236   -0.0228   -6.4967 O   0  0  0  0  0  0  0  0  0  0  0  0
   -2.6326   -0.9914   -8.7394 O   0  0  0  0  0  0  0  0  0  0  0  0
    0.1288   -1.7213   -5.3053 O   0  0  0  0  0  0  0  0  0  0  0  0
   -2.0477   -1.1887   -7.3953 S   0  0  0  0  0  0  0  0  0  0  0  0
    2.7268   -3.1411   -5.4546 Cl  0  0  0  0  0  0  0  0  0  0  0  0
    1.2338   -3.6158  -10.0838 H   0  0  0  0  0  0  0  0  0  0  0  0
   -0.9022   -2.3813   -9.6934 H   0  0  0  0  0  0  0  0  0  0  0  0
   -0.7290    2.0205   -1.5890 H   0  0  0  0  0  0  0  0  0  0  0  0
    0.9613    1.9774   -1.1109 H   0  0  0  0  0  0  0  0  0  0  0  0
    0.6323   -0.2754   -0.3898 H   0  0  0  0  0  0  0  0  0  0  0  0
   -1.0323   -0.1852   -0.9462 H   0  0  0  0  0  0  0  0  0  0  0  0
    0.2141    2.2311   -3.7845 H   0  0  0  0  0  0  0  0  0  0  0  0
    1.6963    1.4016   -3.3008 H   0  0  0  0  0  0  0  0  0  0  0  0
    1.4070   -1.1616   -2.4853 H   0  0  0  0  0  0  0  0  0  0  0  0
   -0.2259   -1.8192   -2.5277 H   0  0  0  0  0  0  0  0  0  0  0  0
   -1.0176    0.1106   -3.8408 H   0  0  0  0  0  0  0  0  0  0  0  0
   -1.8082   -3.2220   -5.0414 H   0  0  0  0  0  0  0  0  0  0  0  0
   -2.7358   -1.8076   -4.5378 H   0  0  0  0  0  0  0  0  0  0  0  0
   -3.5449   -3.3825   -4.7096 H   0  0  0  0  0  0  0  0  0  0  0  0
    1.7744   -0.5155   -4.8962 H   0  0  0  0  0  0  0  0  0  0  0  0
    0.4422    0.2706   -5.7975 H   0  0  0  0  0  0  0  0  0  0  0  0
   -4.1156   -1.9601   -6.6751 H   0  0  0  0  0  0  0  0  0  0  0  0
   -3.0873   -3.2996   -7.2222 H   0  0  0  0  0  0  0  0  0  0  0  0
  1  2  1  0  0  0  0
  1  3  2  0  0  0  0
  1 23  1  0  0  0  0
  2  5  2  0  0  0  0
  2 24  1  0  0  0  0
  3  6  1  0  0  0  0
  3  7  1  0  0  0  0
  4  5  1  0  0  0  0
  4  6  2  0  0  0  0
  4 20  1  0  0  0  0
  5 21  1  0  0  0  0
  6 22  1  0  0  0  0
  7 16  1  0  0  0  0
  7 17  2  0  0  0  0
  8  9  1  0  0  0  0
  8 10  1  0  0  0  0
  8 25  1  0  0  0  0
  8 26  1  0  0  0  0
  9 11  1  0  0  0  0
  9 27  1  0  0  0  0
  9 28  1  0  0  0  0
 10 12  1  0  0  0  0
 10 29  1  0  0  0  0
 10 30  1  0  0  0  0
 11 12  1  0  0  0  0
 11 31  1  0  0  0  0
 11 32  1  0  0  0  0
 12 14  1  0  0  0  0
 12 33  1  0  0  0  0
 13 15  1  0  0  0  0
 13 34  1  0  0  0  0
 13 35  1  0  0  0  0
 13 36  1  0  0  0  0
 14 20  1  0  0  0  0
 14 37  1  0  0  0  0
 14 38  1  0  0  0  0
 15 21  1  0  0  0  0
 15 39  1  0  0  0  0
 15 40  1  0  0  0  0
 18 21  2  0  0  0  0
 19 21  2  0  0  0  0
M  CHG  1  16  -1
M  END
$$$$
