28
0 1 C11FH13N2O
C                    -2.789421577544     3.474472946925     3.015435418516
C                    -3.722207538564     2.758867541579     3.771321369796
C                    -1.548725585455     2.905387826328     2.710542845863
C                    -3.413429191194     1.471575157128     4.221654753314
C                    -1.207944177333     1.618221502473     3.147767991279
C                    -2.172542266677     0.936225258341     3.898209894418
C                     0.683995851350    -1.154906243079     1.696603066872
C                     2.288992791986    -2.655608499239     1.850035099215
C                     1.149975348662    -3.226909993914     0.964808611914
C                     1.246008624361     1.901589400490     2.454128202771
C                     0.116135627826     0.942458727753     2.835305972553
N                     1.781314278642    -1.362807268898     2.328172543486
N                    -0.106611697476    -0.042418776414     1.757185671122
O                     0.228349523345    -2.112315576435     0.821353739619
F                    -1.884406529617    -0.320515788950     4.335213886094
H                    -3.025245882450     4.475113978726     2.664388432890
H                    -4.686678461332     3.196793434041     4.013178294904
H                    -0.831768714432     3.473839389509     2.127498210369
H                    -4.110802986395     0.886205211136     4.813172277965
H                     2.521151825027    -3.314793945859     2.692910629453
H                     3.215670354628    -2.509795338121     1.280580390671
H                     1.466954873860    -3.531147386970    -0.035088804196
H                     0.608412634250    -4.049917682196     1.441380670620
H                     1.027235456953     2.426636705829     1.519772633351
H                     1.414102146338     2.637126995740     3.247588810528
H                     2.162181204438     1.324187386886     2.314659140853
H                     0.432884865685     0.388996199024     3.726052566635
H                    -1.063400845725    -0.195052089842     1.464735869770
