72
0 1 C34H34O3S
C                     3.349679514256    -1.336638164638    -4.020247266338
C                     4.461849580429   -12.351207598585    -6.352709722469
C                     3.760991206214    -1.714003694168    -2.736590800292
C                     2.299857884934    -0.423477798830    -4.162981923158
C                     3.063327670616   -12.321157683291    -6.319983451097
C                     5.192198587837   -12.408436875645    -5.159149216735
C                     3.123531489818    -1.191772897490    -1.611048029122
C                     1.669708243694     0.105435638168    -3.033676310429
C                     1.344169965044    -2.725447174919     1.548997704252
C                     0.384824329940    -2.656610316367    -0.653269467659
C                    -0.690030201961    -0.280491883379     2.381669417260
C                     1.314692836454    -4.123915569041     1.533074285724
C                     0.338528203310    -4.044381864144    -0.682663488969
C                    -1.170352925858     0.311208429665     3.549348320712
C                     2.386687054404   -12.339106284172    -5.095641865917
C                     4.524745165350   -12.432472379725    -3.931039858064
C                     0.734155813009     1.808721271275     3.535977118579
C                     0.900919988915    -1.963904218714     0.459253004077
C                     2.060279729189    -0.278688293984    -1.738321842380
C                     0.486034032988     0.164706269235     1.758627784857
C                     1.213465358344     1.220763294174     2.362992493909
C                     0.811293937966    -4.791743400280     0.408524383295
C                    -0.453676439379     1.366030016320     4.126681414277
C                     3.128350743718   -12.382136932319    -3.916042520821
C                     0.957230143369    -0.478670960736     0.502474081936
C                     1.393536811776     0.285550531757    -0.537024781702
C                     2.516364369386     1.687319684606     1.754867345762
C                     1.259196879349     1.796237001898    -0.464439501670
C                     2.333866040473     2.450852696381     0.426932812714
C                     1.874082890790    -8.805676799313    -0.287170332616
C                     1.058756961152    -8.421423149952     0.952619221245
C                     1.715401727441   -10.286373315229    -0.654595755086
C                     1.222360530916    -6.962729563159     1.353760021379
C                     2.497711237842   -10.646627587437    -1.914151882259
O                     0.742082025066   -12.540218680767    -2.681662189949
O                    -0.861881887570     1.996508562364     5.279021798772
O                     0.728574633886    -6.152493969031     0.283774147362
S                     2.218923601421   -12.426497852598    -2.338099045400
H                     3.843515339155    -1.746124258721    -4.897754285827
H                     4.983287648478   -12.339912755532    -7.306208843705
H                     4.581481101079    -2.416611660536    -2.612759380042
H                     1.969378435247    -0.123995851485    -5.154606770142
H                     2.498236298054   -12.287582220082    -7.247886397655
H                     6.278168629926   -12.443431481005    -5.184710169378
H                     3.444020195478    -1.493737553804    -0.618616287435
H                     0.846272953766     0.803855172205    -3.160715322467
H                     1.727578544859    -2.217694264551     2.430070325078
H                     0.015894562495    -2.094823597277    -1.505509757035
H                    -1.241799268363    -1.104558709265     1.938345499199
H                     1.678049743442    -4.670950504990     2.395589159198
H                    -0.063849321007    -4.574281862090    -1.541320919874
H                    -2.091969855707    -0.045798853513     4.006852452318
H                     1.301511238516   -12.330116928640    -5.033393194845
H                     5.088091089216   -12.494572140330    -3.002035471476
H                     1.283522414875     2.614859446261     4.015165032532
H                     3.061550159073     2.311620314262     2.469507553043
H                     3.139071006156     0.807096588999     1.558867319616
H                     1.317262531573     2.231852062149    -1.465513463931
H                     0.274337287830     2.049521519454    -0.057926430992
H                     2.037255916683     3.488286435371     0.623292610571
H                     3.296727655967     2.483605389571    -0.096209962677
H                     1.559790448093    -8.180347041694    -1.129487670856
H                     2.934617104188    -8.580002176808    -0.109197061532
H                    -0.004305846170    -8.623144999941     0.776369406252
H                     1.361948604789    -9.039285195817     1.807710817975
H                     2.050692361075   -10.913937777625     0.181652915402
H                     0.657705893598   -10.517202446563    -0.821029480991
H                     2.280484384453    -6.728264010701     1.537757207699
H                     0.658300281316    -6.749476724787     2.271746631518
H                     2.161638093991   -10.068461859991    -2.780550847667
H                     3.577300683379   -10.510138788068    -1.788077681988
H                    -1.693303525253     1.595792569820     5.578384040939
