46
0 1 C18F3H19N4O2
C                    -7.181284032210     2.094987081285     2.710664016861
C                    -7.314652204774    -0.298748163765     2.473562823220
C                    -7.389350425907     2.255845401390     1.339215337030
C                    -7.521260122578    -0.163104206397     1.097676214588
C                    -7.138841654492     0.822365214231     3.297040764831
C                    -7.550017046276     1.117421864234     0.556435261086
C                    -4.277727730542    -2.187722974406     3.205741587836
C                    -4.015755319127     0.029885293556     2.913672630030
C                    -1.633044724538    -1.063196271107     1.273389057590
C                    -4.216843225401    -3.639507258404     2.852083747688
C                    -3.136645104361    -3.887359565514     1.784730715507
C                    -3.282709354773    -2.890172055317     0.625489325716
C                     0.149961862824     0.574550150613     0.637311462108
C                    -1.816795647659     1.082876911332    -0.158760529348
C                    -3.116855279001    -1.425583296811     1.078235244013
C                    -0.447790253096     1.787271464632    -0.099883320370
C                    -6.794461333326     0.649416401386     4.758516892400
C                    -5.266568428051     0.664653942748     4.983469150969
N                    -4.775227483196    -1.652981761705     4.286967296934
N                    -3.819461070451    -1.223750166146     2.333603896666
N                    -4.587348358694    -0.282655747203     4.123693494533
N                    -1.147472700297    -0.102161518222     0.443432865065
O                    -3.718266607706     1.126703500214     2.433562397242
O                    -0.924144624172    -1.648878548073     2.090452085507
F                    -7.743515133154     1.260852817719    -0.783110779950
F                     0.110952363507     2.027441478628    -1.326684441849
F                    -0.422880490053     2.962601259822     0.587481532400
H                    -7.033480730855     2.977161528439     3.329305434922
H                    -7.276531506209    -1.292490878491     2.912202734492
H                    -7.418086256602     3.237778431262     0.877018530714
H                    -7.660288745012    -1.025868682178     0.452873635217
H                    -4.034639367730    -4.222226439330     3.758269827740
H                    -5.196956764103    -3.946993407943     2.464262978251
H                    -2.143193204263    -3.786254491384     2.227592778282
H                    -3.232044028878    -4.908020889933     1.401669524656
H                    -2.548450526837    -3.097732920733    -0.158109207453
H                    -4.276305450369    -2.995497423537     0.172918744996
H                     0.990345703956     0.092795330306     0.132733953678
H                     0.382631954048     0.758689161718     1.689299103714
H                    -2.571877006157     1.524419767072     0.496055548670
H                    -2.193342698798     0.921180866660    -1.171760256775
H                    -3.565644015409    -0.759034772646     0.337686435830
H                    -7.192038595914    -0.299164282265     5.130476765595
H                    -7.234954317355     1.449548044607     5.363634154946
H                    -4.849913586171     1.644592339669     4.739919980643
H                    -5.028030211361     0.429867052721     6.024702424666
