58
0 1 C25H26N2O5
C                    -0.522835498060   -14.636955121366     2.236170428652
C                     1.578447802470   -14.294152721975     1.086216469332
C                    -1.642824183980    -5.200701671846    -5.137562109773
C                    -1.075954992953   -13.567515813324     1.548245208967
C                     1.028907900360   -13.215299817030     0.388828814981
C                    -1.922104563761    -6.206272137535    -4.223097618480
C                     1.828815145985    -5.753108312119    -6.063871597914
C                     0.345761605980    -7.111047044843    -4.388328381707
C                     1.530386187204    -4.646300483290    -6.822651577025
C                     2.900346937137   -17.570997650231     3.354846972052
C                     0.646233426923    -6.092925236566    -5.318405516336
C                     0.816452341540   -15.016223588021     2.014290165501
C                    -0.349096856477    -5.147859284447    -5.675333041925
C                    -0.304411063725   -12.847089910512     0.618861005436
C                    -0.936974329850    -7.153855089305    -3.847245996157
C                     1.752401290001   -17.822475996007     4.043141896104
C                     1.374846812456   -16.142839609951     2.750666083288
C                    -1.448418695771    -3.615332226168    -8.363986477760
C                     0.355869351088   -19.852543712339     4.589851075853
C                     0.404873378048    -2.049051080914    -7.733082796037
C                     1.453899299474   -18.882731285389     5.057429751988
C                    -1.135380069681    -9.955249184822    -1.481099944746
C                    -0.203955231823   -11.036195054427    -0.951456772375
C                    -0.427507546790    -9.066465795857    -2.494526305423
C                    -0.515560279807    -3.162192811698    -7.217880488738
N                     0.787608479318   -16.898643655182     3.640936608384
N                     0.209208363410    -4.263292559417    -6.600866073637
O                    -2.262728128905    -2.862336979487    -8.846900143241
O                     2.677611068521   -16.494834187916     2.519958366372
O                    -1.290679578983    -4.877908918027    -8.819289279796
O                    -0.941356557458   -11.810792309702    -0.004396552436
O                    -1.363727328147    -8.085364611392    -2.931745661641
H                    -1.114485793273   -15.195076229918     2.954887041447
H                     2.611126699010   -14.575605686420     0.905393986436
H                    -2.415909447669    -4.492174202197    -5.420943872233
H                    -2.106457097869   -13.266217269408     1.711597070298
H                     1.645465101059   -12.677818868698    -0.322177267805
H                    -2.907714052304    -6.292470707690    -3.776471719293
H                     2.785246729192    -6.259123309276    -6.039724839617
H                     1.107228958637    -7.832280890129    -4.114713780610
H                     2.158636241012    -4.091710119172    -7.504250747745
H                     3.887151074985   -18.007866453005     3.328833445892
H                    -0.563606739438   -19.307059207408     4.360015252477
H                     0.134564388233   -20.591668351186     5.366936607040
H                     0.666083567901   -20.387283819059     3.686010965379
H                     1.035334768167    -2.391933084433    -8.558223602948
H                    -0.212072275766    -1.228614897536    -8.102600352361
H                     1.044126047377    -1.682962746377    -6.925660895348
H                     2.374283680347   -19.432452129064     5.282190088567
H                     1.136993642123   -18.397583058009     5.988366460912
H                    -2.007948230636   -10.420933941012    -1.949206147059
H                    -1.495017030214    -9.343549513410    -0.648112064230
H                     0.148915351388   -11.682911609560    -1.766753893605
H                     0.674152890642   -10.590809594248    -0.463521500920
H                    -0.075153218282    -9.656319634984    -3.353050309586
H                     0.444320263497    -8.574319940713    -2.039808937428
H                    -1.174516121728    -2.731819511015    -6.458498253043
H                    -0.628148351239    -5.338143286534    -8.269581707886
