
  -OEChem-05262117483D

 56 58  0     1  0  0  0  0  0999 V2000
    3.7252   -0.8082   -0.5080 C   0  0  0  0  0  0  0  0  0  0  0  0
    2.6480   -0.9649    0.3634 C   0  0  0  0  0  0  0  0  0  0  0  0
   -3.1675    1.3869    0.0858 C   0  0  0  0  0  0  0  0  0  0  0  0
   -1.9592    2.6194    1.7440 C   0  0  0  0  0  0  0  0  0  0  0  0
    1.1234   -0.4137   -1.4480 C   0  0  0  0  0  0  0  0  0  0  0  0
   -2.2000    0.3853    0.0885 C   0  0  0  0  0  0  0  0  0  0  0  0
    3.5338   -0.4433   -1.8439 C   0  0  0  0  0  0  0  0  0  0  0  0
   -3.0864    2.4987    0.9335 C   0  0  0  0  0  0  0  0  0  0  0  0
   -0.9519    1.6475    1.7565 C   0  0  0  0  0  0  0  0  0  0  0  0
    2.2244   -0.2472   -2.3069 C   0  0  0  0  0  0  0  0  0  0  0  0
    1.3495   -0.7708   -0.1059 C   0  0  0  0  0  0  0  0  0  0  0  0
   -1.0856    0.4872    0.9564 C   0  0  0  0  0  0  0  0  0  0  0  0
   -0.2722   -0.1380   -1.9024 C   0  0  0  0  0  0  0  0  0  0  0  0
   -2.3594   -0.7375   -0.9169 C   0  0  0  0  0  0  0  0  0  0  0  0
   -4.1769    3.5408    0.9516 C   0  0  0  0  0  0  0  0  0  0  0  0
    5.0823    3.6738   -2.2579 C   0  0  0  0  0  0  0  0  0  0  0  0
    4.2321    2.5365   -4.3469 C   0  0  0  0  0  0  0  0  0  0  0  0
    1.3304    2.2617    1.9723 C   0  0  0  0  0  0  0  0  0  0  0  0
    1.5058   -0.8820   -4.4804 C   0  0  0  0  0  0  0  0  0  0  0  0
    5.3463    1.1825   -2.4944 C   0  0  0  0  0  0  0  0  0  0  0  0
    4.7280   -0.2069   -2.7432 C   0  0  1  0  0  0  0  0  0  0  0  0
    4.4603    2.3938   -2.8351 C   0  0  0  0  0  0  0  0  0  0  0  0
   -0.6567    0.8296   -2.5212 O   0  0  0  0  0  0  0  0  0  0  0  0
    0.7681   -0.7456    2.4528 O   0  0  0  0  0  0  0  0  0  0  0  0
   -0.7395   -2.1614    1.0215 O   0  0  0  0  0  0  0  0  0  0  0  0
   -1.0730   -1.1292   -1.4312 O   0  0  0  0  0  0  0  0  0  0  0  0
    5.6834   -1.2393   -2.4434 O   0  0  0  0  0  0  0  0  0  0  0  0
    0.0973    1.8857    2.5994 O   0  0  0  0  0  0  0  0  0  0  0  0
    2.0368    0.1332   -3.6145 O   0  0  0  0  0  0  0  0  0  0  0  0
    0.0425   -0.9319    1.1913 S   0  0  0  0  0  0  0  0  0  0  0  0
    4.7373   -0.9784   -0.1548 H   0  0  0  0  0  0  0  0  0  0  0  0
    2.8071   -1.2088    1.4080 H   0  0  0  0  0  0  0  0  0  0  0  0
   -3.9951    1.3098   -0.6156 H   0  0  0  0  0  0  0  0  0  0  0  0
   -1.8216    3.4815    2.3910 H   0  0  0  0  0  0  0  0  0  0  0  0
   -2.7446   -1.6465   -0.4544 H   0  0  0  0  0  0  0  0  0  0  0  0
   -3.0153   -0.4192   -1.7300 H   0  0  0  0  0  0  0  0  0  0  0  0
   -4.9751    3.2458    1.6432 H   0  0  0  0  0  0  0  0  0  0  0  0
   -3.7978    4.5121    1.2799 H   0  0  0  0  0  0  0  0  0  0  0  0
   -4.6276    3.6630   -0.0375 H   0  0  0  0  0  0  0  0  0  0  0  0
    6.0731    3.8593   -2.6909 H   0  0  0  0  0  0  0  0  0  0  0  0
    4.4567    4.5461   -2.4757 H   0  0  0  0  0  0  0  0  0  0  0  0
    5.2000    3.6065   -1.1705 H   0  0  0  0  0  0  0  0  0  0  0  0
    5.1862    2.6724   -4.8721 H   0  0  0  0  0  0  0  0  0  0  0  0
    3.7257    1.6628   -4.7634 H   0  0  0  0  0  0  0  0  0  0  0  0
    3.6065    3.4093   -4.5619 H   0  0  0  0  0  0  0  0  0  0  0  0
    2.0689    2.3213    2.7726 H   0  0  0  0  0  0  0  0  0  0  0  0
    1.2240    3.2392    1.4848 H   0  0  0  0  0  0  0  0  0  0  0  0
    1.6594    1.5222    1.2380 H   0  0  0  0  0  0  0  0  0  0  0  0
    1.4202   -0.4228   -5.4663 H   0  0  0  0  0  0  0  0  0  0  0  0
    0.5161   -1.2146   -4.1522 H   0  0  0  0  0  0  0  0  0  0  0  0
    2.1850   -1.7419   -4.5237 H   0  0  0  0  0  0  0  0  0  0  0  0
    6.2733    1.2524   -3.0840 H   0  0  0  0  0  0  0  0  0  0  0  0
    5.6416    1.2219   -1.4388 H   0  0  0  0  0  0  0  0  0  0  0  0
    4.4110   -0.2892   -3.7875 H   0  0  0  0  0  0  0  0  0  0  0  0
    3.4833    2.2518   -2.3567 H   0  0  0  0  0  0  0  0  0  0  0  0
    6.5008   -1.0300   -2.9224 H   0  0  0  0  0  0  0  0  0  0  0  0
  1  2  1  0  0  0  0
  1  7  2  0  0  0  0
  1 31  1  0  0  0  0
  2 11  2  0  0  0  0
  2 32  1  0  0  0  0
  3  6  1  0  0  0  0
  3  8  2  0  0  0  0
  3 33  1  0  0  0  0
  4  8  1  0  0  0  0
  4  9  2  0  0  0  0
  4 34  1  0  0  0  0
  5 10  2  0  0  0  0
  5 11  1  0  0  0  0
  5 13  1  0  0  0  0
  6 12  2  0  0  0  0
  6 14  1  0  0  0  0
  7 10  1  0  0  0  0
  7 21  1  0  0  0  0
  8 15  1  0  0  0  0
  9 12  1  0  0  0  0
  9 28  1  0  0  0  0
 10 29  1  0  0  0  0
 11 30  1  0  0  0  0
 12 30  1  0  0  0  0
 13 23  2  0  0  0  0
 13 26  1  0  0  0  0
 14 26  1  0  0  0  0
 14 35  1  0  0  0  0
 14 36  1  0  0  0  0
 15 37  1  0  0  0  0
 15 38  1  0  0  0  0
 15 39  1  0  0  0  0
 16 22  1  0  0  0  0
 16 40  1  0  0  0  0
 16 41  1  0  0  0  0
 16 42  1  0  0  0  0
 17 22  1  0  0  0  0
 17 43  1  0  0  0  0
 17 44  1  0  0  0  0
 17 45  1  0  0  0  0
 18 28  1  0  0  0  0
 18 46  1  0  0  0  0
 18 47  1  0  0  0  0
 18 48  1  0  0  0  0
 19 29  1  0  0  0  0
 19 49  1  0  0  0  0
 19 50  1  0  0  0  0
 19 51  1  0  0  0  0
 20 21  1  0  0  0  0
 20 22  1  0  0  0  0
 20 52  1  0  0  0  0
 20 53  1  0  0  0  0
 21 27  1  0  0  0  0
 21 54  1  0  0  0  0
 22 55  1  0  0  0  0
 24 30  2  0  0  0  0
 25 30  2  0  0  0  0
 27 56  1  0  0  0  0
M  END
$$$$
