
  -OEChem-05262117483D

 26 27  0     1  0  0  0  0  0999 V2000
   -1.6593    2.4976   -0.4364 C   0  0  0  0  0  0  0  0  0  0  0  0
   -0.3823    2.9467   -0.0791 C   0  0  0  0  0  0  0  0  0  0  0  0
   -1.8995    1.1295   -0.5893 C   0  0  0  0  0  0  0  0  0  0  0  0
    0.6503    2.0281    0.1429 C   0  0  0  0  0  0  0  0  0  0  0  0
   -0.8760    0.1968   -0.3772 C   0  0  0  0  0  0  0  0  0  0  0  0
    0.3934    0.6659    0.0077 C   0  0  0  0  0  0  0  0  0  0  0  0
   -0.2010   -1.9938   -0.1854 C   0  0  0  0  0  0  0  0  0  0  0  0
    1.0483   -1.5653    0.5718 C   0  0  2  0  0  0  0  0  0  0  0  0
    0.9164   -1.7250    2.0981 C   0  0  0  0  0  0  0  0  0  0  0  0
   -0.3016   -1.0696    2.7648 C   0  0  0  0  0  0  0  0  0  0  0  0
   -1.1193   -1.1745   -0.5766 N   0  0  0  0  0  0  0  0  0  0  0  0
   -0.3082   -3.3367   -0.4581 N   0  0  0  0  0  0  0  0  0  0  0  0
    1.4230   -0.2259    0.2143 O   0  0  0  0  0  0  0  0  0  0  0  0
   -1.5292   -1.7510    2.4946 O   0  0  0  0  0  0  0  0  0  0  0  0
   -2.4620    3.2103   -0.6031 H   0  0  0  0  0  0  0  0  0  0  0  0
   -0.1872    4.0097    0.0330 H   0  0  0  0  0  0  0  0  0  0  0  0
   -2.8764    0.7578   -0.8865 H   0  0  0  0  0  0  0  0  0  0  0  0
    1.6477    2.3515    0.4278 H   0  0  0  0  0  0  0  0  0  0  0  0
    1.8888   -2.1790    0.2342 H   0  0  0  0  0  0  0  0  0  0  0  0
    1.8311   -1.3065    2.5350 H   0  0  0  0  0  0  0  0  0  0  0  0
    0.9043   -2.7946    2.3437 H   0  0  0  0  0  0  0  0  0  0  0  0
   -0.1676   -1.1234    3.8491 H   0  0  0  0  0  0  0  0  0  0  0  0
   -0.3715   -0.0091    2.4975 H   0  0  0  0  0  0  0  0  0  0  0  0
   -1.2302   -3.6281   -0.7666 H   0  0  0  0  0  0  0  0  0  0  0  0
    0.1388   -3.9782    0.1857 H   0  0  0  0  0  0  0  0  0  0  0  0
   -1.8528   -1.4708    1.6229 H   0  0  0  0  0  0  0  0  0  0  0  0
  1  2  1  0  0  0  0
  1  3  2  0  0  0  0
  1 15  1  0  0  0  0
  2  4  2  0  0  0  0
  2 16  1  0  0  0  0
  3  5  1  0  0  0  0
  3 17  1  0  0  0  0
  4  6  1  0  0  0  0
  4 18  1  0  0  0  0
  5  6  2  0  0  0  0
  5 11  1  0  0  0  0
  6 13  1  0  0  0  0
  7  8  1  0  0  0  0
  7 11  2  0  0  0  0
  7 12  1  0  0  0  0
  8  9  1  0  0  0  0
  8 13  1  0  0  0  0
  8 19  1  0  0  0  0
  9 10  1  0  0  0  0
  9 20  1  0  0  0  0
  9 21  1  0  0  0  0
 10 14  1  0  0  0  0
 10 22  1  0  0  0  0
 10 23  1  0  0  0  0
 12 24  1  0  0  0  0
 12 25  1  0  0  0  0
 14 26  1  0  0  0  0
M  END
$$$$
