
  -OEChem-05262117483D

 46 49  0     1  0  0  0  0  0999 V2000
   -1.9566   -0.3719    5.1780 C   0  0  0  0  0  0  0  0  0  0  0  0
   -2.0751    2.0260    5.3950 C   0  0  0  0  0  0  0  0  0  0  0  0
   -0.6049   -0.2881    4.8351 C   0  0  0  0  0  0  0  0  0  0  0  0
   -0.7248    2.1361    5.0545 C   0  0  0  0  0  0  0  0  0  0  0  0
   -2.7085    0.7768    5.4621 C   0  0  0  0  0  0  0  0  0  0  0  0
   -0.0190    0.9701    4.7799 C   0  0  0  0  0  0  0  0  0  0  0  0
   -4.2424   -2.3246    2.8664 C   0  0  0  0  0  0  0  0  0  0  0  0
   -3.7792   -0.1617    2.4334 C   0  0  0  0  0  0  0  0  0  0  0  0
   -1.1788   -1.6597    1.4908 C   0  0  0  0  0  0  0  0  0  0  0  0
   -4.2609   -3.8033    2.6404 C   0  0  0  0  0  0  0  0  0  0  0  0
   -3.0573   -4.2483    1.7917 C   0  0  0  0  0  0  0  0  0  0  0  0
   -2.8685   -3.3263    0.5765 C   0  0  0  0  0  0  0  0  0  0  0  0
    0.8896   -0.2435    1.2373 C   0  0  0  0  0  0  0  0  0  0  0  0
   -0.7978    0.4640    0.0436 C   0  0  0  0  0  0  0  0  0  0  0  0
   -2.6190   -1.8584    0.9750 C   0  0  1  0  0  0  0  0  0  0  0  0
    0.6106    0.9985    0.3700 C   0  0  0  0  0  0  0  0  0  0  0  0
   -4.1912    0.6700    5.7300 C   0  0  0  0  0  0  0  0  0  0  0  0
   -5.0145    0.7235    4.4267 C   0  0  0  0  0  0  0  0  0  0  0  0
   -4.8916   -1.6578    3.7813 N   0  0  0  0  0  0  0  0  0  0  0  0
   -3.5672   -1.4779    2.0110 N   0  0  0  0  0  0  0  0  0  0  0  0
   -4.6348   -0.3206    3.4962 N   0  0  0  0  0  0  0  0  0  0  0  0
   -0.4346   -0.7471    0.8235 N   0  0  0  0  0  0  0  0  0  0  0  0
   -3.3124    0.8665    1.9380 O   0  0  0  0  0  0  0  0  0  0  0  0
   -0.7218   -2.3352    2.4155 O   0  0  0  0  0  0  0  0  0  0  0  0
    1.2980    1.0649    4.4313 F   0  0  0  0  0  0  0  0  0  0  0  0
    1.4302    1.1210   -0.7201 F   0  0  0  0  0  0  0  0  0  0  0  0
    0.6409    2.1887    1.0296 F   0  0  0  0  0  0  0  0  0  0  0  0
   -2.4323   -1.3485    5.2112 H   0  0  0  0  0  0  0  0  0  0  0  0
   -2.6441    2.9301    5.6003 H   0  0  0  0  0  0  0  0  0  0  0  0
   -0.0321   -1.1748    4.5876 H   0  0  0  0  0  0  0  0  0  0  0  0
   -0.2258    3.0983    4.9933 H   0  0  0  0  0  0  0  0  0  0  0  0
   -4.2873   -4.3149    3.6058 H   0  0  0  0  0  0  0  0  0  0  0  0
   -5.1942   -4.0562    2.1209 H   0  0  0  0  0  0  0  0  0  0  0  0
   -2.1483   -4.2372    2.3956 H   0  0  0  0  0  0  0  0  0  0  0  0
   -3.2195   -5.2741    1.4464 H   0  0  0  0  0  0  0  0  0  0  0  0
   -2.0298   -3.6684   -0.0366 H   0  0  0  0  0  0  0  0  0  0  0  0
   -3.7653   -3.3572   -0.0543 H   0  0  0  0  0  0  0  0  0  0  0  0
    1.7263   -0.8597    0.8995 H   0  0  0  0  0  0  0  0  0  0  0  0
    0.9677   -0.0344    2.3047 H   0  0  0  0  0  0  0  0  0  0  0  0
   -1.6134    1.0339    0.4939 H   0  0  0  0  0  0  0  0  0  0  0  0
   -0.9651    0.2791   -1.0208 H   0  0  0  0  0  0  0  0  0  0  0  0
   -2.7935   -1.2067    0.1156 H   0  0  0  0  0  0  0  0  0  0  0  0
   -4.5303    1.4886    6.3744 H   0  0  0  0  0  0  0  0  0  0  0  0
   -4.4202   -0.2675    6.2453 H   0  0  0  0  0  0  0  0  0  0  0  0
   -6.0820    0.6228    4.6441 H   0  0  0  0  0  0  0  0  0  0  0  0
   -4.8484    1.6687    3.9049 H   0  0  0  0  0  0  0  0  0  0  0  0
  1  3  1  0  0  0  0
  1  5  2  0  0  0  0
  1 28  1  0  0  0  0
  2  4  2  0  0  0  0
  2  5  1  0  0  0  0
  2 29  1  0  0  0  0
  3  6  2  0  0  0  0
  3 30  1  0  0  0  0
  4  6  1  0  0  0  0
  4 31  1  0  0  0  0
  5 17  1  0  0  0  0
  6 25  1  0  0  0  0
  7 10  1  0  0  0  0
  7 19  2  0  0  0  0
  7 20  1  0  0  0  0
  8 20  1  0  0  0  0
  8 21  1  0  0  0  0
  8 23  2  0  0  0  0
  9 15  1  0  0  0  0
  9 22  1  0  0  0  0
  9 24  2  0  0  0  0
 10 11  1  0  0  0  0
 10 32  1  0  0  0  0
 10 33  1  0  0  0  0
 11 12  1  0  0  0  0
 11 34  1  0  0  0  0
 11 35  1  0  0  0  0
 12 15  1  0  0  0  0
 12 36  1  0  0  0  0
 12 37  1  0  0  0  0
 13 16  1  0  0  0  0
 13 22  1  0  0  0  0
 13 38  1  0  0  0  0
 13 39  1  0  0  0  0
 14 16  1  0  0  0  0
 14 22  1  0  0  0  0
 14 40  1  0  0  0  0
 14 41  1  0  0  0  0
 15 20  1  0  0  0  0
 15 42  1  0  0  0  0
 16 26  1  0  0  0  0
 16 27  1  0  0  0  0
 17 18  1  0  0  0  0
 17 43  1  0  0  0  0
 17 44  1  0  0  0  0
 18 21  1  0  0  0  0
 18 45  1  0  0  0  0
 18 46  1  0  0  0  0
 19 21  1  0  0  0  0
M  END
$$$$
