58
0 1 C25H26N2O5
C                     3.233116200116   -11.195788413453     0.666828257822
C                     2.985256532151   -11.052562479095    -1.736285610808
C                     3.227112483574    -7.390954028651    -3.008456724713
C                     1.861902146877   -11.020339386457     0.824415400207
C                     1.614194432149   -10.873568499256    -1.582810418772
C                     2.020944468381    -7.334106066106    -2.308908984863
C                     5.725703039311    -8.124774856611    -0.473924352283
C                     3.147256440961    -7.815399724350    -0.196761501569
C                     6.506505987486    -8.072619431191    -1.598935459109
C                     7.176768605405   -11.431975278834    -1.773042741412
C                     4.369080021053    -7.861993936503    -0.882450772911
C                     3.813753417974   -11.199204919111    -0.612110133007
C                     4.392752477817    -7.664261659340    -2.290880298303
C                     1.046979609027   -10.834169647223    -0.302583804233
C                     1.981131752144    -7.565538131371    -0.915829731454
C                     7.377905561115   -11.564068869877    -0.433729623017
C                     5.257191788886   -11.332027388261    -0.736763328423
C                     6.849082031326    -8.618674225110    -4.797649446585
C                     8.686754407876   -13.109139703510     1.072421226917
C                     7.177245023648    -6.235918190074    -3.976188627958
C                     8.651534801658   -11.764647453669     0.326876880030
C                    -1.389462062585    -8.480956533380     0.089643196291
C                    -0.799459863335    -9.714788991210     0.773940133598
C                    -0.411042663556    -7.843241033887    -0.890197101759
C                     6.224106965315    -7.433982909347    -4.031209214592
N                     6.141737494997   -11.499834514239     0.209581322216
N                     5.715259652974    -7.821350613131    -2.722066081800
O                     7.606328936431    -8.458412562893    -5.728360588430
O                     5.817026780712   -11.281364507164    -1.989024250321
O                     6.460850472204    -9.853556067808    -4.412482432067
O                    -0.309722674686   -10.639617158877    -0.218900651490
O                     0.807197952894    -7.562953894463    -0.192643709105
H                     3.873031325228   -11.328044742364     1.533488446268
H                     3.416906536356   -11.057643331749    -2.731905449394
H                     3.232992743073    -7.227476323687    -4.082614526023
H                     1.428059888491   -11.031504755722     1.819380741835
H                     0.970586422705   -10.736772777105    -2.446141135335
H                     1.109799489856    -7.110207679827    -2.851857106381
H                     6.070085593605    -8.363199136156     0.523153835194
H                     3.085177096013    -8.003282309671     0.870059315924
H                     7.572001306027    -8.224540477385    -1.705572207835
H                     7.803982154518   -11.423895166168    -2.651230341003
H                     7.841619920670   -13.186639256502     1.762010798889
H                     9.613204683615   -13.209307149708     1.647371028035
H                     8.626823871660   -13.946175101757     0.369228477397
H                     8.082960866247    -6.478034136843    -3.414422573238
H                     7.472933548283    -5.949758210215    -4.986667143482
H                     6.677988397362    -5.394861325490    -3.488243751937
H                     9.497071061370   -11.693346073970    -0.365636036192
H                     8.760801190696   -10.946772630869     1.049638634551
H                    -2.295955430552    -8.751988188761    -0.463399747827
H                    -1.678873307227    -7.762240037003     0.865707796469
H                     0.010654755591    -9.411370584556     1.438582720203
H                    -1.562290757495   -10.234923780457     1.361385814242
H                    -0.827984488822    -6.917907454358    -1.309013907717
H                    -0.217310087672    -8.538678072248    -1.712143175888
H                     5.353862103985    -7.151315409118    -4.631202395998
H                     5.909032075902    -9.801737072092    -3.605208161235
