
  -OEChem-05262117483D

 58 61  0     1  0  0  0  0  0999 V2000
    3.5426  -11.2628   -2.3907 C   0  0  0  0  0  0  0  0  0  0  0  0
    3.3645  -10.9976    0.0107 C   0  0  0  0  0  0  0  0  0  0  0  0
    3.3470   -7.8530   -3.9226 C   0  0  0  0  0  0  0  0  0  0  0  0
    2.2130  -10.8949   -2.5293 C   0  0  0  0  0  0  0  0  0  0  0  0
    2.0287  -10.6303   -0.1220 C   0  0  0  0  0  0  0  0  0  0  0  0
    2.0555   -7.4503   -3.5866 C   0  0  0  0  0  0  0  0  0  0  0  0
    5.1048   -8.0501   -0.7496 C   0  0  0  0  0  0  0  0  0  0  0  0
    2.6069   -7.4087   -1.2081 C   0  0  0  0  0  0  0  0  0  0  0  0
    6.0994   -8.4019   -1.6294 C   0  0  0  0  0  0  0  0  0  0  0  0
    7.3480  -12.2785    0.0716 C   0  0  0  0  0  0  0  0  0  0  0  0
    3.9195   -7.7978   -1.5261 C   0  0  0  0  0  0  0  0  0  0  0  0
    4.1431  -11.2971   -1.1180 C   0  0  0  0  0  0  0  0  0  0  0  0
    4.2660   -8.0300   -2.8843 C   0  0  0  0  0  0  0  0  0  0  0  0
    1.4557  -10.5479   -1.4007 C   0  0  0  0  0  0  0  0  0  0  0  0
    1.6856   -7.2450   -2.2380 C   0  0  0  0  0  0  0  0  0  0  0  0
    7.6268  -12.1937   -1.2563 C   0  0  0  0  0  0  0  0  0  0  0  0
    5.5478  -11.6385   -0.9788 C   0  0  0  0  0  0  0  0  0  0  0  0
    6.0770   -9.6765   -5.0558 C   0  0  0  0  0  0  0  0  0  0  0  0
    9.4640  -11.5169   -2.9008 C   0  0  0  0  0  0  0  0  0  0  0  0
    7.8714   -8.2856   -3.9591 C   0  0  0  0  0  0  0  0  0  0  0  0
    8.8793  -12.5922   -1.9766 C   0  0  0  0  0  0  0  0  0  0  0  0
   -1.4172   -8.3661   -1.3853 C   0  0  0  0  0  0  0  0  0  0  0  0
   -0.4702   -9.3102   -0.6559 C   0  0  0  0  0  0  0  0  0  0  0  0
   -0.7022   -7.5439   -2.4604 C   0  0  0  0  0  0  0  0  0  0  0  0
    6.3644   -8.4414   -4.1753 C   0  0  2  0  0  0  0  0  0  0  0  0
    6.4690  -11.7543   -1.9099 N   0  0  0  0  0  0  0  0  0  0  0  0
    5.6058   -8.4138   -2.9300 N   0  0  0  0  0  0  0  0  0  0  0  0
    5.8438   -9.5339   -6.2407 O   0  0  0  0  0  0  0  0  0  0  0  0
    6.0266  -11.9293    0.2628 O   0  0  0  0  0  0  0  0  0  0  0  0
    6.1448  -10.8993   -4.5119 O   0  0  0  0  0  0  0  0  0  0  0  0
    0.1781  -10.1357   -1.6378 O   0  0  0  0  0  0  0  0  0  0  0  0
    0.4085   -6.8270   -1.8951 O   0  0  0  0  0  0  0  0  0  0  0  0
    4.1201  -11.5156   -3.2728 H   0  0  0  0  0  0  0  0  0  0  0  0
    3.8134  -11.0367    0.9979 H   0  0  0  0  0  0  0  0  0  0  0  0
    3.6158   -8.0241   -4.9609 H   0  0  0  0  0  0  0  0  0  0  0  0
    1.7513  -10.8305   -3.5089 H   0  0  0  0  0  0  0  0  0  0  0  0
    1.4474  -10.3986    0.7634 H   0  0  0  0  0  0  0  0  0  0  0  0
    1.3280   -7.2814   -4.3743 H   0  0  0  0  0  0  0  0  0  0  0  0
    5.2057   -7.9950    0.3264 H   0  0  0  0  0  0  0  0  0  0  0  0
    2.2987   -7.2344   -0.1814 H   0  0  0  0  0  0  0  0  0  0  0  0
    7.1261   -8.6685   -1.4260 H   0  0  0  0  0  0  0  0  0  0  0  0
    7.9056  -12.5677    0.9492 H   0  0  0  0  0  0  0  0  0  0  0  0
    8.7678  -11.2747   -3.7073 H   0  0  0  0  0  0  0  0  0  0  0  0
   10.3913  -11.8737   -3.3599 H   0  0  0  0  0  0  0  0  0  0  0  0
    9.6934  -10.6011   -2.3460 H   0  0  0  0  0  0  0  0  0  0  0  0
    8.2876   -9.0985   -3.3641 H   0  0  0  0  0  0  0  0  0  0  0  0
    8.3731   -8.2860   -4.9301 H   0  0  0  0  0  0  0  0  0  0  0  0
    8.0839   -7.3377   -3.4572 H   0  0  0  0  0  0  0  0  0  0  0  0
    9.6223  -12.8884   -1.2286 H   0  0  0  0  0  0  0  0  0  0  0  0
    8.6597  -13.4884   -2.5697 H   0  0  0  0  0  0  0  0  0  0  0  0
   -2.2286   -8.9306   -1.8605 H   0  0  0  0  0  0  0  0  0  0  0  0
   -1.8697   -7.7002   -0.6416 H   0  0  0  0  0  0  0  0  0  0  0  0
    0.2781   -8.7266   -0.1144 H   0  0  0  0  0  0  0  0  0  0  0  0
   -1.0103   -9.9433    0.0589 H   0  0  0  0  0  0  0  0  0  0  0  0
   -1.3877   -6.8049   -2.8879 H   0  0  0  0  0  0  0  0  0  0  0  0
   -0.3619   -8.2047   -3.2602 H   0  0  0  0  0  0  0  0  0  0  0  0
    6.0234   -7.6005   -4.7843 H   0  0  0  0  0  0  0  0  0  0  0  0
    6.2960  -10.9655   -3.5250 H   0  0  0  0  0  0  0  0  0  0  0  0
  1  4  1  0  0  0  0
  1 12  2  0  0  0  0
  1 33  1  0  0  0  0
  2  5  2  0  0  0  0
  2 12  1  0  0  0  0
  2 34  1  0  0  0  0
  3  6  2  0  0  0  0
  3 13  1  0  0  0  0
  3 35  1  0  0  0  0
  4 14  2  0  0  0  0
  4 36  1  0  0  0  0
  5 14  1  0  0  0  0
  5 37  1  0  0  0  0
  6 15  1  0  0  0  0
  6 38  1  0  0  0  0
  7  9  2  0  0  0  0
  7 11  1  0  0  0  0
  7 39  1  0  0  0  0
  8 11  1  0  0  0  0
  8 15  2  0  0  0  0
  8 40  1  0  0  0  0
  9 27  1  0  0  0  0
  9 41  1  0  0  0  0
 10 16  2  0  0  0  0
 10 29  1  0  0  0  0
 10 42  1  0  0  0  0
 11 13  2  0  0  0  0
 12 17  1  0  0  0  0
 13 27  1  0  0  0  0
 14 31  1  0  0  0  0
 15 32  1  0  0  0  0
 16 21  1  0  0  0  0
 16 26  1  0  0  0  0
 17 26  2  0  0  0  0
 17 29  1  0  0  0  0
 18 25  1  0  0  0  0
 18 28  2  0  0  0  0
 18 30  1  0  0  0  0
 19 21  1  0  0  0  0
 19 43  1  0  0  0  0
 19 44  1  0  0  0  0
 19 45  1  0  0  0  0
 20 25  1  0  0  0  0
 20 46  1  0  0  0  0
 20 47  1  0  0  0  0
 20 48  1  0  0  0  0
 21 49  1  0  0  0  0
 21 50  1  0  0  0  0
 22 23  1  0  0  0  0
 22 24  1  0  0  0  0
 22 51  1  0  0  0  0
 22 52  1  0  0  0  0
 23 31  1  0  0  0  0
 23 53  1  0  0  0  0
 23 54  1  0  0  0  0
 24 32  1  0  0  0  0
 24 55  1  0  0  0  0
 24 56  1  0  0  0  0
 25 27  1  0  0  0  0
 25 57  1  0  0  0  0
 30 58  1  0  0  0  0
M  END
$$$$
