
  -OEChem-05262117483D

 43 44  0     1  0  0  0  0  0999 V2000
    5.0041   -3.4368   -3.0002 C   0  0  0  0  0  0  0  0  0  0  0  0
    4.2972   -2.6175   -3.8884 C   0  0  0  0  0  0  0  0  0  0  0  0
    4.5173   -3.6684   -1.7087 C   0  0  0  0  0  0  0  0  0  0  0  0
    3.1011   -2.0180   -3.4862 C   0  0  0  0  0  0  0  0  0  0  0  0
    3.3223   -3.0742   -1.2939 C   0  0  0  0  0  0  0  0  0  0  0  0
   -1.2032    0.4892    2.3573 C   0  0  0  0  0  0  0  0  0  0  0  0
    0.8417    0.6352    1.8881 C   0  0  0  0  0  0  0  0  0  0  0  0
    2.6359   -2.2516   -2.1898 C   0  0  0  0  0  0  0  0  0  0  0  0
    0.9991    4.6195   -2.1416 C   0  0  0  0  0  0  0  0  0  0  0  0
    1.2302    2.4164   -3.3185 C   0  0  0  0  0  0  0  0  0  0  0  0
   -0.9924    3.1210   -2.3708 C   0  0  0  0  0  0  0  0  0  0  0  0
    1.7245    0.1407   -1.0272 C   0  0  0  0  0  0  0  0  0  0  0  0
    0.5421    1.0299   -0.6185 C   0  0  2  0  0  0  0  0  0  0  0  0
    0.8578    2.5343   -0.7667 C   0  0  2  0  0  0  0  0  0  0  0  0
    0.5343    3.1494   -2.1578 C   0  0  0  0  0  0  0  0  0  0  0  0
    0.0370    0.4722    2.9305 N   0  0  0  0  0  0  0  0  0  0  0  0
   -1.2094    0.6529    1.0392 N   0  0  0  0  0  0  0  0  0  0  0  0
    0.1191    0.7324    0.7468 N   0  0  0  0  0  0  0  0  0  0  0  0
    0.2998   -1.1558   -2.8383 O   0  0  0  0  0  0  0  0  0  0  0  0
    0.5645   -2.2267   -0.5231 O   0  0  0  0  0  0  0  0  0  0  0  0
    2.2331    2.6844   -0.3788 O   0  0  0  0  0  0  0  0  0  0  0  0
    1.1170   -1.4588   -1.6478 S   0  0  0  0  0  0  0  0  0  0  0  0
    5.9326   -3.9032   -3.3187 H   0  0  0  0  0  0  0  0  0  0  0  0
    4.6718   -2.4531   -4.8949 H   0  0  0  0  0  0  0  0  0  0  0  0
    5.0622   -4.3166   -1.0280 H   0  0  0  0  0  0  0  0  0  0  0  0
    2.5228   -1.3987   -4.1654 H   0  0  0  0  0  0  0  0  0  0  0  0
    2.9120   -3.2571   -0.3052 H   0  0  0  0  0  0  0  0  0  0  0  0
   -2.1212    0.3725    2.9186 H   0  0  0  0  0  0  0  0  0  0  0  0
    1.9207    0.6951    1.9175 H   0  0  0  0  0  0  0  0  0  0  0  0
    0.5684    5.1695   -1.2952 H   0  0  0  0  0  0  0  0  0  0  0  0
    2.0904    4.7004   -2.0933 H   0  0  0  0  0  0  0  0  0  0  0  0
    0.6801    5.1279   -3.0569 H   0  0  0  0  0  0  0  0  0  0  0  0
    0.8563    1.3956   -3.4446 H   0  0  0  0  0  0  0  0  0  0  0  0
    2.3154    2.3842   -3.1732 H   0  0  0  0  0  0  0  0  0  0  0  0
    1.0404    2.9481   -4.2572 H   0  0  0  0  0  0  0  0  0  0  0  0
   -1.3835    2.1035   -2.4572 H   0  0  0  0  0  0  0  0  0  0  0  0
   -1.5221    3.6158   -1.5491 H   0  0  0  0  0  0  0  0  0  0  0  0
   -1.2487    3.6451   -3.2972 H   0  0  0  0  0  0  0  0  0  0  0  0
    2.2939    0.5831   -1.8408 H   0  0  0  0  0  0  0  0  0  0  0  0
    2.4059   -0.0615   -0.2021 H   0  0  0  0  0  0  0  0  0  0  0  0
   -0.3235    0.7930   -1.2359 H   0  0  0  0  0  0  0  0  0  0  0  0
    0.2184    3.0501   -0.0383 H   0  0  0  0  0  0  0  0  0  0  0  0
    2.3906    3.6156   -0.1630 H   0  0  0  0  0  0  0  0  0  0  0  0
  1  2  1  0  0  0  0
  1  3  2  0  0  0  0
  1 23  1  0  0  0  0
  2  4  2  0  0  0  0
  2 24  1  0  0  0  0
  3  5  1  0  0  0  0
  3 25  1  0  0  0  0
  4  8  1  0  0  0  0
  4 26  1  0  0  0  0
  5  8  2  0  0  0  0
  5 27  1  0  0  0  0
  6 16  1  0  0  0  0
  6 17  2  0  0  0  0
  6 28  1  0  0  0  0
  7 16  2  0  0  0  0
  7 18  1  0  0  0  0
  7 29  1  0  0  0  0
  8 22  1  0  0  0  0
  9 15  1  0  0  0  0
  9 30  1  0  0  0  0
  9 31  1  0  0  0  0
  9 32  1  0  0  0  0
 10 15  1  0  0  0  0
 10 33  1  0  0  0  0
 10 34  1  0  0  0  0
 10 35  1  0  0  0  0
 11 15  1  0  0  0  0
 11 36  1  0  0  0  0
 11 37  1  0  0  0  0
 11 38  1  0  0  0  0
 12 13  1  0  0  0  0
 12 22  1  0  0  0  0
 12 39  1  0  0  0  0
 12 40  1  0  0  0  0
 13 14  1  0  0  0  0
 13 18  1  0  0  0  0
 13 41  1  0  0  0  0
 14 15  1  0  0  0  0
 14 21  1  0  0  0  0
 14 42  1  0  0  0  0
 17 18  1  0  0  0  0
 19 22  2  0  0  0  0
 20 22  2  0  0  0  0
 21 43  1  0  0  0  0
M  END
$$$$
