
  -OEChem-05262117483D

 23 24  0     0  0  0  0  0  0999 V2000
    1.7858   -0.9316   -0.1859 C   0  0  0  0  0  0  0  0  0  0  0  0
    4.4151   -3.6253    6.1790 C   0  0  0  0  0  0  0  0  0  0  0  0
    1.6272    0.2106    0.6064 C   0  0  0  0  0  0  0  0  0  0  0  0
    1.9839   -2.1737    0.4278 C   0  0  0  0  0  0  0  0  0  0  0  0
    3.0795   -3.4537    6.5587 C   0  0  0  0  0  0  0  0  0  0  0  0
    4.8949   -2.9770    5.0351 C   0  0  0  0  0  0  0  0  0  0  0  0
    1.6751    0.1175    2.0002 C   0  0  0  0  0  0  0  0  0  0  0  0
    2.0255   -2.2815    1.8205 C   0  0  0  0  0  0  0  0  0  0  0  0
    2.2253   -2.6494    5.7990 C   0  0  0  0  0  0  0  0  0  0  0  0
    4.0534   -2.1635    4.2716 C   0  0  0  0  0  0  0  0  0  0  0  0
    1.8755   -1.1286    2.6000 C   0  0  0  0  0  0  0  0  0  0  0  0
    2.7170   -2.0095    4.6583 C   0  0  0  0  0  0  0  0  0  0  0  0
    1.8445   -1.1705    3.9845 O   0  0  0  0  0  0  0  0  0  0  0  0
    1.7528   -0.8558   -1.2692 H   0  0  0  0  0  0  0  0  0  0  0  0
    5.0757   -4.2548    6.7686 H   0  0  0  0  0  0  0  0  0  0  0  0
    1.4712    1.1800    0.1402 H   0  0  0  0  0  0  0  0  0  0  0  0
    2.0994   -3.0684   -0.1786 H   0  0  0  0  0  0  0  0  0  0  0  0
    2.6969   -3.9512    7.4461 H   0  0  0  0  0  0  0  0  0  0  0  0
    5.9333   -3.0969    4.7366 H   0  0  0  0  0  0  0  0  0  0  0  0
    1.5582    0.9927    2.6324 H   0  0  0  0  0  0  0  0  0  0  0  0
    2.1724   -3.2452    2.2980 H   0  0  0  0  0  0  0  0  0  0  0  0
    1.1846   -2.5066    6.0748 H   0  0  0  0  0  0  0  0  0  0  0  0
    4.4258   -1.6547    3.3880 H   0  0  0  0  0  0  0  0  0  0  0  0
  1  3  1  0  0  0  0
  1  4  2  0  0  0  0
  1 14  1  0  0  0  0
  2  5  1  0  0  0  0
  2  6  2  0  0  0  0
  2 15  1  0  0  0  0
  3  7  2  0  0  0  0
  3 16  1  0  0  0  0
  4  8  1  0  0  0  0
  4 17  1  0  0  0  0
  5  9  2  0  0  0  0
  5 18  1  0  0  0  0
  6 10  1  0  0  0  0
  6 19  1  0  0  0  0
  7 11  1  0  0  0  0
  7 20  1  0  0  0  0
  8 11  2  0  0  0  0
  8 21  1  0  0  0  0
  9 12  1  0  0  0  0
  9 22  1  0  0  0  0
 10 12  2  0  0  0  0
 10 23  1  0  0  0  0
 11 13  1  0  0  0  0
 12 13  1  0  0  0  0
M  END
$$$$
