
  -OEChem-05262117483D

 22 23  0     0  0  0  0  0  0999 V2000
    0.1816   -0.4709    0.9221 C   0  0  0  0  0  0  0  0  0  0  0  0
    1.3754   -0.0760    1.5349 C   0  0  0  0  0  0  0  0  0  0  0  0
    1.9717   -3.0130    6.4224 C   0  0  0  0  0  0  0  0  0  0  0  0
   -0.6478   -1.3649    1.5939 C   0  0  0  0  0  0  0  0  0  0  0  0
    0.5684   -2.8525    6.5848 C   0  0  0  0  0  0  0  0  0  0  0  0
    2.2395   -2.4787    5.1800 C   0  0  0  0  0  0  0  0  0  0  0  0
    1.6934   -0.5871    2.7948 C   0  0  0  0  0  0  0  0  0  0  0  0
    0.7819   -1.4992    3.3858 C   0  0  0  0  0  0  0  0  0  0  0  0
    3.6748    0.7443    2.9675 C   0  0  0  0  0  0  0  0  0  0  0  0
   -0.3452   -1.8727    2.7957 N   0  0  0  0  0  0  0  0  0  0  0  0
    0.0058   -2.2762    5.5283 N   0  0  0  0  0  0  0  0  0  0  0  0
    1.0414   -2.0440    4.6700 N   0  0  0  0  0  0  0  0  0  0  0  0
    2.8146   -0.2611    3.5023 O   0  0  0  0  0  0  0  0  0  0  0  0
   -0.0923   -0.0872   -0.0563 H   0  0  0  0  0  0  0  0  0  0  0  0
    2.0336    0.6280    1.0387 H   0  0  0  0  0  0  0  0  0  0  0  0
    2.6815   -3.4520    7.1104 H   0  0  0  0  0  0  0  0  0  0  0  0
   -1.5873   -1.6965    1.1569 H   0  0  0  0  0  0  0  0  0  0  0  0
   -0.0499   -3.1258    7.4314 H   0  0  0  0  0  0  0  0  0  0  0  0
    3.1593   -2.3718    4.6267 H   0  0  0  0  0  0  0  0  0  0  0  0
    4.4629    0.8820    3.7082 H   0  0  0  0  0  0  0  0  0  0  0  0
    3.1375    1.6893    2.8255 H   0  0  0  0  0  0  0  0  0  0  0  0
    4.1192    0.4244    2.0174 H   0  0  0  0  0  0  0  0  0  0  0  0
  1  2  1  0  0  0  0
  1  4  2  0  0  0  0
  1 14  1  0  0  0  0
  2  7  2  0  0  0  0
  2 15  1  0  0  0  0
  3  5  1  0  0  0  0
  3  6  2  0  0  0  0
  3 16  1  0  0  0  0
  4 10  1  0  0  0  0
  4 17  1  0  0  0  0
  5 11  2  0  0  0  0
  5 18  1  0  0  0  0
  6 12  1  0  0  0  0
  6 19  1  0  0  0  0
  7  8  1  0  0  0  0
  7 13  1  0  0  0  0
  8 10  2  0  0  0  0
  8 12  1  0  0  0  0
  9 13  1  0  0  0  0
  9 20  1  0  0  0  0
  9 21  1  0  0  0  0
  9 22  1  0  0  0  0
 11 12  1  0  0  0  0
M  END
$$$$
