22
0 1 C9H9N3O
C                     0.159669920384    -0.458377665594     0.963697969492
C                     1.348715311528    -0.051222808795     1.574984755677
C                     0.713518605599    -3.319302535694     6.502466894256
C                    -0.648092691052    -1.367332480189     1.637493041088
C                     1.926416352591    -2.579685275198     6.563846402343
C                     0.154601418726    -2.973987692867     5.292330976044
C                     1.702638634591    -0.554517745129     2.832436355667
C                     0.802820646633    -1.480725948752     3.433889039571
C                     3.718720906342     0.720870459295     2.867094234985
N                    -0.325611241603    -1.858675430626     2.839328962921
N                     2.110918167591    -1.833294906245     5.481386027560
N                     1.016672280770    -2.079392123051     4.700575236979
O                     2.836430950385    -0.208516019698     3.488393847761
H                    -0.124748971200    -0.074505976344    -0.011352025942
H                     1.996246937151     0.656438376593     1.070940361535
H                     0.308250355516    -4.003779298001     7.235264267031
H                    -1.584513692043    -1.719224736448     1.210091583745
H                     2.670164963072    -2.561671151595     7.351590626199
H                    -0.756981940784    -3.269789911225     4.798065993718
H                     4.544979626568     0.845673237233     3.567285507241
H                     3.231216416887     1.689957426622     2.702449440266
H                     4.103494128347     0.335275213410     1.914632475710
