33
0 1 C16H14N2O
C                     2.002529493041    -4.799306316307     6.550701222380
C                     0.187644275656    -1.922437924236     2.440547155415
C                     1.285723358146    -5.815432740201     7.187718827092
C                     1.038763937036    -1.483361616393     1.417036100589
C                     1.972565849507    -4.714930232465     5.159377821290
C                     0.285372352499    -3.233938303372     2.893894219023
C                     0.556878166536    -6.731573712523     6.425410797058
C                     1.947918283189    -2.364763464821     0.840555617346
C                     1.255924177597    -5.644307927116     4.385469258405
C                     1.201857787435    -4.143553790422     2.332389583137
C                     0.530047453176    -6.676956337757     5.023776176931
C                     2.029023575610    -3.699292773606     1.276432636193
C                     1.315628379429    -5.516610846175     2.897680021582
C                     2.800375990313    -5.850298289823     0.261672002804
C                     1.504972446370    -6.486966600533     0.750316371721
C                    -0.279232050026    -7.704885059189     4.266877592141
N                     1.477435747110    -6.586900335616     2.202129109578
N                     2.988664914939    -4.538512530710     0.678969959041
O                     3.626072205749    -6.415155951269    -0.439385585464
H                     2.574860808902    -4.079081940052     7.129217302182
H                    -0.533592993406    -1.243017862936     2.885345292392
H                     1.287762521360    -5.892465230803     8.272131008515
H                     0.986994414097    -0.457367095875     1.062802605596
H                     2.522896051323    -3.923265779164     4.658740651039
H                    -0.345633275214    -3.572431961994     3.710061947893
H                    -0.009007209971    -7.511914419112     6.929232148297
H                     2.598383476765    -2.030514294271     0.035528053031
H                     0.664010643180    -5.889770570486     0.364382706427
H                     1.457091381077    -7.486683292042     0.319018730745
H                    -0.851004639421    -7.253217783968     3.451536030609
H                     0.371450757093    -8.454876934153     3.809845290812
H                    -0.976896659855    -8.209397431197     4.941672300656
H                     3.773699471013    -4.087235036838     0.219729041371
