17
-1 1 C7H6NO3
C                     0.717321140740     0.003515080789     2.703968083609
C                     0.298906318958     0.816703420251     3.707131353917
C                     0.089263469308     0.546891301378     1.528087795950
C                     1.194594443919    -1.082544037700    -0.238278988650
C                    -1.166027701218    -0.021530088118    -0.624611023840
C                    -0.162807824825     1.032955243463    -0.975501806937
C                     0.167402136076     0.035704877596     0.134247718007
N                    -0.643690698675     1.607603207192     1.834412221591
O                     1.924647159714    -1.524269353741     0.692477276136
O                     1.171316546975    -1.422386569032    -1.450893038448
O                    -0.518234667345     1.789047356892     3.233659188852
H                     1.380614246082    -0.847258064770     2.699892201979
H                     0.487458101780     0.843525777903     4.773580821303
H                    -2.050616434729     0.282120817836    -0.070989445609
H                    -1.263814892447    -0.862573305222    -1.303162181453
H                     0.406204824953     0.886998405440    -1.887366852769
H                    -0.368112495577     2.054167801199    -0.667263220322
