
  -OEChem-05262117483D

 43 43  0     0  0  0  0  0  0999 V2000
    0.8156   -6.1000   -0.6454 C   0  0  0  0  0  0  0  0  0  0  0  0
    0.5223   -4.7217   -0.6041 C   0  0  0  0  0  0  0  0  0  0  0  0
    2.0460   -6.2624   -0.0177 C   0  0  0  0  0  0  0  0  0  0  0  0
    1.5721   -4.0654    0.0544 C   0  0  0  0  0  0  0  0  0  0  0  0
    1.6299   -2.6285    0.3334 C   0  0  0  0  0  0  0  0  0  0  0  0
    3.7974   -4.8951    1.0696 C   0  0  0  0  0  0  0  0  0  0  0  0
   -2.0321    0.9463   -0.6224 C   0  0  0  0  0  0  0  0  0  0  0  0
   -1.5441   -1.0087   -1.9983 C   0  0  0  0  0  0  0  0  0  0  0  0
    1.1598    0.9969    2.0930 C   0  0  0  0  0  0  0  0  0  0  0  0
   -0.8295   -0.4182    2.2954 C   0  0  0  0  0  0  0  0  0  0  0  0
    1.1656    2.0332   -1.0657 C   0  0  0  0  0  0  0  0  0  0  0  0
    2.6025    0.0973   -1.5706 C   0  0  0  0  0  0  0  0  0  0  0  0
    0.6704   -1.9446   -0.3272 N   0  0  0  0  0  0  0  0  0  0  0  0
    2.5034   -5.0454    0.4088 N   0  0  0  0  0  0  0  0  0  0  0  0
   -1.2419   -0.2756   -0.7649 N   0  0  0  0  0  0  0  0  0  0  0  0
    0.0955    0.2757    1.3897 N   0  0  0  0  0  0  0  0  0  0  0  0
    1.3930    0.5986   -0.9193 N   0  0  0  0  0  0  0  0  0  0  0  0
    0.3133   -0.3943   -0.1273 P   0  0  0  0  0  0  0  0  0  0  0  0
    2.7746   -1.9296    1.3868 S   0  0  0  0  0  0  0  0  0  0  0  0
    0.2136   -6.8914   -1.0733 H   0  0  0  0  0  0  0  0  0  0  0  0
   -0.3557   -4.2188   -0.9823 H   0  0  0  0  0  0  0  0  0  0  0  0
    2.6323   -7.1562    0.1510 H   0  0  0  0  0  0  0  0  0  0  0  0
    4.4130   -4.1589    0.5516 H   0  0  0  0  0  0  0  0  0  0  0  0
    3.6745   -4.5632    2.1008 H   0  0  0  0  0  0  0  0  0  0  0  0
    4.2944   -5.8681    1.0470 H   0  0  0  0  0  0  0  0  0  0  0  0
   -1.7897    1.4488    0.3143 H   0  0  0  0  0  0  0  0  0  0  0  0
   -3.0962    0.6825   -0.6053 H   0  0  0  0  0  0  0  0  0  0  0  0
   -1.8721    1.6469   -1.4563 H   0  0  0  0  0  0  0  0  0  0  0  0
   -0.9793   -1.9390   -2.0183 H   0  0  0  0  0  0  0  0  0  0  0  0
   -1.3001   -0.4167   -2.8938 H   0  0  0  0  0  0  0  0  0  0  0  0
   -2.6148   -1.2416   -2.0216 H   0  0  0  0  0  0  0  0  0  0  0  0
    1.9406    1.2995    1.3980 H   0  0  0  0  0  0  0  0  0  0  0  0
    1.6262    0.3598    2.8509 H   0  0  0  0  0  0  0  0  0  0  0  0
    0.7336    1.8895    2.5699 H   0  0  0  0  0  0  0  0  0  0  0  0
   -1.6213   -0.9063    1.7256 H   0  0  0  0  0  0  0  0  0  0  0  0
   -1.2869    0.3108    2.9745 H   0  0  0  0  0  0  0  0  0  0  0  0
   -0.3007   -1.1750    2.8889 H   0  0  0  0  0  0  0  0  0  0  0  0
    0.3325    2.3623   -0.4439 H   0  0  0  0  0  0  0  0  0  0  0  0
    0.9468    2.2954   -2.1101 H   0  0  0  0  0  0  0  0  0  0  0  0
    2.0560    2.5928   -0.7504 H   0  0  0  0  0  0  0  0  0  0  0  0
    2.6223   -0.9900   -1.5451 H   0  0  0  0  0  0  0  0  0  0  0  0
    3.5000    0.4699   -1.0619 H   0  0  0  0  0  0  0  0  0  0  0  0
    2.6201    0.4250   -2.6184 H   0  0  0  0  0  0  0  0  0  0  0  0
  1  2  1  0  0  0  0
  1  3  2  0  0  0  0
  1 20  1  0  0  0  0
  2  4  2  0  0  0  0
  2 21  1  0  0  0  0
  3 14  1  0  0  0  0
  3 22  1  0  0  0  0
  4  5  1  0  0  0  0
  4 14  1  0  0  0  0
  5 13  1  0  0  0  0
  5 19  2  0  0  0  0
  6 14  1  0  0  0  0
  6 23  1  0  0  0  0
  6 24  1  0  0  0  0
  6 25  1  0  0  0  0
  7 15  1  0  0  0  0
  7 26  1  0  0  0  0
  7 27  1  0  0  0  0
  7 28  1  0  0  0  0
  8 15  1  0  0  0  0
  8 29  1  0  0  0  0
  8 30  1  0  0  0  0
  8 31  1  0  0  0  0
  9 16  1  0  0  0  0
  9 32  1  0  0  0  0
  9 33  1  0  0  0  0
  9 34  1  0  0  0  0
 10 16  1  0  0  0  0
 10 35  1  0  0  0  0
 10 36  1  0  0  0  0
 10 37  1  0  0  0  0
 11 17  1  0  0  0  0
 11 38  1  0  0  0  0
 11 39  1  0  0  0  0
 11 40  1  0  0  0  0
 12 17  1  0  0  0  0
 12 41  1  0  0  0  0
 12 42  1  0  0  0  0
 12 43  1  0  0  0  0
 13 18  2  0  0  0  0
 15 18  1  0  0  0  0
 16 18  1  0  0  0  0
 17 18  1  0  0  0  0
M  END
$$$$
