
  -OEChem-05262117483D

 15 14  0     0  0  0  0  0  0999 V2000
    3.3886   -3.7477    4.3999 C   0  0  0  0  0  0  0  0  0  0  0  0
    3.7805   -4.2174    0.9194 C   0  0  0  0  0  0  0  0  0  0  0  0
    4.2745   -1.5999    3.4456 C   0  0  0  0  0  0  0  0  0  0  0  0
    2.9872   -0.9428    2.9427 C   0  0  0  0  0  0  0  0  0  0  0  0
    4.0485   -2.7517    4.2733 N   0  0  0  0  0  0  0  0  0  0  0  0
    2.6143   -5.1035    4.6941 S   0  0  0  0  0  0  0  0  0  0  0  0
    3.1170   -2.6007    0.3562 S   0  0  0  0  0  0  0  0  0  0  0  0
    1.8903   -2.0280    1.9492 S   0  0  0  0  0  0  0  0  0  0  0  0
    4.2723   -4.6599    0.0477 H   0  0  0  0  0  0  0  0  0  0  0  0
    2.9696   -4.8685    1.2476 H   0  0  0  0  0  0  0  0  0  0  0  0
    4.5081   -4.1019    1.7242 H   0  0  0  0  0  0  0  0  0  0  0  0
    4.8452   -0.8651    4.0222 H   0  0  0  0  0  0  0  0  0  0  0  0
    4.8965   -1.8908    2.5913 H   0  0  0  0  0  0  0  0  0  0  0  0
    2.3627   -0.6247    3.7841 H   0  0  0  0  0  0  0  0  0  0  0  0
    3.2533   -0.0597    2.3550 H   0  0  0  0  0  0  0  0  0  0  0  0
  1  5  2  0  0  0  0
  1  6  2  0  0  0  0
  2  7  1  0  0  0  0
  2  9  1  0  0  0  0
  2 10  1  0  0  0  0
  2 11  1  0  0  0  0
  3  4  1  0  0  0  0
  3  5  1  0  0  0  0
  3 12  1  0  0  0  0
  3 13  1  0  0  0  0
  4  8  1  0  0  0  0
  4 14  1  0  0  0  0
  4 15  1  0  0  0  0
  7  8  1  0  0  0  0
M  END
$$$$
