18
-1 1 C6ClH4N2O4S
C                     1.881343080410    -1.137861958425    -0.219339953243
C                     2.771951601574    -1.755799438501     1.974288273702
C                     0.787700016392    -0.538636200393     0.400340562481
C                     1.670662609501    -1.162331059728     2.580711275724
C                     2.864793658228    -1.739437522569     0.574778691667
C                     0.680795758003    -0.552219359166     1.797423676501
N                    -1.798234460656    -1.141799857097     2.781718164968
N                     4.018022832891    -2.356775989918    -0.068150203495
O                     4.087680143666    -2.330954745589    -1.308489355515
O                     4.882658966132    -2.883639299150     0.652241265756
O                    -1.229267119031     1.222341570496     1.705949939819
O                    -0.371262814515     0.466762462622     3.978976434047
S                    -0.799566185621     0.127472074792     2.603934582747
Cl                   -2.492184214715    -1.622472658178     1.175684926016
H                     1.990307907231    -1.141257767962    -1.297650986016
H                     3.556585909173    -2.225551911117     2.555861902385
H                     0.015940918419    -0.047195611469    -0.181952937713
H                     1.561933885676    -1.152416035669     3.660627641650
