
  -OEChem-05262117483D

 20 19  0     1  0  0  0  0  0999 V2000
   -1.3993   -1.6309   -0.1107 C   0  0  0  0  0  0  0  0  0  0  0  0
   -2.3581   -0.8270   -0.9582 C   0  0  0  0  0  0  0  0  0  0  0  0
    1.1481    0.5770   -1.8416 C   0  0  0  0  0  0  0  0  0  0  0  0
    1.5481    2.3826    2.4254 C   0  0  0  0  0  0  0  0  0  0  0  0
   -0.3031   -0.9344    0.4408 N   0  0  0  0  0  0  0  0  0  0  0  0
   -1.5212   -2.8239    0.1126 O   0  0  0  0  0  0  0  0  0  0  0  0
   -1.1465    1.5673    1.1475 O   0  0  0  0  0  0  0  0  0  0  0  0
    0.1398    1.1944   -1.0154 O   0  0  0  0  0  0  0  0  0  0  0  0
   -0.0787    0.7535    0.5223 P   0  0  2  0  0  0  0  0  0  0  0  0
    1.7890    0.8036    1.5101 S   0  0  0  0  0  0  0  0  0  0  0  0
   -1.8355   -0.3220   -1.7750 H   0  0  0  0  0  0  0  0  0  0  0  0
   -2.8344   -0.0502   -0.3520 H   0  0  0  0  0  0  0  0  0  0  0  0
   -3.1135   -1.5020   -1.3591 H   0  0  0  0  0  0  0  0  0  0  0  0
    1.0133    0.9916   -2.8407 H   0  0  0  0  0  0  0  0  0  0  0  0
    1.0172   -0.5089   -1.8653 H   0  0  0  0  0  0  0  0  0  0  0  0
    2.1458    0.8232   -1.4673 H   0  0  0  0  0  0  0  0  0  0  0  0
    2.3581    2.4288    3.1554 H   0  0  0  0  0  0  0  0  0  0  0  0
    0.5822    2.3766    2.9292 H   0  0  0  0  0  0  0  0  0  0  0  0
    1.6122    3.2326    1.7459 H   0  0  0  0  0  0  0  0  0  0  0  0
    0.2074   -1.5010    1.1153 H   0  0  0  0  0  0  0  0  0  0  0  0
  1  2  1  0  0  0  0
  1  5  1  0  0  0  0
  1  6  2  0  0  0  0
  2 11  1  0  0  0  0
  2 12  1  0  0  0  0
  2 13  1  0  0  0  0
  3  8  1  0  0  0  0
  3 14  1  0  0  0  0
  3 15  1  0  0  0  0
  3 16  1  0  0  0  0
  4 10  1  0  0  0  0
  4 17  1  0  0  0  0
  4 18  1  0  0  0  0
  4 19  1  0  0  0  0
  5  9  1  0  0  0  0
  5 20  1  0  0  0  0
  7  9  2  0  0  0  0
  8  9  1  0  0  0  0
  9 10  1  0  0  0  0
M  END
$$$$
