10   
torsion grid (-165,)
C        2.2050250215   -1.2877296531   -0.1543970802
C        3.5539001177   -0.6117520406    0.0293750786
O        1.1604102628   -0.3339889178   -0.3204882462
O        3.4502342099    0.1885641929    1.2190648923
H        2.2191375885   -1.9057040106   -1.0566700463
H        2.0068700780   -1.9410547117    0.7083962411
H        3.7710543404    0.0185302167   -0.8435119907
H        4.3460122279   -1.3675027919    0.1323670191
H        1.2513608461    0.2940933896    0.4160266688
H        4.1911001252    0.8119489565    1.2439114095
10   
torsion grid (-150,)
C        2.2055798412   -1.2808685451   -0.1600856768
C        3.5663661604   -0.6336721078    0.0446461447
O        1.1811663056   -0.3028171926   -0.3057923918
O        3.4797666173    0.1518786053    1.2475200845
H        2.2111486657   -1.8784853461   -1.0761774850
H        1.9910878007   -1.9509226116    0.6859667722
H        3.7996064799    0.0037718997   -0.8177849497
H        4.3463499806   -1.4019242167    0.1417745874
H        1.2761762696    0.2943844691    0.4557021067
H        4.0817974803    0.9062417584    1.1745521890
10   
torsion grid (-135,)
C        2.2092924348   -1.2740802603   -0.1650559474
C        3.5824855350   -0.6558956946    0.0540192305
O        1.2035934698   -0.2738273098   -0.2908374060
O        3.5243468133    0.1229458012    1.2648491488
H        2.2033374077   -1.8534380714   -1.0930077595
H        1.9804675077   -1.9568942989    0.6668337030
H        3.8371046260   -0.0201847904   -0.8026029233
H        4.3456965136   -1.4394304320    0.1517457164
H        1.2902944679    0.2855228739    0.4997700997
H        3.9536674662    0.9758293728    1.1110460684
10   
torsion grid (-120,)
C        2.2158602069   -1.2626408923   -0.1682214470
C        3.6029372539   -0.6757005874    0.0557920649
O        1.2279987668   -0.2408153277   -0.2751523597
O        3.5876335921    0.1026512053    1.2684974559
H        2.1937472296   -1.8262492885   -1.1057960347
H        1.9747657869   -1.9536614273    0.6529603227
H        3.8828393654   -0.0521709287   -0.8013381248
H        4.3440732610   -1.4778576591    0.1602943623
H        1.2858964195    0.2698087198    0.5498057988
H        3.8212307867    1.0163613197    1.0556932641
10   
torsion grid (-105,)
C        2.2244709388   -1.2456894274   -0.1703906504
C        3.6249295261   -0.6886135654    0.0548509050
O        1.2534859308   -0.2040639210   -0.2664181377
O        3.6538784588    0.0969681584    1.2606223144
H        2.1876624450   -1.7981213186   -1.1143186132
H        1.9702640815   -1.9398209541    0.6435515732
H        3.9315996140   -0.0855333322   -0.8080196436
H        4.3416587447   -1.5091650641    0.1743802236
H        1.2576155433    0.2487826921    0.5927356911
H        3.6778058364    1.0324380803    1.0160325392
10   
torsion grid (-90,)
C        2.2364927570   -1.2242651240   -0.1685202126
C        3.6511852701   -0.6987568776    0.0495933765
O        1.2859107209   -0.1598628105   -0.2622355573
O        3.7249637873    0.1001188307    1.2405444285
H        2.1828974931   -1.7736343267   -1.1135983023
H        1.9680306780   -1.9128099692    0.6446509219
H        3.9774514230   -0.1212962833   -0.8245438173
H        4.3436677579   -1.5363773761    0.1850705441
H        1.2000454492    0.2173253298    0.6274991827
H        3.5366212080    1.0175552036    0.9947109632
10   
torsion grid (-75,)
C        2.3089650818   -1.1882631283   -0.0186898431
C        3.6988424071   -0.5794228708   -0.0798886312
O        1.3755513474   -0.0999272017    0.0522229509
O        4.0479901560    0.0743274696    1.1389267713
H        2.1299157592   -1.8012671857   -0.9153517316
H        2.2353045587   -1.8280948259    0.8708632371
H        3.7621457796    0.1068423079   -0.9358128965
H        4.4359734546   -1.3747172086   -0.2265365640
H        0.5038971162   -0.4502823880    0.2882055698
H        3.5564834476    0.9098335307    1.1656776814
10   
torsion grid (-60,)
C        2.3222423861   -1.1801113111   -0.0189823020
C        3.7180229945   -0.5848740044   -0.0928721754
O        1.4098262781   -0.0747176773    0.0822980154
O        4.0527622737    0.1225750141    1.0978179906
H        2.1181736443   -1.7766430019   -0.9205765308
H        2.2481330423   -1.8287253242    0.8641991893
H        3.7893261444    0.0675431223   -0.9754249438
H        4.4553229677   -1.3857656243   -0.1987023540
H        0.5358582530   -0.4108127876    0.3301262502
H        3.3945304214    0.8309831026    1.1897905288
10   
torsion grid (-45,)
C        2.3350636583   -1.1691106448   -0.0202384249
C        3.7379167715   -0.5903855111   -0.1092896877
O        1.4412708919   -0.0507109871    0.1085193270
O        4.0601947811    0.1812995129    1.0434940530
H        2.1090013638   -1.7522979083   -0.9244678944
H        2.2599566306   -1.8254459505    0.8575291207
H        3.8178869475    0.0199717299   -1.0213776819
H        4.4709886437   -1.3997897358   -0.1719796578
H        0.5649089690   -0.3764200368    0.3618319772
H        3.2822841058    0.7378599285    1.2192745210
10   
torsion grid (-30,)
C        2.3413231212   -1.1599267910   -0.0248442402
C        3.7468816540   -0.5875205216   -0.1276538208
O        1.4499513924   -0.0423502685    0.1210376660
O        4.0594770430    0.2534599841    0.9788283359
H        2.1069938575   -1.7391316373   -0.9289426650
H        2.2690663380   -1.8214331651    0.8500935148
H        3.8333573134   -0.0220371676   -1.0674662334
H        4.4768749233   -1.4029337708   -0.1490643418
H        0.5698700716   -0.3727014644    0.3551659638
H        3.2182115407    0.6461760711    1.2680937705
10   
torsion grid (-15,)
C        2.3431197935   -1.1457697085   -0.0200869013
C        3.7486911972   -0.5761405223   -0.1406191696
O        1.4439861314   -0.0365706965    0.1246978882
O        4.0641632494    0.3254813217    0.9179490720
H        2.1094035916   -1.7364626896   -0.9168895175
H        2.2780492889   -1.8033563507    0.8595754908
H        3.8385226154   -0.0488561017   -1.1008656687
H        4.4734585274   -1.3983682783   -0.1317621536
H        0.5592540636   -0.3784673815    0.3225701860
H        3.2276078215    0.5600742155    1.3517166377
10   
torsion grid (0,)
C        2.3366369810   -1.1299815701   -0.0089517918
C        3.7392584652   -0.5614164136   -0.1528092145
O        1.4202766707   -0.0334913834    0.0899067506
O        4.0775395832    0.3717164055    0.8723354550
H        2.1166268906   -1.7627535283   -0.8808574075
H        2.2781563914   -1.7577783105    0.8943384009
H        3.8214146068   -0.0489782805   -1.1198936996
H        4.4569282226   -1.3922768686   -0.1430548468
H        0.5305873358   -0.3886761823    0.2360322957
H        3.3178690633    0.4533911028    1.4689990707
10   
torsion grid (15,)
C        2.2970567626   -1.2639640190   -0.0406910782
C        3.6146675163   -0.5211521281   -0.1838702259
O        1.1538074579   -0.4135684276   -0.1615822724
O        3.8743708777    0.3749122619    0.9107929241
H        2.2073584230   -2.0128603665   -0.8329963502
H        2.2807452687   -1.7978247290    0.9248925137
H        3.6134696956    0.0773253547   -1.1006599024
H        4.4318035793   -1.2530046852   -0.2469296163
H        1.3564502296    0.4328348779    0.2684186340
H        3.2774093305    0.1627302185    1.6449218559
10   
torsion grid (30,)
C        2.2994021156   -1.2659763852   -0.0433943959
C        3.6159726880   -0.5178351206   -0.1743898233
O        1.1640053613   -0.4080565117   -0.1589064776
O        3.8117998754    0.4268696860    0.8911032284
H        2.2132716820   -2.0109081540   -0.8402853841
H        2.2793277764   -1.8062339072    0.9192893862
H        3.6386045409    0.0575969702   -1.1041472167
H        4.4440398864   -1.2412714786   -0.1900563314
H        1.3863828647    0.4334198541    0.2726903806
H        3.3623348912    0.0956206701    1.6851806633
10   
torsion grid (45,)
C        2.2908907279   -1.2671894498   -0.0525809085
C        3.6070205491   -0.5125076732   -0.1656310570
O        1.1631312309   -0.4045364331   -0.1778467921
O        3.7408284524    0.4745016644    0.8697383947
H        2.2143112890   -2.0104067116   -0.8523607929
H        2.2601814148   -1.8097612045    0.9088992320
H        3.6521346743    0.0399155499   -1.1075514941
H        4.4466706881   -1.2223395866   -0.1339154503
H        1.3840811289    0.4207593867    0.2861152294
H        3.4726451118    0.0693623044    1.7109199649
10   
torsion grid (60,)
C        2.2778314491   -1.2708198503   -0.0655013680
C        3.5945694174   -0.5104979032   -0.1522814575
O        1.1582737064   -0.4024016174   -0.2040169790
O        3.6718157837    0.5071829331    0.8591393091
H        2.2141270565   -2.0080812572   -0.8721678163
H        2.2303945661   -1.8188731204    0.8919503138
H        3.6621435398    0.0229395991   -1.1034854707
H        4.4433118277   -1.2056222569   -0.0781050148
H        1.3688368782    0.4021030139    0.3006654340
H        3.6055141180    0.0751931976    1.7265913478
10   
torsion grid (75,)
C        2.2637669879   -1.2747291235   -0.0782620341
C        3.5820421803   -0.5116031274   -0.1334567358
O        1.1525888878   -0.3994673773   -0.2304806421
O        3.6110328735    0.5240501693    0.8639182842
H        2.2140102272   -2.0023051041   -0.8948441024
H        2.1960942351   -1.8311918133    0.8724580911
H        3.6726245936    0.0075527919   -1.0909260989
H        4.4349601870   -1.1955967549   -0.0238091445
H        1.3442762143    0.3802945335    0.3191177161
H        3.7536420274    0.1090002333    1.7294197097
10   
torsion grid (90,)
C        2.2501082228   -1.2776947580   -0.0920860503
C        3.5690831418   -0.5131680821   -0.1131224059
O        1.1452112661   -0.3972813957   -0.2580614171
O        3.5548916818    0.5267728006    0.8828796645
H        2.2153697028   -1.9941664971   -0.9192647339
H        2.1620178702   -1.8429781752    0.8508059370
H        3.6848119811   -0.0027549858   -1.0733064601
H        4.4206585399   -1.1920106972    0.0261076818
H        1.3091377215    0.3551700477    0.3367435223
H        3.9006173992    0.1660334001    1.7130206654
10   
torsion grid (105,)
C        2.2387176754   -1.2804154425   -0.1062547061
C        3.5584531394   -0.5181275466   -0.0921208582
O        1.1386873357   -0.3954134395   -0.2835067136
O        3.5068121148    0.5099709127    0.9173412961
H        2.2182788833   -1.9845668703   -0.9443789858
H        2.1316556923   -1.8554212684    0.8277576037
H        3.7012045314   -0.0083998305   -1.0501336276
H        4.4023686401   -1.2006053379    0.0690926895
H        1.2707539385    0.3291134026    0.3521396803
H        4.0372320362    0.2342537363    1.6780577167
10   
torsion grid (120,)
C        2.2304329749   -1.2827343946   -0.1206089113
C        3.5511335754   -0.5259323203   -0.0742970302
O        1.1332433320   -0.3943051307   -0.3043951733
O        3.4698960655    0.4756565525    0.9601885097
H        2.2222167752   -1.9740961921   -0.9693524887
H        2.1085099253   -1.8679913639    0.8042254091
H        3.7204351181   -0.0097154845   -1.0258980435
H        4.3824246103   -1.2203473722    0.1002819942
H        1.2374498653    0.3072629225    0.3609885055
H        4.1564166720    0.3126605579    1.6208611547
10   
torsion grid (135,)
C        2.2226277198   -1.2829972402   -0.1305532980
C        3.5449677629   -0.5342391056   -0.0519586604
O        1.1287041621   -0.3904592472   -0.3188608156
O        3.4401761195    0.4301501412    1.0138518852
H        2.2258815669   -1.9607173227   -0.9899519507
H        2.0869004111   -1.8802864637    0.7838646642
H        3.7369889894   -0.0034586384   -0.9925673588
H        4.3634154377   -1.2435248225    0.1266555838
H        1.2090997128    0.2909517001    0.3698508080
H        4.2419902259    0.4044318381    1.5531511892
10   
torsion grid (150,)
C        2.2160800095   -1.2840172535   -0.1377254103
C        3.5414178700   -0.5466049154   -0.0291353413
O        1.1278612990   -0.3842620457   -0.3282198150
O        3.4234380828    0.3716780861    1.0727089981
H        2.2290404094   -1.9479065537   -1.0073934080
H        2.0662218834   -1.8942952602    0.7653315048
H        3.7468257952    0.0070865159   -0.9548933092
H        4.3501709890   -1.2705693837    0.1396516413
H        1.1958179774    0.2840308603    0.3741968587
H        4.2925115136    0.5020813169    1.4769845665
10   
torsion grid (165,)
C        2.2084750980   -1.2833653425   -0.1435071493
C        3.5384953446   -0.5611803261   -0.0059287451
O        1.1304399305   -0.3722009341   -0.3386337383
O        3.4190835703    0.3055999845    1.1344160831
H        2.2296719278   -1.9368634510   -1.0204949638
H        2.0412164902   -1.9037121614    0.7494111946
H        3.7461209833    0.0253371634   -0.9115316280
H        4.3426853669   -1.2971578145    0.1361395322
H        1.1927330066    0.2858035447    0.3738056988
H        4.3008231873    0.6033002635    1.4014109426
10   
torsion grid (180,)
C        2.2052250694   -1.2853921794   -0.1497583948
C        3.5433132865   -0.5840496595    0.0133621061
O        1.1420042787   -0.3552856497   -0.3342040834
O        3.4272155162    0.2440199826    1.1817661874
H        2.2260412091   -1.9221703887   -1.0387576733
H        2.0224871352   -1.9219405991    0.7287000942
H        3.7550297674    0.0278597094   -0.8743721740
H        4.3423718839   -1.3299789920    0.1343214585
H        1.2164592434    0.2910913044    0.3878465849
H        4.2642028527    0.7111785817    1.3216634267
