20   
torsion grid (-165,)
C       -1.1237717787   -1.7282163114    0.7495426795
C       -1.5709644866   -1.4136736069    2.1574341877
C       -0.2983382980    3.0520431714   -0.9909598035
C        2.3477822861   -0.3727114881    1.7724397316
N       -0.4719731865   -0.7155494637    0.0209479440
O       -1.2959867591   -2.8132073021    0.2151795793
O       -0.6487807718    1.3697685829    1.6813752806
O       -0.3434763127    1.6015559436   -0.9484161100
P       -0.0152830194    0.8584715880    0.4428251849
S        2.0984114920    0.8718665626    0.4442232518
H       -2.2391954535   -0.5505141578    2.1727993935
H       -0.7179272206   -1.1538798928    2.7900081724
H       -2.0719085818   -2.2967165519    2.5533396582
H       -0.7357178762    3.3348421133   -1.9479037282
H        0.7369155835    3.3999851666   -0.9372528346
H       -0.8816776604    3.4707545016   -0.1681970348
H        3.4263327323   -0.4518785941    1.9201184673
H        1.9544613623   -1.3431679424    1.4643768895
H        1.8795550259   -0.0429156720    2.7013551354
H       -0.2009136827   -1.0310094502   -0.9093170164
20   
torsion grid (-150,)
C       -1.0507160899   -1.7096116317    0.7966915775
C       -1.5385496417   -1.4182218106    2.1958741445
C       -0.2509576739    3.0685937668   -1.0326067267
C        2.2952085488   -0.4502279270    1.7260238306
N       -0.4492353604   -0.6597909280    0.0780890047
O       -1.1496850235   -2.8032459620    0.2615767977
O       -0.8589944348    1.4510462478    1.6748397337
O       -0.3444983988    1.6254812990   -0.9243850322
P       -0.0971877506    0.9371558691    0.5125314802
S        2.0156327614    1.0469646367    0.6999454653
H       -2.2545510988   -0.5941015919    2.1964402022
H       -0.7121551092   -1.1092230989    2.8420050131
H       -1.9941236765   -2.3271490310    2.5878577401
H       -0.6529364663    3.3209577390   -2.0133397496
H        0.7941578942    3.3853025563   -0.9686611783
H       -0.8419941897    3.5461658057   -0.2479459948
H        3.3747430597   -0.5112362090    1.8767323048
H        1.9521064170   -1.3449905047    1.2051286163
H        1.8055124040   -0.3574449217    2.6970131119
H       -0.1558569407   -0.9502693770   -0.8534937174
20   
torsion grid (-135,)
C       -1.0015591312   -1.7179941690    0.8497089138
C       -1.5142243996   -1.4348038221    2.2419258011
C       -0.2327252872    3.0481780836   -1.0739571841
C        2.2654982230   -0.4732877509    1.6282267392
N       -0.4694507973   -0.6408084840    0.1180187737
O       -1.0296129822   -2.8230386182    0.3302522925
O       -1.0925344486    1.4949514936    1.6250598073
O       -0.3712162444    1.6146085083   -0.9206388480
P       -0.2143050570    0.9736854616    0.5520918871
S        1.8722106311    1.1857186204    0.9450602541
H       -2.2941103515   -0.6708300534    2.2197297275
H       -0.7193128621   -1.0446749920    2.8839060986
H       -1.8978017644   -2.3671090255    2.6553699335
H       -0.5643836200    3.2743602181   -2.0868615183
H        0.8152880761    3.3398535603   -0.9551530459
H       -0.8597846385    3.5703641203   -0.3475400396
H        3.3399050390   -0.4587245334    1.8228314258
H        2.0378360596   -1.2606186095    0.9095823358
H        1.7401329230   -0.6501898219    2.5680389217
H       -0.1673321500   -0.9142751813   -0.8157173581
20   
torsion grid (-120,)
C       -0.9898072791   -1.7478898606    0.8731933359
C       -1.4878593168   -1.4547564947    2.2693680448
C       -0.1814932154    3.0027327829   -1.0978293858
C        2.2389138252   -0.5250819446    1.5211621265
N       -0.5083034280   -0.6637829262    0.1181337417
O       -0.9938369844   -2.8609346464    0.3714361581
O       -1.2866560705    1.5088963454    1.5152120457
O       -0.3259741152    1.5714290218   -0.9396473009
P       -0.3050527180    0.9563837658    0.5530423999
S        1.7175655840    1.2066851158    1.1972937901
H       -2.3227650571   -0.7509875865    2.2371327059
H       -0.7130149258   -0.9839352798    2.8814119418
H       -1.7957731331   -2.3961339410    2.7234216833
H       -0.3748725576    3.2087162302   -2.1501370901
H        0.8381928423    3.3080322316   -0.8431048754
H       -0.9062288997    3.5281046475   -0.4715181944
H        3.2952283835   -0.4592064254    1.7910300166
H        2.1323242091   -1.1506996882    0.6350861497
H        1.6881158525   -0.9567902967    2.3575046995
H       -0.2184709887   -0.9292281825   -0.8214948638
20   
torsion grid (-105,)
C       -0.9283954295   -1.7937995513    0.9607143221
C       -1.3848154959   -1.4720894893    2.3653677741
C       -0.1089523882    2.9184993269   -1.0985584024
C        2.2912571086   -0.4952622408    1.4683958301
N       -0.4841900411   -0.7183537511    0.1728814425
O       -0.9352361222   -2.9172104528    0.4833550688
O       -1.3990273000    1.5006203697    1.4285935491
O       -0.2156548602    1.4865176009   -0.9198433502
P       -0.3320991485    0.9127069985    0.5855365857
S        1.5894663596    1.2032222060    1.4652335219
H       -2.2582458813   -0.8156719476    2.3377052457
H       -0.6142700686   -0.9365457811    2.9284635965
H       -1.6268796642   -2.4082555661    2.8675026887
H       -0.1667536349    3.0908063163   -2.1728855614
H        0.8534927587    3.2731205152   -0.7170760660
H       -0.9321331504    3.4244786960   -0.5890992914
H        3.3027076757   -0.3867429818    1.8665877968
H        2.3461243942   -0.9147629029    0.4634444403
H        1.7237731732   -1.1579953363    2.1217292246
H       -0.2170721463   -0.9882375530   -0.7718870077
20   
torsion grid (-90,)
C       -0.9929684672   -1.7954979349    0.9952496133
C       -1.4236542722   -1.4593324324    2.4044214503
C       -0.0381359143    2.8894400042   -1.0693951797
C        2.2973083340   -0.4197561626    1.3671312334
N       -0.5416043544   -0.7272183333    0.2014070274
O       -1.0195427303   -2.9202178886    0.5219941405
O       -1.5074969187    1.5340252990    1.3564809385
O       -0.1346517935    1.4568719425   -0.8838512974
P       -0.3917600381    0.9041496717    0.6122898020
S        1.4243297547    1.1666633136    1.6812748676
H       -2.2734116933   -0.7718844082    2.3873680817
H       -0.6242719580   -0.9537490659    2.9559695800
H       -1.6924844771   -2.3859392094    2.9105608648
H        0.0360215144    3.0465646665   -2.1450433452
H        0.8595209755    3.2715736160   -0.5741256709
H       -0.9299215690    3.3801109264   -0.6736043340
H        3.2664585547   -0.3227654020    1.8617044961
H        2.4575787155   -0.5900865215    0.3013938936
H        1.7569229598   -1.2596922301    1.8035382534
H       -0.2892311952   -0.9981375175   -0.7469421557
20   
torsion grid (-75,)
C       -1.0087684079   -1.8723787955    1.0472550123
C       -1.4524868745   -1.5115929267    2.4456507004
C        0.0567864811    2.7518171631   -1.0887237248
C        2.3978175716   -0.3050060332    1.2278933413
N       -0.5296170775   -0.8208829666    0.2463742335
O       -1.0426820044   -3.0026635224    0.5877329065
O       -1.5351700256    1.4787149385    1.2898489699
O       -0.0192489090    1.3228230607   -0.8622718432
P       -0.3851634409    0.8185901340    0.6290107661
S        1.3467939242    1.0856511000    1.8104661935
H       -2.2697061887   -0.7862756118    2.4119765998
H       -0.6367258296   -1.0432384234    3.0062427356
H       -1.7710374156   -2.4228423203    2.9508290015
H        0.2385420139    2.8751569169   -2.1559255429
H        0.8855775353    3.1785908761   -0.5162648521
H       -0.8846254631    3.2262117274   -0.8041529087
H        3.3378532696   -0.2210417080    1.7774799442
H        2.6024712772   -0.2285879380    0.1583303850
H        1.9329428617   -1.2650418418    1.4533975813
H       -0.2665980517   -1.1085814769   -0.6940103870
20   
torsion grid (-60,)
C       -1.0750217697   -1.9279436783    1.0994847712
C       -1.5326635568   -1.5558105189    2.4901426650
C        0.1549353861    2.6366462824   -1.0632429847
C        2.4732535835   -0.1482873605    1.0800324382
N       -0.5588424598   -0.8888771005    0.3058920558
O       -1.1270057468   -3.0579294368    0.6402654551
O       -1.5520554733    1.4424318762    1.2879521214
O        0.0581992116    1.2135661474   -0.8047454771
P       -0.3917540648    0.7527955242    0.6786694325
S        1.2957184288    0.9859132622    1.9195877425
H       -2.3182787036   -0.7969106515    2.4455789772
H       -0.7063780675   -1.1278670548    3.0672071941
H       -1.8985396055   -2.4554155807    2.9840240896
H        0.4153930211    2.7312233784   -2.1169856167
H        0.9387205814    3.0793522749   -0.4416961290
H       -0.8036288481    3.1189775398   -0.8615029810
H        3.4095789303   -0.0862046363    1.6383634368
H        2.6476950125    0.1635115070    0.0486731188
H        2.1048088047   -1.1748580189    1.1057975450
H       -0.2954607749   -1.1835608588   -0.6320678767
20   
torsion grid (-45,)
C       -1.2878167365   -1.9275842472    1.0704566292
C       -1.7098899764   -1.5645817840    2.4748149401
C        0.2566709214    2.5689265835   -1.0127347186
C        2.4801375100    0.0099632182    0.9700606022
N       -0.6921393360   -0.9089314283    0.3084318823
O       -1.4288666276   -3.0359229039    0.5779315711
O       -1.5910317990    1.4583660650    1.2902628436
O        0.0878712728    1.1522451360   -0.7539461120
P       -0.4472845408    0.7184263799    0.7100355197
S        1.2079038234    0.8346874870    2.0080253940
H       -2.4149727800   -0.7291864926    2.4630929462
H       -0.8425677010   -1.2491758665    3.0641092717
H       -2.1654526145   -2.4409687662    2.9347412933
H        0.5865057294    2.6460586383   -2.0483060053
H        1.0148113209    2.9882560420   -0.3446239945
H       -0.6928736196    3.0898102656   -0.8740016280
H        3.4044529393    0.0208746951    1.5512029702
H        2.6308948090    0.5522218717    0.0359315432
H        2.1992376906   -1.0244105846    0.7618056326
H       -0.4592279761   -1.1924280408   -0.6408827259
20   
torsion grid (-30,)
C       -1.3471825557   -1.9608264981    1.1217170015
C       -1.7218437255   -1.5940562610    2.5387436906
C        0.3199752563    2.4601791380   -0.9989086947
C        2.6059643147    0.2115887742    0.9123920299
N       -0.7300036751   -0.9606609803    0.3550172516
O       -1.5468958300   -3.0581888633    0.6243615303
O       -1.5130462337    1.4415328760    1.3373749594
O        0.1685444639    1.0485348254   -0.7012380270
P       -0.4000990506    0.6528522489    0.7618389147
S        1.2567192936    0.6767143955    2.0701511586
H       -2.3812055712   -0.7220492983    2.5523215783
H       -0.8263734527   -1.3369817408    3.1142562014
H       -2.2152538153   -2.4504489685    2.9973216555
H        0.7213348436    2.5101904567   -2.0106468541
H        1.0163357309    2.9272600642   -0.2959780891
H       -0.6498218736    2.9586668678   -0.9457189526
H        3.5091812370    0.1294662231    1.5206020046
H        2.7478076544    0.9782907080    0.1511336678
H        2.4049621284   -0.7520754347    0.4401735541
H       -0.5324011275   -1.2444422197   -0.6020547696
20   
torsion grid (-15,)
C        0.2151972605   -1.6148357182    0.9057571506
C       -0.0762292163   -3.1010664933    0.9966372981
C        0.3953982472    0.9244213321   -1.8285688173
C        1.3760998360    1.9926531197    2.1559460543
N       -0.8486301034   -0.8375296787    0.4675440504
O        1.2966697017   -1.1251720755    1.2043549639
O       -2.2941435521    1.2308938985   -0.0251491788
O        0.3326955649    1.3308870508   -0.4420455495
P       -0.9301443733    0.8835604008    0.4443516624
S       -0.4188839650    1.6251688834    2.3334847952
H       -0.6203014117   -3.4648026646    0.1195168464
H       -0.6916354196   -3.2970784753    1.8816087200
H        0.8649258631   -3.6415583724    1.0967783676
H        1.2887372888    1.3959277465   -2.2375198469
H       -0.4923804826    1.2676772567   -2.3652346544
H        0.4857195692   -0.1631541876   -1.8961110343
H        1.6960686448    2.3141624760    3.1498298799
H        1.5262996198    2.7972995967    1.4375915882
H        1.9132218050    1.0940674625    1.8570549797
H       -1.7430563445   -1.2910518541    0.3048546029
20   
torsion grid (0,)
C        0.1857043363   -1.6856740392    0.8741659353
C       -0.1395158728   -3.1643465055    0.9708668032
C        0.4264821064    0.9109676707   -1.7858573473
C        1.3354779506    2.1532826045    2.1383539986
N       -0.8770413040   -0.8802670332    0.4744523399
O        1.2859176666   -1.2203317369    1.1359910373
O       -2.2395841011    1.2591699540    0.0108506323
O        0.3892741839    1.2568263142   -0.3818218642
P       -0.8973692669    0.8388597959    0.4837561728
S       -0.3405113497    1.4497952249    2.4136002659
H       -0.7248121676   -3.5107928968    0.1133857886
H       -0.7266475092   -3.3480969493    1.8774562429
H        0.7905369843   -3.7291556291    1.0342102975
H        1.3426478725    1.3525591312   -2.1773087842
H       -0.4435329639    1.3232555876   -2.3024904640
H        0.4599974698   -0.1758114539   -1.9011482497
H        1.6697788876    2.4764421047    3.1268650765
H        1.2897905509    3.0082976161    1.4653480891
H        2.0011619702    1.3844735221    1.7477771590
H       -1.7834741436   -1.3115252041    0.3193102495
20   
torsion grid (15,)
C        0.1883190458   -1.8261684372    0.8307962918
C       -0.2390254338   -3.2798444754    0.9196915700
C        0.4965576207    0.8727520062   -1.7443000043
C        1.3500756496    2.3374468967    2.1415838336
N       -0.8461261384   -0.9361073819    0.5395596781
O        1.3360445661   -1.4498625779    1.0086444488
O       -2.0856347994    1.2809425070    0.1049103357
O        0.5209345812    1.1569540401   -0.3259078567
P       -0.7650752996    0.7762232491    0.5576164427
S       -0.1274403275    1.3013334978    2.4898938213
H       -0.9068633647   -3.5598267779    0.0988722405
H       -0.7736908763   -3.4454294407    1.8615076370
H        0.6487790629   -3.9118767566    0.9030921484
H        1.4152108460    1.2968302806   -2.1490876920
H       -0.3744667518    1.3386538713   -2.2112062908
H        0.4854241899   -0.2085667989   -1.9061823569
H        1.6998845468    2.6670838748    3.1223648948
H        1.0875694308    3.2049566441    1.5366009675
H        2.1174121296    1.7414599527    1.6495747499
H       -1.7822655389   -1.3074690864    0.4081591677
20   
torsion grid (30,)
C        0.2191112047   -1.9547055747    0.7920374109
C       -0.3067197000   -3.3761963693    0.8806106210
C        0.6036857295    0.8400923023   -1.7489974928
C        1.3072685015    2.5113545409    2.1307595604
N       -0.7726669354   -0.9902881388    0.5855738898
O        1.3979908585   -1.6629942588    0.8985065618
O       -1.8895247427    1.2896640285    0.1300341367
O        0.6900258440    1.0447041867   -0.3192624281
P       -0.5979839104    0.7098752536    0.5803646639
S        0.0960004251    1.1799609192    2.5040905678
H       -1.0110983331   -3.5987580211    0.0726267219
H       -0.8308124289   -3.5150347827    1.8324840787
H        0.5340843848   -4.0680757427    0.8347444840
H        1.5221850453    1.2528155539   -2.1658593994
H       -0.2665342918    1.3598581656   -2.1566358157
H        0.5474532935   -0.2300733910   -1.9669394784
H        1.6800306575    2.8390899674    3.1034389275
H        0.8279533532    3.3501297990    1.6249251404
H        2.1243208839    2.1150169609    1.5297251049
H       -1.7328296240   -1.3034422375    0.4771815113
20   
torsion grid (45,)
C        0.2092344642   -2.0315875713    0.7481450903
C       -0.3970074698   -3.4199977519    0.8504865618
C        0.6358044249    0.8042397019   -1.7532897197
C        1.2071907925    2.6548930935    2.1464113124
N       -0.7367515599   -1.0051795575    0.6331048127
O        1.4078603431   -1.8154071167    0.7714351201
O       -1.7426720160    1.3443830496    0.2254867843
O        0.7935919732    0.9626954359   -0.3236081738
P       -0.4733091239    0.6814192693    0.6233285870
S        0.3178404556    1.0889460085    2.5185062186
H       -1.1836510519   -3.5763312376    0.1054551737
H       -0.8410387394   -3.5531148998    1.8430358637
H        0.3906324035   -4.1606673023    0.7133690609
H        1.5625009951    1.1664215437   -2.1980796572
H       -0.2137864621    1.3907510727   -2.1108658260
H        0.4998011412   -0.2534575154   -1.9957717039
H        1.6284494933    2.9857723698    3.0976764637
H        0.5207888559    3.4152207424    1.7708079650
H        2.0062419363    2.4684982849    1.4296310482
H       -1.7188210174   -1.2617307384    0.5918463972
20   
torsion grid (60,)
C       -0.1346302846   -2.0451810214    0.4100005513
C       -0.7331525011   -3.4196045688    0.6397716059
C        1.2716005922    0.7847448462   -1.2951252642
C        1.1245710874    2.7788806312    1.7291979944
N       -0.9814493741   -0.9877506974    0.7238655330
O        0.9998172262   -1.8637133961   -0.0086412925
O       -1.9460257728    1.4152581909    0.8802340539
O       -0.0620127408    1.0533078214   -0.7988185563
P       -0.6760892830    0.6932502723    0.6346957735
S        0.8482791053    0.9896165831    2.0596289262
H       -1.6802477767   -3.5302248805    0.1018125894
H       -0.9317622271   -3.5711436970    1.7060688262
H       -0.0275707633   -4.1747971992    0.2947688359
H        1.5538347136    1.6610101338   -1.8816650313
H        1.2415318107   -0.1074511557   -1.9196212933
H        1.9728001715    0.6226254051   -0.4753161971
H        1.8388468440    3.1187065245    2.4813192992
H        0.1916853736    3.3344494683    1.8340636423
H        1.5461698504    2.9332139987    0.7347318674
H       -1.9177720204   -1.1997765247    1.0577056321
20   
torsion grid (75,)
C       -0.1344288756   -2.0727606991    0.4527317134
C       -0.7742728316   -3.4235637441    0.7077695726
C        1.3189990158    0.6921640918   -1.3780859852
C        1.0753965791    2.7724840581    1.9264756765
N       -0.9407510168   -0.9830298431    0.7537570279
O        1.0019977480   -1.9327785512    0.0210640801
O       -1.7662990150    1.4746896611    0.9281767924
O       -0.0000396434    0.9604305258   -0.8454641638
P       -0.5526610677    0.6790191305    0.6291111818
S        1.0447311553    0.9323274431    1.9826131799
H       -1.7120032035   -3.5213218526    0.1512086672
H       -1.0006276880   -3.5417449345    1.7727194823
H       -0.0830825546   -4.2066013122    0.3974885437
H        1.5186720847    1.4940042070   -2.0907489282
H        1.3141534824   -0.2787501816   -1.8715564557
H        2.0665513278    0.6886757194   -0.5827426652
H        1.7841187961    3.0863747006    2.6950113175
H        0.0857441133    3.1726873190    2.1489215341
H        1.4162516902    3.1281941057    0.9524510743
H       -1.8642999542   -1.1507476045    1.1432329199
20   
torsion grid (90,)
C       -1.1316033017   -1.9349232904    1.0118080518
C       -1.4504334525   -1.5640664431    2.4403613962
C        1.1284536907    1.0241883695   -1.6588710766
C        1.0121591624    2.5560190138    2.3685413540
N       -0.6012511327   -0.9175394429    0.1914172793
O       -1.2990463827   -3.0468409937    0.5386236301
O       -1.6371729489    1.4220040070    1.0965264424
O       -0.1082840320    1.3069952561   -0.9717456470
P       -0.4647050812    0.7461793108    0.4982404385
S        1.2708969109    0.8634122574    1.6944255517
H       -2.1586749745   -0.7317643303    2.4718398357
H       -0.5438748702   -1.2420931485    2.9618185281
H       -1.8692881777   -2.4390981480    2.9363988082
H        1.0699698240    1.5552208714   -2.6087584515
H        1.2398857068   -0.0491033723   -1.8455045221
H        1.9800422002    1.3816154316   -1.0754965198
H        1.7623894585    2.6902270430    3.1500552580
H        0.0100420597    2.6340795559    2.7899350220
H        1.1526770447    3.3097394170    1.5925306921
H       -0.5021740012   -1.2251667068   -0.7737815454
20   
torsion grid (105,)
C       -1.0983589816   -1.7985335888    0.8870793460
C       -1.3184750080   -1.4265864944    2.3339724500
C        1.2082770936    1.0782156462   -1.8062646775
C        0.9174756679    2.4626147077    2.5166488817
N       -0.5889823619   -0.7939439393    0.0401367411
O       -1.3309715976   -2.9026062136    0.4221429666
O       -1.5615162729    1.5820949992    0.9310475019
O       -0.0425735698    1.3787193816   -1.1509737668
P       -0.4088013377    0.8707702064    0.3348560305
S        1.3345150665    0.9686633029    1.5268619309
H       -1.9997212160   -0.5743362254    2.4097162067
H       -0.3728011981   -1.1355708596    2.8008543368
H       -1.7351078402   -2.2903174495    2.8512061464
H        1.1263868690    1.4952356121   -2.8097877766
H        1.3729625384   -0.0024914264   -1.8684006579
H        2.0378103300    1.5436005781   -1.2693328038
H        1.6390867383    2.4898601582    3.3353961436
H       -0.0960723928    2.3746034637    2.9063595230
H        1.0076038046    3.3668515106    1.9140022005
H       -0.5876861930   -1.0895839868   -0.9341573004
20   
torsion grid (120,)
C       -0.6420125152   -3.3178216399    0.9543656428
C       -0.6770266555   -4.6862928347    0.3012939742
C       -0.7559038519    1.3939570721   -1.1378652101
C        0.7006485626    0.8116097317    2.7921940301
N       -0.6607478754   -2.2490985133    0.0551934434
O       -0.5835225054   -3.1376189966    2.1584915564
O       -1.7972892579   -0.1311553411    1.3849596659
O       -0.6428458901   -0.0367063582   -0.9731181798
P       -0.6809144123   -0.6207177248    0.5419850176
S        1.2140085811   -0.2436388858    1.3776072485
H        0.2441152608   -4.8561739869   -0.2665847029
H       -1.5217182841   -4.7726517040   -0.3898970130
H       -0.7635839552   -5.4450886060    1.0785092840
H       -0.7958166328    1.5728928197   -2.2122775498
H        0.1229480301    1.8902103658   -0.7140859670
H       -1.6670117914    1.7595573653   -0.6584016855
H        1.6056556608    0.9759520765    3.3810070063
H       -0.0475199953    0.2906092113    3.3883623939
H        0.3042364276    1.7659803722    2.4458144488
H       -0.7334746074   -2.4337905001   -0.9404091120
20   
torsion grid (135,)
C       -0.6149940727   -3.1970743957    0.9664668529
C       -0.6730349859   -4.5989179323    0.3923971808
C       -0.7456930074    1.4389682708   -1.2717123872
C        0.6946755931    0.5561074276    2.8987188630
N       -0.6876689488   -2.1763171202    0.0212367283
O       -0.4964679359   -2.9511138746    2.1566888142
O       -1.7821632167   -0.0111612244    1.2822890622
O       -0.5958294799    0.0149322418   -1.0671938487
P       -0.6651728866   -0.5310455489    0.4584242005
S        1.2300145341   -0.1324521356    1.2812097335
H        0.2102829651   -4.7901531725   -0.2264864786
H       -1.5607059080   -4.7307836136   -0.2347464034
H       -0.6977583609   -5.3152417873    1.2131176243
H       -0.7231734489    1.5918660554   -2.3505966896
H        0.0853820938    1.9748016487   -0.8035678871
H       -1.6971943597    1.7804724070   -0.8579816099
H        1.6105820700    0.8750494759    3.4010223715
H        0.1948143807   -0.2181536069    3.4804239284
H        0.0280633791    1.4045894454    2.7520888578
H       -0.7889825566   -2.4017713022   -0.9633516419
20   
torsion grid (150,)
C       -0.5733131365   -3.0863584010    1.0270827840
C       -0.6345305815   -4.5176571388    0.5319501554
C       -0.8319670138    1.4243437175   -1.4363143245
C        0.6793281755    0.3597470523    2.9276190842
N       -0.7223746303   -2.1174018012    0.0430646404
O       -0.3858360073   -2.7791734028    2.1959890108
O       -1.8354288103    0.0856101564    1.1919314271
O       -0.6158622193    0.0212808801   -1.1497042486
P       -0.7024270098   -0.4477023432    0.3987023072
S        1.1830451149    0.0346579470    1.1894405975
H        0.2553167464   -4.7434250678   -0.0657637074
H       -1.5157397234   -4.6851702220   -0.0953010902
H       -0.6648668803   -5.1871102938    1.3912417302
H       -0.7803138995    1.5197346347   -2.5207616329
H       -0.0476651697    2.0282181937   -0.9714175519
H       -1.8133353412    1.7351074477   -1.0714538081
H        1.5679927242    0.7523274988    3.4263816219
H        0.3596364749   -0.5724562526    3.3928292447
H       -0.1257469632    1.0930530651    2.9516360373
H       -0.8549619534   -2.3922449105   -0.9250956864
20   
torsion grid (165,)
C       -0.8210058774   -3.1603780135    0.9627410733
C       -1.0184608506   -4.5787238075    0.4641548793
C       -0.8369562203    1.2829586542   -1.6282191966
C        0.5855206416   -0.0328343982    2.9250580288
N       -0.8853508451   -2.1819402319   -0.0157606923
O       -0.6288818039   -2.8798512398    2.1384683788
O       -1.9883493216    0.0733371065    1.0227055604
O       -0.6312012665   -0.1026430271   -1.2555546529
P       -0.8258280675   -0.4997182634    0.3042443798
S        1.0347555635   -0.0058006033    1.1407236373
H       -0.4141123069   -4.7820944502   -0.4254986207
H       -2.0706079656   -4.7326851848    0.2014793219
H       -0.7465062207   -5.2733134315    1.2586138637
H       -0.7174515326    1.3220161092   -2.7107800538
H       -0.0880764024    1.9182498056   -1.1476150272
H       -1.8410835462    1.6037866887   -1.3426703947
H        1.4613678889    0.3479569410    3.4546615324
H        0.3590635238   -1.0522169875    3.2313273706
H       -0.2709382016    0.6188933542    3.0988792168
H       -1.0000319903   -2.4535714357   -0.9872031688
20   
torsion grid (180,)
C       -1.2518745565   -1.7435884978    0.6901857290
C       -1.6521393212   -1.4320777758    2.1127778262
C       -0.2415760388    3.0393831213   -0.9255242247
C        2.4267848478   -0.2259385920    1.7965665219
N       -0.5601227393   -0.7554001279   -0.0367052976
O       -1.4958513171   -2.8067420898    0.1404916425
O       -0.5032985631    1.2634505015    1.7062807311
O       -0.3857708151    1.5946080502   -0.9294086853
P        0.0056029034    0.7766623991    0.4014127597
S        2.1097469619    0.7147043964    0.2499328959
H       -2.2752325002   -0.5366606638    2.1574952008
H       -0.7743071414   -1.2265468942    2.7308072808
H       -2.1903710244   -2.2953548043    2.5033651202
H       -0.6954983199    3.3847578219   -1.8537960530
H        0.8160705606    3.3146870668   -0.9007086566
H       -0.7634116280    3.4649702064   -0.0658263877
H        3.5106090359   -0.2615588484    1.9204373388
H        2.0417138186   -1.2441075085    1.7109535265
H        1.9757170403    0.2857739515    2.6476185422
H       -0.3230474903   -1.0747651842   -0.9748228092
