
  -OEChem-05262117483D

 39 41  0     1  0  0  0  0  0999 V2000
    2.4973    0.9844    1.0915 C   0  0  0  0  0  0  0  0  0  0  0  0
    2.3748   -0.3090    1.6206 C   0  0  0  0  0  0  0  0  0  0  0  0
    1.4466    1.5166    0.3509 C   0  0  0  0  0  0  0  0  0  0  0  0
    1.2163   -1.0478    1.4060 C   0  0  0  0  0  0  0  0  0  0  0  0
    0.2704    0.7848    0.1131 C   0  0  0  0  0  0  0  0  0  0  0  0
    0.1626   -0.5058    0.6555 C   0  0  0  0  0  0  0  0  0  0  0  0
   -2.2551    2.9798   -5.2713 C   0  0  0  0  0  0  0  0  0  0  0  0
   -1.5154    1.6576   -5.2986 C   0  0  0  0  0  0  0  0  0  0  0  0
   -2.1479    0.5391   -0.5292 C   0  0  0  0  0  0  0  0  0  0  0  0
   -0.8791    1.4023   -0.6650 C   0  0  2  0  0  0  0  0  0  0  0  0
   -1.1329    2.7175   -4.3040 C   0  0  0  0  0  0  0  0  0  0  0  0
   -1.8899   -0.9798   -0.5207 C   0  0  0  0  0  0  0  0  0  0  0  0
   -3.1730   -1.7195   -0.1464 C   0  0  0  0  0  0  0  0  0  0  0  0
   -1.3213   -1.5288   -1.8386 C   0  0  0  0  0  0  0  0  0  0  0  0
   -0.4315    1.6639   -2.1110 C   0  0  0  0  0  0  0  0  0  0  0  0
   -1.4629    2.4854   -2.8707 N   0  3  0  0  0  0  0  0  0  0  0  0
   -0.9572   -1.2868    0.5389 O   0  0  0  0  0  0  0  0  0  0  0  0
    3.3953    1.5687    1.2667 H   0  0  0  0  0  0  0  0  0  0  0  0
    3.1839   -0.7380    2.2048 H   0  0  0  0  0  0  0  0  0  0  0  0
    1.5294    2.5333   -0.0317 H   0  0  0  0  0  0  0  0  0  0  0  0
    1.0978   -2.0471    1.8140 H   0  0  0  0  0  0  0  0  0  0  0  0
   -2.0689    3.7071   -6.0541 H   0  0  0  0  0  0  0  0  0  0  0  0
   -3.2750    2.9789   -4.8955 H   0  0  0  0  0  0  0  0  0  0  0  0
   -2.0430    0.7785   -4.9370 H   0  0  0  0  0  0  0  0  0  0  0  0
   -0.8151    1.4584   -6.1025 H   0  0  0  0  0  0  0  0  0  0  0  0
   -2.6227    0.7941    0.4225 H   0  0  0  0  0  0  0  0  0  0  0  0
   -2.8983    0.7598   -1.3021 H   0  0  0  0  0  0  0  0  0  0  0  0
   -1.0922    2.3845   -0.2175 H   0  0  0  0  0  0  0  0  0  0  0  0
   -0.1900    3.2441   -4.4042 H   0  0  0  0  0  0  0  0  0  0  0  0
   -2.9685   -2.7872   -0.0363 H   0  0  0  0  0  0  0  0  0  0  0  0
   -3.9332   -1.5931   -0.9237 H   0  0  0  0  0  0  0  0  0  0  0  0
   -3.5725   -1.3484    0.8011 H   0  0  0  0  0  0  0  0  0  0  0  0
   -1.3115   -2.6208   -1.8065 H   0  0  0  0  0  0  0  0  0  0  0  0
   -0.2906   -1.2054   -2.0039 H   0  0  0  0  0  0  0  0  0  0  0  0
   -1.9364   -1.2257   -2.6944 H   0  0  0  0  0  0  0  0  0  0  0  0
   -0.2901    0.7530   -2.6878 H   0  0  0  0  0  0  0  0  0  0  0  0
    0.4934    2.2415   -2.1402 H   0  0  0  0  0  0  0  0  0  0  0  0
   -1.5907    3.3881   -2.3963 H   0  0  0  0  0  0  0  0  0  0  0  0
   -2.3700    2.0092   -2.8036 H   0  0  0  0  0  0  0  0  0  0  0  0
  1  2  1  0  0  0  0
  1  3  2  0  0  0  0
  1 18  1  0  0  0  0
  2  4  2  0  0  0  0
  2 19  1  0  0  0  0
  3  5  1  0  0  0  0
  3 20  1  0  0  0  0
  4  6  1  0  0  0  0
  4 21  1  0  0  0  0
  5  6  2  0  0  0  0
  5 10  1  0  0  0  0
  6 17  1  0  0  0  0
  7  8  1  0  0  0  0
  7 11  1  0  0  0  0
  7 22  1  0  0  0  0
  7 23  1  0  0  0  0
  8 11  1  0  0  0  0
  8 24  1  0  0  0  0
  8 25  1  0  0  0  0
  9 10  1  0  0  0  0
  9 12  1  0  0  0  0
  9 26  1  0  0  0  0
  9 27  1  0  0  0  0
 10 15  1  0  0  0  0
 10 28  1  0  0  0  0
 11 16  1  0  0  0  0
 11 29  1  0  0  0  0
 12 13  1  0  0  0  0
 12 14  1  0  0  0  0
 12 17  1  0  0  0  0
 13 30  1  0  0  0  0
 13 31  1  0  0  0  0
 13 32  1  0  0  0  0
 14 33  1  0  0  0  0
 14 34  1  0  0  0  0
 14 35  1  0  0  0  0
 15 16  1  0  0  0  0
 15 36  1  0  0  0  0
 15 37  1  0  0  0  0
 16 38  1  0  0  0  0
 16 39  1  0  0  0  0
M  CHG  1  16   1
M  END
$$$$
