
  -OEChem-05262117483D

 28 30  0     1  0  0  0  0  0999 V2000
   -1.2779    0.7983   -1.4703 C   0  0  0  0  0  0  0  0  0  0  0  0
   -0.9169   -0.1270   -0.4780 C   0  0  0  0  0  0  0  0  0  0  0  0
   -2.2877    0.4914   -2.3893 C   0  0  0  0  0  0  0  0  0  0  0  0
   -1.5383   -1.3777   -0.3779 C   0  0  0  0  0  0  0  0  0  0  0  0
   -2.9113   -0.7536   -2.2992 C   0  0  0  0  0  0  0  0  0  0  0  0
   -2.5327   -1.6645   -1.3070 C   0  0  0  0  0  0  0  0  0  0  0  0
   -5.9615    0.2806   -3.0305 C   0  0  0  0  0  0  0  0  0  0  0  0
   -6.4327    2.0434   -4.5595 C   0  0  0  0  0  0  0  0  0  0  0  0
   -3.9402   -2.8443   -2.6198 C   0  0  0  0  0  0  0  0  0  0  0  0
   -7.3061    2.4272   -3.3626 C   0  0  0  0  0  0  0  0  0  0  0  0
   -4.0756   -1.3660   -3.0431 C   0  0  1  0  0  0  0  0  0  0  0  0
   -5.5046    1.0199   -4.0462 N   0  3  0  0  0  0  0  0  0  0  0  0
   -5.3766   -0.8119   -2.5663 N   0  0  0  0  0  0  0  0  0  0  0  0
   -3.2556   -2.8346   -1.3501 O   0  0  0  0  0  0  0  0  0  0  0  0
   -7.4679    0.8773   -2.3697 S   0  0  0  0  0  0  0  0  0  0  0  0
   -0.7651    1.7531   -1.5280 H   0  0  0  0  0  0  0  0  0  0  0  0
   -0.1290    0.1275    0.2250 H   0  0  0  0  0  0  0  0  0  0  0  0
   -2.5604    1.2133   -3.1558 H   0  0  0  0  0  0  0  0  0  0  0  0
   -1.2555   -2.1000    0.3810 H   0  0  0  0  0  0  0  0  0  0  0  0
   -7.0293    1.6244   -5.3762 H   0  0  0  0  0  0  0  0  0  0  0  0
   -5.8660    2.9000   -4.9289 H   0  0  0  0  0  0  0  0  0  0  0  0
   -4.8919   -3.3647   -2.4994 H   0  0  0  0  0  0  0  0  0  0  0  0
   -3.3220   -3.3748   -3.3508 H   0  0  0  0  0  0  0  0  0  0  0  0
   -6.8399    3.1893   -2.7363 H   0  0  0  0  0  0  0  0  0  0  0  0
   -8.3013    2.7513   -3.6658 H   0  0  0  0  0  0  0  0  0  0  0  0
   -4.0527   -1.2703   -4.1312 H   0  0  0  0  0  0  0  0  0  0  0  0
   -4.6705    0.7624   -4.5617 H   0  0  0  0  0  0  0  0  0  0  0  0
   -5.7118   -1.1695   -1.6756 H   0  0  0  0  0  0  0  0  0  0  0  0
  1  2  1  0  0  0  0
  1  3  2  0  0  0  0
  1 16  1  0  0  0  0
  2  4  2  0  0  0  0
  2 17  1  0  0  0  0
  3  5  1  0  0  0  0
  3 18  1  0  0  0  0
  4  6  1  0  0  0  0
  4 19  1  0  0  0  0
  5  6  2  0  0  0  0
  5 11  1  0  0  0  0
  6 14  1  0  0  0  0
  7 12  2  0  0  0  0
  7 13  1  0  0  0  0
  7 15  1  0  0  0  0
  8 10  1  0  0  0  0
  8 12  1  0  0  0  0
  8 20  1  0  0  0  0
  8 21  1  0  0  0  0
  9 11  1  0  0  0  0
  9 14  1  0  0  0  0
  9 22  1  0  0  0  0
  9 23  1  0  0  0  0
 10 15  1  0  0  0  0
 10 24  1  0  0  0  0
 10 25  1  0  0  0  0
 11 13  1  0  0  0  0
 11 26  1  0  0  0  0
 12 27  1  0  0  0  0
 13 28  1  0  0  0  0
M  CHG  1  12   1
M  END
$$$$
