54
0 1 C19H26N4O4S
C                    -3.085299378283    -0.857385505853    -1.434297379650
C                    -2.126350118077     0.215050141142    -1.252924139696
C                    -1.054320133039    -0.188264270260    -0.504537460299
C                    -4.352941327944    -0.814199914618    -2.144565149100
C                    -2.708393063445    -2.025476918817    -0.802553671439
C                    -4.711798609358    -3.195596228812    -1.450124816016
C                     1.791620639832     0.328094384497     1.757170732450
C                    -6.448358767886    -3.188355348868    -3.965890188550
C                    -6.234145568129    -1.755992159550    -4.397543087354
C                     0.399181653806     0.675073050435     3.608911390981
C                    -0.384195111778     0.991213522831     2.322112030354
C                    -6.303151604635    -2.100705364931    -2.930613132450
C                    -7.497706968817    -1.672683621937    -2.104631674622
C                    -1.880771886529     1.595485615287    -3.359526549627
C                    -3.584343772756    -5.481020720656     3.435876137039
C                    -2.278131138689     1.581966994966    -1.873179511207
C                     0.190514834478     0.553214169988    -0.112012765844
C                    -3.086463536396    -4.351010968856    -0.020584977620
C                    -3.619792697920    -4.274098400393     1.408639333573
N                    -5.038340128622    -2.060107979434    -2.199225233759
N                    -3.470226294517    -3.170884155792    -0.802632587636
N                     1.774763175901     0.669582397657     3.107959746589
N                     0.477396940142     0.401028043054     1.303834008964
O                    -4.832291588173     0.182815840532    -2.678070785931
O                    -5.445219045965    -4.173179432596    -1.363682946054
O                     2.773378808387     0.026586196446     1.091009730048
O                    -3.096065107626    -5.390279666866     2.105817301455
S                    -1.189987712878    -1.869472952936     0.028712785027
H                    -7.432180722271    -3.636523037610    -4.065725972931
H                    -5.625963004255    -3.885383448473    -4.083855166118
H                    -5.266476763975    -1.486409259077    -4.805835288857
H                    -7.065465455617    -1.188275216048    -4.804046781012
H                     0.252431552686     1.433817421212     4.381358916755
H                     0.104807933452    -0.304885296466     4.009191299170
H                    -1.381384569347     0.544085090505     2.311780797835
H                    -0.483741679646     2.077112448794     2.172291410220
H                    -7.625357651500    -2.337650202581    -1.244657661401
H                    -8.410713455184    -1.715877637673    -2.705846572747
H                    -7.369483356550    -0.644350614407    -1.753302933883
H                    -0.839109704120     1.283675378840    -3.491401892114
H                    -1.994303888394     2.601437030358    -3.776922006765
H                    -2.520746607578     0.919713077248    -3.932760906398
H                    -3.127222834244    -6.364825790344     3.885811616337
H                    -4.678510865091    -5.591124993015     3.453160123094
H                    -3.309164198852    -4.593105711494     4.024981862468
H                    -3.319863765169     1.897129336205    -1.783360236491
H                    -1.666714592961     2.304256797500    -1.323526486884
H                     1.068347387911     0.174000949434    -0.644334061744
H                     0.078529474722     1.612686356475    -0.379399363930
H                    -1.996280143021    -4.425851168234    -0.011843763865
H                    -3.489218279396    -5.232298499130    -0.517551007431
H                    -4.718884784344    -4.297662021280     1.391970473691
H                    -3.300742661050    -3.333834408663     1.886302280515
H                     2.522244697678     0.276760194482     3.666869604357
