54
0 1 C19H26N4O4S
C                    -2.544702819746    -0.523587040826    -1.857223378943
C                    -1.520265879429     0.497515659721    -1.832504405452
C                    -0.432869466628     0.101140312041    -1.100929056318
C                    -3.845511522597    -0.463006653828    -2.504003271296
C                    -2.191110904495    -1.662285490835    -1.156622925701
C                    -4.286815682372    -2.760561765921    -1.611476800249
C                     2.131715202394     2.216309106160    -2.514344478806
C                    -6.925072704294    -0.419147023121    -2.417721869032
C                    -7.183351125397    -1.806686362646    -1.877716480816
C                     2.795468771286     0.599576232098    -4.074301310797
C                     2.206896800450    -0.109756380676    -2.837333731998
C                    -6.028963804075    -1.564356109690    -2.818497282885
C                    -6.074185002453    -2.104864856560    -4.232155317249
C                    -1.304092316236     1.669749985192    -4.063931485384
C                    -0.370363636599    -5.371134405808    -2.939763855280
C                    -1.599790561856     1.815483695643    -2.560649231024
C                     0.861568159569     0.840472213726    -0.885093139936
C                    -2.596464002852    -3.989880675526    -0.350951834271
C                    -2.058369457668    -5.031293975309    -1.320953357405
N                    -4.690713924407    -1.574862632160    -2.231231316114
N                    -3.020736059632    -2.753679811004    -1.019658702942
N                     3.019919258732     1.954003440105    -3.561190602881
N                     1.608766830836     1.001930652539    -2.116610172297
O                    -4.234844802212     0.450817051489    -3.225348905267
O                    -4.992984984908    -3.763468808623    -1.564374297510
O                     1.870790175557     3.315669040921    -2.037558621923
O                    -0.873139349545    -4.526244964692    -1.916020343489
S                    -0.608507335803    -1.531385453698    -0.459657893437
H                    -7.572794791379    -0.014739215183    -3.189453396872
H                    -6.518739971918     0.323919970071    -1.740764804849
H                    -6.951972184232    -2.000069099476    -0.836046201995
H                    -8.014376806232    -2.387250993266    -2.266613178649
H                     3.725623403917     0.136419678242    -4.412761017409
H                     2.073278051893     0.591832792558    -4.901801919977
H                     1.458943596566    -0.862525213597    -3.102657084015
H                     2.992357645810    -0.593503415596    -2.236968232090
H                    -5.435650881691    -1.506654298548    -4.889303860241
H                    -7.095664545968    -2.066211715761    -4.622110718760
H                    -5.741524628269    -3.147517092488    -4.253093525948
H                    -0.308095057880     1.243787921612    -4.221323594215
H                    -1.337578681878     2.648995540974    -4.552638868723
H                    -2.044967113456     1.024285585051    -4.542050323785
H                     0.529404000147    -4.894744611608    -3.335175819974
H                    -1.101718975016    -5.493185922635    -3.752111416824
H                    -0.108638583779    -6.365370086147    -2.547996519249
H                    -2.602446711059     2.232617935034    -2.438040247173
H                    -0.888007959139     2.518592597034    -2.119465199768
H                     0.673268222765     1.848992350229    -0.507320138662
H                     1.473777635013     0.322247394369    -0.132460056845
H                    -3.462267448102    -4.400875760759     0.169568534659
H                    -1.835273007701    -3.731778137052     0.389050106307
H                    -2.817411538251    -5.251901297388    -2.083339890878
H                    -1.850470876648    -5.960643581234    -0.765951558006
H                     3.141486917085     2.719500027421    -4.213199485757
