
  -OEChem-05262117483D

 31 33  0     1  0  0  0  0  0999 V2000
    1.2058    1.9637   -0.5724 C   0  0  0  0  0  0  0  0  0  0  0  0
    0.5264    3.1638   -0.3657 C   0  0  0  0  0  0  0  0  0  0  0  0
   -1.2377    1.9220    0.7562 C   0  0  0  0  0  0  0  0  0  0  0  0
    0.7044    0.7341   -0.1302 C   0  0  0  0  0  0  0  0  0  0  0  0
   -0.5349    0.7285    0.5350 C   0  0  0  0  0  0  0  0  0  0  0  0
   -0.6980    3.1213    0.3075 C   0  0  0  0  0  0  0  0  0  0  0  0
   -2.7209   -2.3247   -0.5350 C   0  0  0  0  0  0  0  0  0  0  0  0
   -2.7230   -2.8310    0.9384 C   0  0  0  0  0  0  0  0  0  0  0  0
   -1.2557   -1.9513   -0.8528 C   0  0  0  0  0  0  0  0  0  0  0  0
   -1.2560   -2.7409    1.4136 C   0  0  0  0  0  0  0  0  0  0  0  0
    0.9085   -1.6604    0.5460 C   0  0  0  0  0  0  0  0  0  0  0  0
    1.4633   -0.5639   -0.3562 C   0  0  2  0  0  0  0  0  0  0  0  0
   -0.6133   -1.6791    0.5192 C   0  0  0  0  0  0  0  0  0  0  0  0
   -1.1199   -0.4051    1.0200 O   0  0  0  0  0  0  0  0  0  0  0  0
    2.8633   -0.4618   -0.0648 O   0  0  0  0  0  0  0  0  0  0  0  0
   -1.5813    4.6155    0.5850 Cl  0  0  0  0  0  0  0  0  0  0  0  0
    2.1633    1.9997   -1.0881 H   0  0  0  0  0  0  0  0  0  0  0  0
    0.9333    4.1076   -0.7123 H   0  0  0  0  0  0  0  0  0  0  0  0
   -2.1900    1.8875    1.2746 H   0  0  0  0  0  0  0  0  0  0  0  0
   -3.0988   -3.0775   -1.2325 H   0  0  0  0  0  0  0  0  0  0  0  0
   -3.3630   -1.4457   -0.6338 H   0  0  0  0  0  0  0  0  0  0  0  0
   -3.3591   -2.1931    1.5569 H   0  0  0  0  0  0  0  0  0  0  0  0
   -3.1081   -3.8509    1.0250 H   0  0  0  0  0  0  0  0  0  0  0  0
   -0.7289   -2.7918   -1.3202 H   0  0  0  0  0  0  0  0  0  0  0  0
   -1.1718   -1.0951   -1.5281 H   0  0  0  0  0  0  0  0  0  0  0  0
   -1.1540   -2.4827    2.4709 H   0  0  0  0  0  0  0  0  0  0  0  0
   -0.7338   -3.6896    1.2475 H   0  0  0  0  0  0  0  0  0  0  0  0
    1.3045   -2.6306    0.2338 H   0  0  0  0  0  0  0  0  0  0  0  0
    1.2515   -1.4722    1.5691 H   0  0  0  0  0  0  0  0  0  0  0  0
    1.3394   -0.8660   -1.4070 H   0  0  0  0  0  0  0  0  0  0  0  0
    3.2822    0.0982   -0.7358 H   0  0  0  0  0  0  0  0  0  0  0  0
  1  2  1  0  0  0  0
  1  4  2  0  0  0  0
  1 17  1  0  0  0  0
  2  6  2  0  0  0  0
  2 18  1  0  0  0  0
  3  5  2  0  0  0  0
  3  6  1  0  0  0  0
  3 19  1  0  0  0  0
  4  5  1  0  0  0  0
  4 12  1  0  0  0  0
  5 14  1  0  0  0  0
  6 16  1  0  0  0  0
  7  8  1  0  0  0  0
  7  9  1  0  0  0  0
  7 20  1  0  0  0  0
  7 21  1  0  0  0  0
  8 10  1  0  0  0  0
  8 22  1  0  0  0  0
  8 23  1  0  0  0  0
  9 13  1  0  0  0  0
  9 24  1  0  0  0  0
  9 25  1  0  0  0  0
 10 13  1  0  0  0  0
 10 26  1  0  0  0  0
 10 27  1  0  0  0  0
 11 12  1  0  0  0  0
 11 13  1  0  0  0  0
 11 28  1  0  0  0  0
 11 29  1  0  0  0  0
 12 15  1  0  0  0  0
 12 30  1  0  0  0  0
 13 14  1  0  0  0  0
 15 31  1  0  0  0  0
M  END
$$$$
