
  -OEChem-05262117483D

 64 68  0     0  0  0  0  0  0999 V2000
   -7.4004   -2.2811    9.7077 C   0  0  0  0  0  0  0  0  0  0  0  0
   -7.4297   -3.6155    9.2290 C   0  0  0  0  0  0  0  0  0  0  0  0
    5.4028    3.3118    0.0276 C   0  0  0  0  0  0  0  0  0  0  0  0
    6.1531    2.8344    1.1193 C   0  0  0  0  0  0  0  0  0  0  0  0
   -6.4949   -1.3772    9.1854 C   0  0  0  0  0  0  0  0  0  0  0  0
   -6.5512   -4.0168    8.2401 C   0  0  0  0  0  0  0  0  0  0  0  0
    4.2343    2.6552   -0.3704 C   0  0  0  0  0  0  0  0  0  0  0  0
    1.5289    0.5759   -0.6000 C   0  0  0  0  0  0  0  0  0  0  0  0
    5.7594    1.6954    1.8292 C   0  0  0  0  0  0  0  0  0  0  0  0
    0.5580   -0.3923   -0.3587 C   0  0  0  0  0  0  0  0  0  0  0  0
   -4.6310   -0.8599    7.6180 C   0  0  0  0  0  0  0  0  0  0  0  0
   -4.6980   -3.4923    6.6632 C   0  0  0  0  0  0  0  0  0  0  0  0
    1.9013   -1.3718    1.4403 C   0  0  0  0  0  0  0  0  0  0  0  0
   -5.5812   -1.7614    8.1670 C   0  0  0  0  0  0  0  0  0  0  0  0
   -5.6089   -3.1093    7.6863 C   0  0  0  0  0  0  0  0  0  0  0  0
    3.8162    1.5126    0.3228 C   0  0  0  0  0  0  0  0  0  0  0  0
    2.6801    0.6223    0.2057 C   0  0  0  0  0  0  0  0  0  0  0  0
    4.5950    1.0317    1.4240 C   0  0  0  0  0  0  0  0  0  0  0  0
    2.8355   -0.3590    1.2188 C   0  0  0  0  0  0  0  0  0  0  0  0
    0.7329   -1.3411    0.6792 C   0  0  0  0  0  0  0  0  0  0  0  0
   -3.7453   -1.2375    6.6289 C   0  0  0  0  0  0  0  0  0  0  0  0
   -3.7958   -2.5911    6.1307 C   0  0  0  0  0  0  0  0  0  0  0  0
    2.3005   -1.5036    4.5653 C   0  0  0  0  0  0  0  0  0  0  0  0
   -1.5196   -0.6052    5.8416 C   0  0  0  0  0  0  0  0  0  0  0  0
    3.5134   -0.5319    4.3808 C   0  0  0  0  0  0  0  0  0  0  0  0
   -1.6081   -3.4285    2.5528 C   0  0  0  0  0  0  0  0  0  0  0  0
   -1.4849   -4.2524    3.8480 C   0  0  0  0  0  0  0  0  0  0  0  0
    4.3974   -0.8273    3.1549 C   0  0  0  0  0  0  0  0  0  0  0  0
   -0.2268   -2.9495    2.1418 C   0  0  0  0  0  0  0  0  0  0  0  0
   -2.7366   -4.2282    4.7117 C   0  0  0  0  0  0  0  0  0  0  0  0
    3.9990   -0.1120    1.9381 N   0  0  0  0  0  0  0  0  0  0  0  0
    1.2526   -1.0010    5.0499 O   0  5  0  0  0  0  0  0  0  0  0  0
    2.4996   -2.7068    4.2174 O   0  0  0  0  0  0  0  0  0  0  0  0
   -2.9173   -0.2894    6.1215 O   0  0  0  0  0  0  0  0  0  0  0  0
   -0.3160   -2.1932    0.9182 O   0  0  0  0  0  0  0  0  0  0  0  0
   -2.9283   -2.8704    5.1259 O   0  0  0  0  0  0  0  0  0  0  0  0
   -8.0931   -1.9718   10.4870 H   0  0  0  0  0  0  0  0  0  0  0  0
   -8.1450   -4.3223    9.6431 H   0  0  0  0  0  0  0  0  0  0  0  0
    5.7335    4.2012   -0.5039 H   0  0  0  0  0  0  0  0  0  0  0  0
    7.0548    3.3623    1.4221 H   0  0  0  0  0  0  0  0  0  0  0  0
   -6.4700   -0.3525    9.5510 H   0  0  0  0  0  0  0  0  0  0  0  0
   -6.5721   -5.0411    7.8726 H   0  0  0  0  0  0  0  0  0  0  0  0
    3.6516    3.0313   -1.2088 H   0  0  0  0  0  0  0  0  0  0  0  0
    1.3747    1.3106   -1.3876 H   0  0  0  0  0  0  0  0  0  0  0  0
    6.3431    1.3459    2.6759 H   0  0  0  0  0  0  0  0  0  0  0  0
   -0.3642   -0.4189   -0.9323 H   0  0  0  0  0  0  0  0  0  0  0  0
   -4.5790    0.1645    7.9775 H   0  0  0  0  0  0  0  0  0  0  0  0
   -4.7419   -4.5076    6.2830 H   0  0  0  0  0  0  0  0  0  0  0  0
    2.0663   -2.0976    2.2270 H   0  0  0  0  0  0  0  0  0  0  0  0
   -0.9754    0.3291    5.9682 H   0  0  0  0  0  0  0  0  0  0  0  0
   -1.3942   -0.9656    4.8246 H   0  0  0  0  0  0  0  0  0  0  0  0
   -1.1347   -1.3491    6.5401 H   0  0  0  0  0  0  0  0  0  0  0  0
    4.1331   -0.6513    5.2794 H   0  0  0  0  0  0  0  0  0  0  0  0
    3.1638    0.5044    4.3644 H   0  0  0  0  0  0  0  0  0  0  0  0
   -2.0763   -4.0178    1.7545 H   0  0  0  0  0  0  0  0  0  0  0  0
   -2.2397   -2.5516    2.7261 H   0  0  0  0  0  0  0  0  0  0  0  0
   -0.6546   -3.8661    4.4499 H   0  0  0  0  0  0  0  0  0  0  0  0
   -1.2453   -5.2975    3.6154 H   0  0  0  0  0  0  0  0  0  0  0  0
    4.3587   -1.9042    2.9626 H   0  0  0  0  0  0  0  0  0  0  0  0
    5.4413   -0.5621    3.3420 H   0  0  0  0  0  0  0  0  0  0  0  0
    0.1798   -2.3274    2.9431 H   0  0  0  0  0  0  0  0  0  0  0  0
    0.4631   -3.7920    1.9993 H   0  0  0  0  0  0  0  0  0  0  0  0
   -2.6062   -4.8642    5.5969 H   0  0  0  0  0  0  0  0  0  0  0  0
   -3.6255   -4.5721    4.1624 H   0  0  0  0  0  0  0  0  0  0  0  0
  1  2  1  0  0  0  0
  1  5  2  0  0  0  0
  1 37  1  0  0  0  0
  2  6  2  0  0  0  0
  2 38  1  0  0  0  0
  3  4  1  0  0  0  0
  3  7  2  0  0  0  0
  3 39  1  0  0  0  0
  4  9  2  0  0  0  0
  4 40  1  0  0  0  0
  5 14  1  0  0  0  0
  5 41  1  0  0  0  0
  6 15  1  0  0  0  0
  6 42  1  0  0  0  0
  7 16  1  0  0  0  0
  7 43  1  0  0  0  0
  8 10  2  0  0  0  0
  8 17  1  0  0  0  0
  8 44  1  0  0  0  0
  9 18  1  0  0  0  0
  9 45  1  0  0  0  0
 10 20  1  0  0  0  0
 10 46  1  0  0  0  0
 11 14  1  0  0  0  0
 11 21  2  0  0  0  0
 11 47  1  0  0  0  0
 12 15  1  0  0  0  0
 12 22  2  0  0  0  0
 12 48  1  0  0  0  0
 13 19  1  0  0  0  0
 13 20  2  0  0  0  0
 13 49  1  0  0  0  0
 14 15  2  0  0  0  0
 16 17  1  0  0  0  0
 16 18  2  0  0  0  0
 17 19  2  0  0  0  0
 18 31  1  0  0  0  0
 19 31  1  0  0  0  0
 20 35  1  0  0  0  0
 21 22  1  0  0  0  0
 21 34  1  0  0  0  0
 22 36  1  0  0  0  0
 23 25  1  0  0  0  0
 23 32  1  0  0  0  0
 23 33  2  0  0  0  0
 24 34  1  0  0  0  0
 24 50  1  0  0  0  0
 24 51  1  0  0  0  0
 24 52  1  0  0  0  0
 25 28  1  0  0  0  0
 25 53  1  0  0  0  0
 25 54  1  0  0  0  0
 26 27  1  0  0  0  0
 26 29  1  0  0  0  0
 26 55  1  0  0  0  0
 26 56  1  0  0  0  0
 27 30  1  0  0  0  0
 27 57  1  0  0  0  0
 27 58  1  0  0  0  0
 28 31  1  0  0  0  0
 28 59  1  0  0  0  0
 28 60  1  0  0  0  0
 29 35  1  0  0  0  0
 29 61  1  0  0  0  0
 29 62  1  0  0  0  0
 30 36  1  0  0  0  0
 30 63  1  0  0  0  0
 30 64  1  0  0  0  0
M  CHG  1  32  -1
M  END
$$$$
