39
0 1 C15FH18N3O2
C                     0.158905492153     3.408118993137     0.435046454047
C                     0.599172623348     3.093522411129    -1.915024426687
C                     0.893141602512     4.596350165766     0.425633439240
C                     1.340696292372     4.279102961569    -1.944238575370
C                    -0.154345847301    -0.289671980837    -4.729526559218
C                    -0.282372722063    -1.621496596105    -3.108001890262
C                     0.005637721708     2.636720936899    -0.728133548805
C                     1.475839478763     5.008054697718    -0.768745349090
C                     2.129988020896     0.688863741927     1.193911143845
C                     1.762201805404    -0.746745986622     1.525099839164
C                     0.708685148582     0.238224303477     1.037259930735
C                    -1.113159929188    -0.127166437910     2.583994984362
C                    -0.784472120076     1.342591593470    -0.696549337106
C                     1.069394756613    -0.241314883600    -1.449233274127
C                     0.041904088076     0.086463952527    -0.336953218470
N                    -0.672491348286    -1.500419426817    -4.370203855863
N                     0.528034579486     0.333002492542    -3.775473299482
N                     0.437412717570    -0.539143554336    -2.726774520700
O                    -0.910846136280    -0.998116226786    -0.278807051933
O                    -0.128137716221     0.758074157255     2.045334981578
F                     2.195228257743     6.163265095982    -0.786633502058
H                    -0.288347984747     3.064605855834     1.361979429361
H                     0.492635439315     2.513072865969    -2.826424569172
H                     1.014552624410     5.198053388620     1.321486672782
H                     1.802585985403     4.637219368429    -2.859455016896
H                    -0.276242923759     0.143783364340    -5.713929878270
H                    -0.503322771055    -2.445255657817    -2.445417453749
H                     2.313439535552     1.362539272391     2.023524434830
H                     2.728172104172     0.884088375290     0.311469822040
H                     2.122688238238    -1.537859566447     0.873730842664
H                     1.716908337294    -1.016665348549     2.575371808876
H                    -1.485778707388     0.352086675967     3.492255740710
H                    -0.670963327923    -1.097002116906     2.850338579457
H                    -1.938778593704    -0.289386114016     1.885016501604
H                    -1.254750213831     1.158562936981    -1.666194634017
H                    -1.587961101651     1.413439505343     0.038422255491
H                     1.738026942504     0.598539706237    -1.628553899182
H                     1.672841972926    -1.106654764321    -1.162458173386
H                    -0.506328185397    -1.707638205625     0.247869547703
