31
0 1 C13ClH15O2
C                     1.322011690660     2.467664492319    -0.363959840918
C                     0.839544534325     3.544538867174     0.377670430855
C                    -1.056044102431     2.171928436987     1.052826652073
C                     0.658009535482     1.234219281080    -0.407659675983
C                    -0.544855101556     1.097710679899     0.307761930242
C                    -0.357781347726     3.373220253520     1.080930772180
C                    -1.087389888046    -3.667150348742    -0.235807466488
C                     0.185567413857    -3.405856268427     0.628429767680
C                    -1.778029220603    -2.293446781316    -0.389793277490
C                     0.129102067603    -1.914351466736     1.009205585036
C                     0.148431836879    -0.993972763934    -1.410674686711
C                     1.206738304180     0.088934633297    -1.226593059583
C                    -0.666066740065    -1.265737409129    -0.140784136080
O                    -1.300388689607    -0.034719242707     0.296468050292
O                     2.366759288421    -0.520765229809    -0.618474885993
Cl                   -0.999051187665     4.712026552442     2.021399058064
H                     2.234282345531     2.597031249071    -0.944773973301
H                     1.363594864508     4.493787705847     0.402510988102
H                    -1.986987124439     2.045413606728     1.595128722301
H                    -0.812705126584    -4.077302777477    -1.212443760571
H                    -1.757805078339    -4.393893950103     0.230827850726
H                     0.221794488817    -4.044808629689     1.514997518123
H                     1.091509262751    -3.614309929882     0.051592634873
H                    -2.265115115008    -2.156208677600    -1.359841712183
H                    -2.538796445351    -2.150183677550     0.384477512488
H                    -0.457683094046    -1.771514107204     1.923550238858
H                     1.114347005966    -1.473018408594     1.154469888842
H                    -0.543851427016    -0.675639016046    -2.198123269843
H                     0.636010643981    -1.911559437813    -1.750199695841
H                     1.500187890620     0.471614313838    -2.214390542432
H                     2.914378033836     0.187101361005    -0.243310410861
