26   
torsion grid (-165,)
C       -1.4242800298   -0.1108279055    0.3839052472
C       -0.9079958354    0.0959995548   -0.8969839965
C       -0.5708081760   -0.4756474503    1.4252242240
C        0.4531727968   -0.0970985690   -1.1193039745
C        0.8121387491   -0.6547766410    1.2424182831
C        1.2937661716   -0.5130778403   -0.0761489787
C        1.6509157667   -0.9445032744    2.4684763633
C        5.1943087640   -0.9758237049    0.9033998290
C        3.6708457691   -2.8566353291    0.4198175233
N        3.8193555697   -1.4062610185    0.6063379741
O        3.1038942662   -1.1626763851   -1.8923586506
O        3.5338184976    0.8731079116   -0.4424360875
S        3.0322999121   -0.4997996984   -0.5822675140
H       -2.4846261311    0.0272948488    0.5782506301
H       -1.5525564614    0.4062757667   -1.7143399555
H       -0.9787162636   -0.6031004061    2.4247467835
H        0.8676516607    0.0382851857   -2.1134127099
H        1.0310142814   -0.8406283785    3.3627236523
H        2.4946943291   -0.2572454285    2.5509838253
H        2.0618769509   -1.9565766690    2.4590597048
H        5.4901199350   -1.4568173219    1.8403044442
H        5.2182718169    0.1051613256    1.0338925147
H        5.9041449871   -1.2621190902    0.1155007686
H        2.6223895800   -3.1059386555    0.2395078129
H        3.9873404691   -3.3511439507    1.3427587558
H        4.2677084757   -3.2336300820   -0.4200602444
26   
torsion grid (-150,)
C       -1.4120684091   -0.2740484258    0.3503710328
C       -0.8949504467   -0.1292380197   -0.9384034094
C       -0.5499677803   -0.4778295152    1.4300295218
C        0.4825156948   -0.2226371030   -1.1333608521
C        0.8432603109   -0.5535707149    1.2720679751
C        1.3312055048   -0.4823289815   -0.0503157004
C        1.7064490513   -0.6620864645    2.5083773284
C        5.1978469353   -1.1667681262    0.9376988799
C        3.5564056186   -2.8615583797    0.2212404666
N        3.7952900855   -1.4633513776    0.6067071718
O        3.2440934623   -0.7696423168   -1.8596163986
O        3.5699667071    0.9678136840   -0.0395538554
S        3.0843956420   -0.3531581575   -0.4586148380
H       -2.4835081072   -0.2096224811    0.5212745257
H       -1.5514609539    0.0584281967   -1.7831534689
H       -0.9619022411   -0.5530736764    2.4333246230
H        0.9082934935   -0.1321648755   -2.1275757451
H        1.0955236392   -0.4883613273    3.3979759503
H        2.5143603026    0.0730097762    2.4938832578
H        2.1724380127   -1.6464565394    2.5944504593
H        5.4648070446   -1.7772862351    1.8051187904
H        5.2942394043   -0.1140898879    1.2013389788
H        5.8837499148   -1.4003044860    0.1118699471
H        2.4918660416   -3.0178353287    0.0299068212
H        3.8486305813   -3.4977523844    1.0615750270
H        4.1226642516   -3.1540895779   -0.6722178515
26   
torsion grid (-135,)
C       -1.4157463947   -0.3900325661    0.3400564324
C       -0.8736361039   -0.3264297860   -0.9450599280
C       -0.5753859456   -0.4360227421    1.4560121404
C        0.5131487344   -0.3304169228   -1.1011946887
C        0.8222023920   -0.4266321987    1.3353395289
C        1.3401155292   -0.4165096039    0.0228442389
C        1.6753668651   -0.4055459827    2.5810205759
C        5.1457286032   -1.3195256571    1.0263357723
C        3.4680144479   -2.8469091029    0.0652169021
N        3.7410900602   -1.5198208937    0.6357150368
O        3.3163975345   -0.4923454330   -1.7385603306
O        3.6010275180    0.9870263596    0.3036139135
S        3.1036861185   -0.2537237243   -0.3036058937
H       -2.4938251314   -0.3902792894    0.4786108873
H       -1.5185870379   -0.2691481618   -1.8172188504
H       -1.0108607891   -0.4592889824    2.4519394470
H        0.9659431038   -0.2909595795   -2.0866132942
H        1.0478731514   -0.2490673593    3.4618840413
H        2.4180736301    0.3949114507    2.5333651437
H        2.2246774411   -1.3428356237    2.6997024067
H        5.3758198832   -2.0498316868    1.8072965000
H        5.2702350070   -0.3159160568    1.4318799491
H        5.8412209764   -1.4628839314    0.1878343670
H        2.4043115271   -2.9397089360   -0.1663400248
H        3.7175248997   -3.5958148113    0.8221215394
H        4.0489367024   -3.0407690489   -0.8456627120
26   
torsion grid (-120,)
C       -1.3970216291   -0.5202057063    0.3293398268
C       -0.8480191513   -0.5535358206   -0.9541681993
C       -0.5662332905   -0.4123310578    1.4486434925
C        0.5380413037   -0.4852760845   -1.1056450516
C        0.8292110615   -0.3349436466    1.3325382005
C        1.3540631967   -0.3894281798    0.0246282614
C        1.6827550328   -0.1961742367    2.5690946669
C        5.1178262091   -1.5449144705    0.9051207304
C        3.3604117839   -2.8884934244   -0.1745942416
N        3.6978743604   -1.6400553449    0.5250482549
O        3.3340384249   -0.3636700613   -1.7326242321
O        3.6698186279    0.8994986758    0.4424081769
S        3.1217249757   -0.2525056728   -0.2817420345
H       -2.4743792973   -0.5741956904    0.4631720329
H       -1.4874479704   -0.6296927719   -1.8289637768
H       -1.0080392594   -0.3800756974    2.4414780887
H        0.9987601812   -0.5089952727   -2.0877800696
H        1.0556625358   -0.1820819962    3.4636107772
H        2.2720048815    0.7237521249    2.5333225626
H        2.3927952832   -1.0244023251    2.6451656498
H        5.3261579037   -2.3624582435    1.6009241408
H        5.2953427833   -0.5957930352    1.4101475221
H        5.7917489335   -1.6305860474    0.0415377233
H        2.2909618248   -2.9143035227   -0.3947886559
H        3.5877885509   -3.7201599875    0.4979740071
H        3.9218342219   -3.0105706686   -1.1098195740
26   
torsion grid (-105,)
C       -1.3708805097   -0.6226597864    0.3500383538
C       -0.7831590486   -0.7462273053   -0.9107866638
C       -0.5801613825   -0.3654800095    1.4738143481
C        0.5995529272   -0.6027653642   -1.0362030326
C        0.8119400790   -0.2199449788    1.3824506141
C        1.3746705288   -0.3295813381    0.0944886108
C        1.6259232490    0.0187681665    2.6306160608
C        5.0877783460   -1.6837769120    0.8978165043
C        3.3133129503   -2.8525125050   -0.3395139299
N        3.6695620875   -1.6964644141    0.4956772698
O        3.3868519719   -0.1799461176   -1.6153465432
O        3.7223383696    0.8433244206    0.6822788469
S        3.1508970554   -0.2083206355   -0.1637261072
H       -2.4464880137   -0.7309944251    0.4632095292
H       -1.3901362530   -0.9507385413   -1.7881186150
H       -1.0497013979   -0.2814722935    2.4507628834
H        1.0866531676   -0.6799092181   -2.0027545507
H        0.9805142697   -0.0052380792    3.5119039805
H        2.1397964053    0.9815877071    2.5893894274
H        2.3988846582   -0.7478355597    2.7410362327
H        5.2635367796   -2.5741118255    1.5077798081
H        5.2871989559   -0.7975351018    1.4995598666
H        5.7696479769   -1.7002040358    0.0362787575
H        2.2408611405   -2.8496273980   -0.5438202364
H        3.5457800362   -3.7565616299    0.2296769771
H        3.8619062817   -2.8683840100   -1.2900857600
26   
torsion grid (-90,)
C       -1.3421641698   -0.6912760000    0.3786308469
C       -0.7075441295   -0.9180832558   -0.8445210304
C       -0.5987491181   -0.2894824155    1.4912050421
C        0.6708240552   -0.7270734126   -0.9419884753
C        0.7908474252   -0.1005791104    1.4318096388
C        1.3979944494   -0.2990755719    0.1745627051
C        1.5411430361    0.2708694830    2.6888350008
C        5.0750027675   -1.8222562266    0.8631693354
C        3.3341519440   -2.8098892916   -0.5590829257
N        3.6677757051   -1.7695686715    0.4234471640
O        3.4322547768   -0.0065122893   -1.4827338004
O        3.7737255576    0.7293690441    0.9225186025
S        3.1827283258   -0.1974786910   -0.0455642377
H       -2.4160362361   -0.8315829776    0.4711553863
H       -1.2748623317   -1.2363687098   -1.7144512489
H       -1.1037497051   -0.1291275676    2.4404278400
H        1.1845349503   -0.8611444427   -1.8882996640
H        0.8545053137    0.2943036220    3.5385086376
H        2.0254408897    1.2445365126    2.5939163906
H        2.3334267311   -0.4525848022    2.9017378121
H        5.2279311268   -2.7862325574    1.3558602246
H        5.2634540549   -1.0244391958    1.5805600991
H        5.7808741350   -1.7324370766    0.0257206577
H        2.2610340049   -2.8108327912   -0.7563029062
H        3.5929949889   -3.7750143955   -0.1157340594
H        3.8779011681   -2.6855194415   -1.5044290535
26   
torsion grid (-75,)
C       -0.8439399985    0.7184462435    0.6965608570
C        0.2612965130    1.3475939334    1.2775025111
C       -0.7764077563   -0.6290848225    0.3417783482
C        1.4250303923    0.6134806123    1.4918738039
C        0.3816314350   -1.4013373601    0.5435723420
C        1.4810618795   -0.7362581515    1.1226343474
C        0.3586088163   -2.8596074840    0.1428080708
C        3.6526876365   -1.3654056622   -1.1028514092
C        5.4665531834   -0.9996515040    0.5133390113
N        4.0248578472   -0.8742181080    0.2305195795
O        3.5936762414   -0.9867677617    2.7261101322
O        2.9255775882   -2.9916486947    1.3243207792
S        3.0585495316   -1.5358041688    1.4761592049
H       -1.7611607672    1.2752431460    0.5229751406
H        0.2173253394    2.3943738066    1.5641706533
H       -1.6456616714   -1.1070035153   -0.1026700085
H        2.2943193906    1.0732486326    1.9503375866
H       -0.6012366909   -3.0968327426   -0.3225474148
H        0.5032432299   -3.5114163249    1.0067740392
H        1.1565550036   -3.1068597733   -0.5611637326
H        4.2353375933   -0.8051192142   -1.8388024984
H        2.5958117303   -1.1639729284   -1.2912543550
H        3.8479395431   -2.4390990950   -1.2284095926
H        5.6714282796   -0.6289670287    1.5174360467
H        5.9974189457   -0.3745401832   -0.2097173692
H        5.8256126025   -2.0343818703    0.4238960539
26   
torsion grid (-60,)
C       -0.8129360587    0.7059099574    0.6597515828
C        0.3577337223    1.3262280999    1.1079903479
C       -0.8288653608   -0.6675181066    0.4180084931
C        1.4999508771    0.5555613387    1.3061030278
C        0.3069548529   -1.4768844854    0.6042985862
C        1.4708463698   -0.8219311558    1.0520401045
C        0.1957717347   -2.9577258386    0.3186291827
C        3.7592279891   -1.1549253550   -1.1142458831
C        5.4753692138   -0.9646455344    0.6355064104
N        4.0487994337   -0.8316987241    0.2899576568
O        3.4954305593   -1.3102222616    2.7201449952
O        2.9183280673   -3.0870586614    1.0055645995
S        3.0299237638   -1.6693339918    1.3767673128
H       -1.7149548351    1.2910446873    0.5003778097
H        0.3805910121    2.3943960331    1.3039393215
H       -1.7468929796   -1.1371317472    0.0742029834
H        2.4201942249    1.0116791328    1.6556629783
H       -0.8204847916   -3.1923651827   -0.0074835606
H        0.4287001387   -3.5573039107    1.2010729979
H        0.8958005415   -3.2742239596   -0.4579909883
H        4.3343803568   -0.4683494987   -1.7412954151
H        2.6989066462   -0.9917094618   -1.3217111899
H        4.0219340978   -2.1897924994   -1.3711612898
H        5.6157764333   -0.7270028673    1.6897578680
H        6.0274441486   -0.2389118554    0.0320702674
H        5.8668711649   -1.9708960415    0.4312391995
26   
torsion grid (-45,)
C       -0.8274734563    0.6854586822    0.6443071731
C        0.3943020528    1.3002147696    0.9338777016
C       -0.8977903683   -0.7015113211    0.5122041538
C        1.5340593666    0.5130145187    1.0800800954
C        0.2316019073   -1.5275176254    0.6524061534
C        1.4508999687   -0.8768940560    0.9270571018
C        0.0606018648   -3.0233287500    0.5124926337
C        3.9088332223   -0.9397658456   -1.1337336557
C        5.4726360518   -0.9657469365    0.7650884867
N        4.0766603440   -0.8069184135    0.3209994937
O        3.3726814903   -1.6690851621    2.6080821077
O        2.8847932745   -3.1185490250    0.5865666656
S        2.9872692050   -1.7853638046    1.1978113820
H       -1.7267628657    1.2843608081    0.5260903732
H        0.4603577425    2.3785141467    1.0476402068
H       -1.8555706272   -1.1684974003    0.2973202439
H        2.4944329834    0.9664483302    1.2998163724
H       -0.9976651530   -3.2608019591    0.3789953492
H        0.4286002747   -3.5574942858    1.3915723722
H        0.6214874617   -3.4128102836   -0.3398291964
H        4.5087059425   -0.1607974938   -1.6122882698
H        2.8632633432   -0.7758924574   -1.4045660733
H        4.2242797674   -1.9238436258   -1.5039628194
H        5.5213948983   -0.8706306018    1.8494653098
H        6.0542204729   -0.1586630171    0.3110684875
H        5.9034197946   -1.9302256780    0.4625050946
26   
torsion grid (-30,)
C       -0.8577692666    0.6695724286    0.6609404845
C        0.3925579629    1.2813343950    0.7777610101
C       -0.9541929247   -0.7230346263    0.6300587813
C        1.5373427671    0.4881939143    0.8525643399
C        0.1767980211   -1.5521018682    0.7014493936
C        1.4261243993   -0.9053013417    0.7942330505
C       -0.0056567779   -3.0525054099    0.6943265429
C        4.0743107017   -0.7772995244   -1.1500007239
C        5.4415623622   -0.9884600839    0.8895231672
N        4.0945649535   -0.8119166327    0.3202564367
O        3.2489540847   -2.0227733424    2.3977159135
O        2.8277933461   -3.0799631501    0.1323447701
S        2.9373876604   -1.8772859969    0.9716829104
H       -1.7591789709    1.2739561095    0.6016598188
H        0.4795725388    2.3635639975    0.8151864935
H       -1.9334902865   -1.1889981015    0.5549937151
H        2.5196732283    0.9379111395    0.9439343989
H       -1.0699523197   -3.2968717165    0.7331037621
H        0.4868362049   -3.5221218836    1.5502835850
H        0.4311863624   -3.5016489534   -0.2001570279
H        4.6956591066    0.0626338680   -1.4730695595
H        3.0565175033   -0.6041232926   -1.5060823617
H        4.4520689798   -1.7063457917   -1.5949669977
H        5.3780983459   -1.0040702259    1.9769225890
H        6.0423490805   -0.1288930752    0.5795115358
H        5.9286713725   -1.9089944383    0.5396639448
26   
torsion grid (-15,)
C       -0.8551978124    0.6947380262    0.7002130208
C        0.4057354256    1.2919011439    0.6536026107
C       -0.9686228525   -0.6965308570    0.7679282442
C        1.5471997480    0.4876178360    0.6670159053
C        0.1562729873   -1.5336832887    0.7785211536
C        1.4158090963   -0.9025419534    0.7145520147
C       -0.0212560473   -3.0310519682    0.8735515021
C        4.2232716931   -0.6719351647   -1.1563460899
C        5.3977131662   -1.0251487599    0.9862635859
N        4.1088079236   -0.8348072616    0.3010989985
O        3.1645860256   -2.3131557104    2.1528792309
O        2.7547384575   -2.9818718421   -0.2600987397
S        2.8974430376   -1.9328761788    0.7609330816
H       -1.7517031259    1.3091553214    0.6919079417
H        0.5059711103    2.3729150747    0.6129798168
H       -1.9547185928   -1.1515155119    0.8184894187
H        2.5377359940    0.9274124897    0.6463074795
H       -1.0739363556   -3.2754905591    1.0339516881
H        0.5590263924   -3.4485885684    1.7017157383
H        0.3245260969   -3.5267290737   -0.0367720869
H        4.8552575282    0.2003728997   -1.3462213794
H        3.2401496706   -0.4832832532   -1.5919691445
H        4.6589164027   -1.5537579193   -1.6418951066
H        5.2306238904   -1.1337015269    2.0569069021
H        5.9982587735   -0.1287474496    0.8070933999
H        5.9451602135   -1.9019223243    0.6144935194
26   
torsion grid (0,)
C       -0.8851433861    0.6869585828    0.7719312299
C        0.3620386427    1.2790831870    0.5689919481
C       -0.9862464415   -0.6995072035    0.9217506345
C        1.5042475280    0.4758120003    0.5167571371
C        0.1381580357   -1.5341130175    0.8671100621
C        1.3855077026   -0.9072016180    0.6650172874
C       -0.0162531750   -3.0282807787    1.0257173536
C        4.3702972592   -0.5884678253   -1.1461573298
C        5.2957059066   -0.9986570144    1.1101488060
N        4.0941045978   -0.8404088308    0.2765522180
O        3.0898463041   -2.5511947410    1.8784510759
O        2.6886016050   -2.8260942392   -0.6156352220
S        2.8512327673   -1.9557874721    0.5579496101
H       -1.7808424635    1.3009168908    0.8172313709
H        0.4525787233    2.3559122274    0.4568413323
H       -1.9617621835   -1.1513452681    1.0837426004
H        2.4854737262    0.9166838121    0.3848271671
H       -1.0629819243   -3.2849982974    1.2040298394
H        0.5818132163   -3.3989988934    1.8631042163
H        0.3262388591   -3.5539969394    0.1299949797
H        4.9704258793    0.3238099446   -1.2134729953
H        3.4381130445   -0.4294868460   -1.6902254369
H        4.9113687193   -1.4175271923   -1.6184465848
H        5.0066344102   -1.1783841635    2.1442258743
H        5.8602690446   -0.0633339480    1.0535470816
H        5.9344304908   -1.8238645473    0.7678923417
26   
torsion grid (15,)
C       -0.7222686452    0.7604820742    1.2563526093
C        0.4585528786    1.3445990063    0.7946528333
C       -0.8342599167   -0.6309020020    1.3243311570
C        1.5244935603    0.5283066316    0.4106733252
C        0.2174883951   -1.4799807838    0.9512840950
C        1.4027290846   -0.8604508461    0.5038444991
C        0.0373007858   -2.9782316136    1.0251628166
C        5.0044433695   -1.0502367364   -1.2132180105
C        4.7000434479   -0.5427427483    1.1828918049
N        4.0564630523   -0.7962541757   -0.1156370805
O        3.0341286970   -2.8894865040    1.0418172263
O        2.5118419772   -2.3791034089   -1.3878746827
S        2.7748129137   -1.9085709543   -0.0228592168
H       -1.5600646539    1.3843765206    1.5566229844
H        0.5525870289    2.4247593293    0.7261565695
H       -1.7627777004   -1.0767606199    1.6721757489
H        2.4464717902    0.9572366997    0.0352674906
H       -0.9961015862   -3.2204228495    1.2840767740
H        0.7036311782   -3.4183550118    1.7709961783
H        0.2731442362   -3.4548731530    0.0690607330
H        5.6162790888   -0.1512983624   -1.3308593144
H        4.4555733930   -1.2307834672   -2.1363240762
H        5.6623459974   -1.9059720375   -1.0095051074
H        3.9454872203   -0.3178791676    1.9391135415
H        5.3444123772    0.3339278111    1.0703776080
H        5.2974203151   -1.3962473301    1.5260731597
26   
torsion grid (30,)
C       -0.6493462056    0.7933307605    1.2318799331
C        0.4711358634    1.3649515943    0.6243534366
C       -0.7290445810   -0.5918466731    1.3882464964
C        1.5079056074    0.5404363031    0.1879414357
C        0.2961909398   -1.4515997842    0.9623226109
C        1.4246607063   -0.8435666884    0.3753354009
C        0.1273766460   -2.9436732665    1.1345198407
C        5.1241774647   -1.0298934523   -1.1777316107
C        4.6011632561   -0.6620567944    1.2025569854
N        4.0804067911   -0.7880973524   -0.1670936348
O        2.9692098387   -3.0075531171    0.6219089969
O        2.5312824859   -2.1034629162   -1.7059014410
S        2.7647430610   -1.8623682101   -0.2778558069
H       -1.4653248723    1.4228124892    1.5772272032
H        0.5391551260    2.4403107107    0.4859264755
H       -1.6126443524   -1.0276645406    1.8477177951
H        2.3883156165    0.9588643922   -0.2868149746
H       -0.8776710279   -3.1630769564    1.5028803950
H        0.8605797360   -3.3482792725    1.8354908505
H        0.2722230339   -3.4767731109    0.1908185566
H        5.7954133542   -0.1666100194   -1.1668801718
H        4.6657074143   -1.1112827270   -2.1625409660
H        5.7072523418   -1.9378430443   -0.9710766512
H        3.7849909511   -0.4433315808    1.8944528848
H        5.2970945005    0.1813577931    1.2193819815
H        5.1166595896   -1.5704355709    1.5386715429
26   
torsion grid (45,)
C       -0.6159472896    0.8098719408    1.2289898901
C        0.4166806789    1.3737556725    0.4738039172
C       -0.6351771878   -0.5638508431    1.4707278200
C        1.4231451667    0.5498241015   -0.0243207414
C        0.3640773761   -1.4257225877    0.9846215963
C        1.3995940586   -0.8254033010    0.2410765251
C        0.2542238983   -2.9047595932    1.2788685390
C        5.1979072074   -0.9966169544   -1.0773150545
C        4.4446894442   -0.8270405567    1.2594440288
N        4.0645277044   -0.7862271255   -0.1600802247
O        2.8553462731   -3.0777572042    0.1831214453
O        2.5716436576   -1.7683545278   -1.9689154234
S        2.7291326488   -1.7879519137   -0.5108977893
H       -1.4091300130    1.4380313175    1.6260427232
H        0.4383159096    2.4409108997    0.2719498727
H       -1.4488312547   -0.9917019472    2.0508292160
H        2.2375482747    0.9638473151   -0.6087400085
H       -0.6798220977   -3.1049595574    1.8095538026
H        1.0901019687   -3.2552866516    1.8880266893
H        0.2696214639   -3.5023450006    0.3643905076
H        5.9046797077   -0.1777113603   -0.9171496943
H        4.8427514489   -0.9619121473   -2.1068319982
H        5.7118864589   -1.9514625252   -0.8997530831
H        3.5716449250   -0.6260205543    1.8846463144
H        5.1757524105   -0.0327218932    1.4334472524
H        4.8776638220   -1.7930073398    1.5500483143
26   
torsion grid (60,)
C       -0.6165083179    0.8254430810    1.2342657548
C        0.3065180898    1.3851039265    0.3448766641
C       -0.5411549328   -0.5280884556    1.5617125558
C        1.2963378224    0.5743981345   -0.2035801806
C        0.4470159242   -1.3764908906    1.0291734953
C        1.3638742238   -0.7821264552    0.1402633907
C        0.4505633506   -2.8318341006    1.4401369830
C        5.2401367972   -0.9951483631   -0.9351362717
C        4.2902030345   -1.0301479611    1.3324897265
N        4.0414400186   -0.8075937079   -0.0986502829
O        2.7289418774   -3.0751432426   -0.1869850824
O        2.6328967563   -1.4314921667   -2.1153121862
S        2.6948452877   -1.6885107648   -0.6729776087
H       -1.3970827856    1.4424695504    1.6717603347
H        0.2547020839    2.4370472236    0.0791092243
H       -1.2677818117   -0.9506143353    2.2509107075
H        2.0233426951    0.9830525452   -0.8975288849
H       -0.3753033471   -3.0193195780    2.1307627834
H        1.3868821319   -3.1125601901    1.9279419852
H        0.3455125709   -3.4945996996    0.5786923399
H        5.9746573424   -0.2458531303   -0.6274665071
H        4.9814355201   -0.8278008151   -1.9804522443
H        5.6811785956   -1.9953198782   -0.8223836099
H        3.3810853449   -0.8260055702    1.9033557527
H        5.0560818969   -0.3191670065    1.6539133815
H        4.6290726189   -2.0523888878    1.5474140307
26   
torsion grid (75,)
C       -0.6523258532    0.8349052120    1.2145478479
C        0.1555989006    1.3954615532    0.2206856417
C       -0.4596716775   -0.4875178017    1.6153967688
C        1.1551172561    0.6165073484   -0.3567338234
C        0.5392863334   -1.3024199542    1.0532049408
C        1.3436231326   -0.7068407264    0.0607692526
C        0.6649287046   -2.7306792883    1.5346722961
C        5.2730984148   -1.0293921798   -0.8183662164
C        4.1809807585   -1.2408906692    1.3721346914
N        4.0360094039   -0.8512005846   -0.0362371977
O        2.6114377641   -3.0073885339   -0.4970817048
O        2.7178463653   -1.1166776396   -2.1843243884
S        2.6799932174   -1.5687444166   -0.7897726866
H       -1.4381903771    1.4267773636    1.6765960964
H        0.0083036690    2.4217963606   -0.1031452720
H       -1.1014302919   -0.9107948585    2.3838695818
H        1.7916033590    1.0204359524   -1.1371157871
H       -0.0618048660   -2.9147397863    2.3297389214
H        1.6635772728   -2.9500468362    1.9200177218
H        0.4896930932   -3.4401594756    0.7236521522
H        6.0308502813   -0.3696411862   -0.3870398145
H        5.0937796857   -0.7324447880   -1.8513801878
H        5.6428117789   -2.0639444873   -0.7927144811
H        3.2630549384   -1.0111917280    1.9177360140
H        4.9846159574   -0.6383396536    1.8037783923
H        4.4214445353   -2.3057930605    1.4944793102
26   
torsion grid (90,)
C       -0.6909013177    0.9072187192    0.6961878737
C        0.1394030195    1.2123896767   -0.3844417516
C       -0.5149927763   -0.2860576094    1.4012348688
C        1.1345382071    0.3079116800   -0.7553502046
C        0.4842953510   -1.2120350100    1.0632145901
C        1.2820601746   -0.8950560431   -0.0555015904
C        0.6601235356   -2.4515353939    1.9080440795
C        4.4141315287   -0.0188348861    0.1001344510
C        4.9829014778   -2.3351127184    0.6835485059
N        3.9079256409   -1.3467832525    0.4735631874
O        2.4394065337   -3.3251970761   -0.1836161459
O        2.9834428865   -1.5875446107   -1.9522365484
S        2.6707584728   -1.9274374251   -0.5555274585
H       -1.4737905858    1.5990401629    0.9960486180
H        0.0151262396    2.1398063378   -0.9361599337
H       -1.1602242319   -0.5052683197    2.2482209599
H        1.7700872812    0.5024961416   -1.6129821134
H       -0.0341461678   -2.4282561277    2.7514855344
H        1.6796601006   -2.5194564380    2.2983983535
H        0.4873265712   -3.3600234070    1.3280497010
H        5.1204951609    0.2926139857    0.8741025069
H        3.5972528398    0.7043284194    0.0840695000
H        4.9187954361   -0.0197555527   -0.8746063653
H        4.5470767114   -3.2979743174    0.9473732785
H        5.5940542631   -1.9812728501    1.5182169361
H        5.6221787159   -2.4557874148   -0.2021176216
26   
torsion grid (105,)
C       -0.7487032529    0.8917958469    0.6458704762
C       -0.0105405317    1.1714023518   -0.5062000198
C       -0.4514057493   -0.2363361589    1.4160740265
C        1.0204276128    0.3087503882   -0.8818125611
C        0.5802459929   -1.1211599543    1.0693224600
C        1.2945012903   -0.8234597287   -0.1091399008
C        0.8860984752   -2.3041681546    1.9551343530
C        4.3863939612   -0.0664955915    0.3192018074
C        4.9081884637   -2.4462959421    0.6492343287
N        3.8553275013   -1.4244292746    0.5058582787
O        2.3717653863   -3.2652613461   -0.4406860672
O        3.0709139388   -1.3794530216   -1.9880318356
S        2.6715582943   -1.8461410464   -0.6514768196
H       -1.5552000236    1.5536412977    0.9508588949
H       -0.2320088415    2.0482631452   -1.1078823752
H       -1.0281099736   -0.4366156559    2.3156288160
H        1.6047622504    0.4890489141   -1.7782100682
H        0.2482225055   -2.2859192236    2.8420315280
H        1.9323032557   -2.2876352023    2.2752596233
H        0.7334378471   -3.2460784039    1.4238168626
H        5.0102369342    0.1673128691    1.1861003153
H        3.5671386638    0.6544873634    0.2896583119
H        4.9837804681    0.0281917071   -0.5967637444
H        4.4490921861   -3.4271214357    0.7695693079
H        5.4764362381   -2.2069433026    1.5522597311
H        5.5935863956   -2.4676201149   -0.2093917025
26   
torsion grid (120,)
C       -0.8311887731    0.8423359258    0.5895233817
C       -0.1716383849    1.0921507382   -0.6156867948
C       -0.4130069130   -0.2057851562    1.4148747624
C        0.9107955602    0.2904360617   -0.9823140202
C        0.6658116858   -1.0350861975    1.0753681762
C        1.3217443732   -0.7451423844   -0.1388739752
C        1.0644756391   -2.1672786635    1.9897406979
C        4.4156028144   -0.1485789921    0.4749271637
C        4.8449695772   -2.5694911670    0.5929961760
N        3.8360552171   -1.4995355849    0.5060389244
O        2.3277744578   -3.1756121083   -0.6653106906
O        3.1510224062   -1.1818709181   -2.0022785309
S        2.6884563564   -1.7551941188   -0.7295498625
H       -1.6745730321    1.4593736156    0.8887656646
H       -0.4945327183    1.8995318789   -1.2666644784
H       -0.9396782924   -0.3942411654    2.3470750471
H        1.4451858142    0.4567248814   -1.9119371277
H        0.4217170334   -2.1860905179    2.8729889292
H        2.1049468842   -2.0604489026    2.3089398552
H        0.9886457863   -3.1281168370    1.4741585085
H        4.9854912544   -0.0084424643    1.3975639647
H        3.6182414597    0.5975193095    0.4531684135
H        5.0748373543    0.0058438835   -0.3889661801
H        4.3464607800   -3.5383633201    0.6031199150
H        5.3829116694   -2.4365862210    1.5357816684
H        5.5649796153   -2.5381307070   -0.2364098595
26   
torsion grid (135,)
C       -0.9292984705    0.7829782733    0.5548701415
C       -0.3361691962    0.9901465474   -0.6920545210
C       -0.4021899481   -0.1668318845    1.4343895203
C        0.7978146311    0.2546083263   -1.0392615082
C        0.7272640125   -0.9336563519    1.1114171112
C        1.3357566348   -0.6637910711   -0.1326300550
C        1.2052418084   -1.9944892153    2.0738298970
C        4.4442411465   -0.2604818444    0.6561147453
C        4.7459069383   -2.7049100326    0.5794341613
N        3.8016602063   -1.5770247364    0.5332941396
O        2.2842633251   -3.0613285225   -0.8481380516
O        3.2304447901   -0.9829069387   -1.9551500638
S        2.7011205822   -1.6563930501   -0.7603207108
H       -1.8114466135    1.3498289891    0.8411557725
H       -0.7508387227    1.7112382483   -1.3906019906
H       -0.8889646128   -0.3365096310    2.3916215251
H        1.2875922998    0.3987144914   -1.9968393040
H        0.4793658377   -2.1226907416    2.8805605576
H        2.1726135267   -1.7283140054    2.5070080601
H        1.3370796547   -2.9531795450    1.5656487471
H        4.9615471027   -0.2276488858    1.6190949115
H        3.6849357441    0.5251029388    0.6517769425
H        5.1621764135   -0.0660634143   -0.1510240252
H        4.1983075339   -3.6412916089    0.4769372375
H        5.2340201733   -2.6834109905    1.5579325683
H        5.5140698880   -2.6440522838   -0.2038447324
26   
torsion grid (150,)
C       -1.0398933741    0.7177120243    0.5411911527
C       -0.5122186001    0.8712533897   -0.7422943876
C       -0.4059517870   -0.1199844779    1.4613914650
C        0.6660532623    0.2054891782   -1.0777955570
C        0.7686259999   -0.8231220224    1.1487154376
C        1.3217076015   -0.5876587879   -0.1281985460
C        1.3227330530   -1.7941763927    2.1662360140
C        4.4437423039   -0.3994897681    0.8223386449
C        4.6363130734   -2.8333339727    0.4769897765
N        3.7501549761   -1.6596145851    0.5195932673
O        2.2429297445   -2.9024979141   -1.0811522526
O        3.2926467525   -0.7392624502   -1.8911519946
S        2.7006470483   -1.5347121938   -0.8055198480
H       -1.9545997189    1.2328500344    0.8227702526
H       -1.0105828277    1.4968385180   -1.4772111317
H       -0.8462043358   -0.2595165614    2.4455986955
H        1.1069183693    0.3225502033   -2.0626153359
H        0.5959946301   -1.9365296478    2.9702177064
H        2.2578797776   -1.4364023773    2.6033013411
H        1.5334778520   -2.7657817686    1.7136065116
H        4.9177513095   -0.5024960951    1.8026489496
H        3.7212769233    0.4185896086    0.8777047096
H        5.2053921720   -0.1481781632    0.0731944994
H        4.0520847929   -3.7212798747    0.2378891592
H        5.0711271680   -2.9505982007    1.4737856352
H        5.4474065987   -2.7221182640   -0.2556459812
26   
torsion grid (165,)
C       -1.1319622370    0.5918458385    0.4728171664
C       -0.6349442307    0.7024992226   -0.8274626137
C       -0.4072244899   -0.1116906981    1.4349188479
C        0.5976706934    0.1311951199   -1.1336656509
C        0.8282400868   -0.7224622837    1.1545320537
C        1.3416530975   -0.5305783167   -0.1455656654
C        1.4677614892   -1.5488146784    2.2494619386
C        4.5207311894   -0.5402783380    0.9866951172
C        4.5608337226   -2.9300983342    0.3707989931
N        3.7640411093   -1.6995395774    0.4927534827
O        2.3776689697   -2.6347841393   -1.3994648280
O        3.4546186683   -0.3623813735   -1.7279482335
S        2.8004646838   -1.3413646982   -0.8478716331
H       -2.0884053287    1.0361233063    0.7355233638
H       -1.1975566446    1.2234804546   -1.5967771656
H       -0.8188733618   -0.2182839116    2.4353483133
H        1.0090599115    0.2261542400   -2.1337249203
H        0.7693238675   -1.6435476856    3.0849015230
H        2.3862267134   -1.0944710024    2.6279553494
H        1.7263959853   -2.5498056888    1.8998623543
H        4.9122800684   -0.7883722165    1.9774874223
H        3.8597478545    0.3241151638    1.0859148244
H        5.3511401839   -0.2691274829    0.3228740730
H        3.9291940544   -3.7394696107    0.0073748174
H        4.9257492925   -3.1813803935    1.3709702404
H        5.4200617220   -2.8097601206   -0.3028953520
26   
torsion grid (180,)
C       -1.3421706645    0.2450523638    0.5159120768
C       -0.8701938757    0.4125601842   -0.7884207293
C       -0.5068423770   -0.2995981333    1.4901565647
C        0.4335030016    0.0311102000   -1.0929747085
C        0.8156688059   -0.6966781751    1.2174979461
C        1.2658885583   -0.5148255129   -0.1040785282
C        1.6231052174   -1.2755768852    2.3604945266
C        4.8537522855   -0.7211619345    1.0672873843
C        4.0697811390   -3.0014856975    0.4732445816
N        3.8100919979   -1.5595554272    0.4719573829
O        2.6881156733   -1.9820946789   -1.7671198436
O        3.5111951179    0.3542300102   -1.1730563940
S        2.9027969127   -0.9210717001   -0.7761791694
H       -2.3565312125    0.5362996765    0.7753750268
H       -1.5065532355    0.8345737530   -1.5610431169
H       -0.8843928219   -0.4264217442    2.5016637473
H        0.8123399453    0.1563050528   -2.1026791846
H        1.0067940571   -1.3003260516    3.2628339578
H        2.5118284184   -0.6793386380    2.5785186732
H        1.9566717856   -2.2945112390    2.1540196600
H        4.9908915049   -1.0309629241    2.1088850331
H        4.5551765726    0.3261926040    1.0458005727
H        5.8082848528   -0.8209545009    0.5350421535
H        3.2280746766   -3.5370199474    0.0360815201
H        4.1987835566   -3.3264106872    1.5113134893
H        4.9743399592   -3.2521382724   -0.0954407909
