
  -OEChem-05262117483D

 41 43  0     0  0  0  0  0  0999 V2000
   -4.5702    4.4286   -2.0711 C   0  0  0  0  0  0  0  0  0  0  0  0
   -4.3229    4.8828   -3.3678 C   0  0  0  0  0  0  0  0  0  0  0  0
   -1.8791    1.2135   -1.0837 C   0  0  0  0  0  0  0  0  0  0  0  0
   -0.8976    1.6097   -0.1790 C   0  0  0  0  0  0  0  0  0  0  0  0
   -1.2558    3.5035   -3.9612 C   0  0  0  0  0  0  0  0  0  0  0  0
   -0.0613    3.2419   -1.7767 C   0  0  0  0  0  0  0  0  0  0  0  0
   -2.4064    6.0872   -2.5309 C   0  0  0  0  0  0  0  0  0  0  0  0
   -1.0548    2.8521   -2.6947 C   0  0  0  0  0  0  0  0  0  0  0  0
   -2.3135    3.1925   -4.7534 C   0  0  0  0  0  0  0  0  0  0  0  0
   -3.7504    4.7876   -0.9916 C   0  0  0  0  0  0  0  0  0  0  0  0
   -2.6640    5.6565   -1.2239 C   0  0  0  0  0  0  0  0  0  0  0  0
   -3.2083    5.6910   -3.6053 C   0  0  0  0  0  0  0  0  0  0  0  0
   -1.9580    1.8398   -2.3291 C   0  0  0  0  0  0  0  0  0  0  0  0
    0.0007    2.6274   -0.5352 C   0  0  0  0  0  0  0  0  0  0  0  0
   -3.2298    2.1082   -4.3652 C   0  0  0  0  0  0  0  0  0  0  0  0
   -2.6439    3.9704   -5.9826 C   0  0  0  0  0  0  0  0  0  0  0  0
   -4.0114    4.2300    0.3867 C   0  0  0  0  0  0  0  0  0  0  0  0
   -1.7488    6.0681   -0.0964 C   0  0  0  0  0  0  0  0  0  0  0  0
   -2.7022    3.2167   -7.2889 C   0  0  0  0  0  0  0  0  0  0  0  0
   -2.8550    5.2448   -6.0334 N   0  0  0  0  0  0  0  0  0  0  0  0
   -2.8011    6.0733   -4.9319 N   0  0  0  0  0  0  0  0  0  0  0  0
   -4.2103    1.7514   -4.9848 O   0  0  0  0  0  0  0  0  0  0  0  0
   -2.9538    1.4436   -3.1739 O   0  0  0  0  0  0  0  0  0  0  0  0
    1.3133    3.2020    0.7381 Br  0  0  0  0  0  0  0  0  0  0  0  0
   -5.4139    3.7644   -1.8987 H   0  0  0  0  0  0  0  0  0  0  0  0
   -4.9549    4.5643   -4.1913 H   0  0  0  0  0  0  0  0  0  0  0  0
   -2.5952    0.4373   -0.8326 H   0  0  0  0  0  0  0  0  0  0  0  0
   -0.8329    1.1411    0.7973 H   0  0  0  0  0  0  0  0  0  0  0  0
   -0.5915    4.3152   -4.2455 H   0  0  0  0  0  0  0  0  0  0  0  0
    0.6263    4.0402   -2.0373 H   0  0  0  0  0  0  0  0  0  0  0  0
   -1.5348    6.7046   -2.7362 H   0  0  0  0  0  0  0  0  0  0  0  0
   -3.1585    3.6394    0.7411 H   0  0  0  0  0  0  0  0  0  0  0  0
   -4.1770    5.0256    1.1225 H   0  0  0  0  0  0  0  0  0  0  0  0
   -4.8909    3.5812    0.3893 H   0  0  0  0  0  0  0  0  0  0  0  0
   -2.2960    6.5995    0.6910 H   0  0  0  0  0  0  0  0  0  0  0  0
   -1.2773    5.1988    0.3749 H   0  0  0  0  0  0  0  0  0  0  0  0
   -0.9520    6.7262   -0.4525 H   0  0  0  0  0  0  0  0  0  0  0  0
   -3.4904    2.4590   -7.2612 H   0  0  0  0  0  0  0  0  0  0  0  0
   -2.8967    3.9145   -8.1056 H   0  0  0  0  0  0  0  0  0  0  0  0
   -1.7538    2.6984   -7.4774 H   0  0  0  0  0  0  0  0  0  0  0  0
   -3.1323    6.9893   -5.2111 H   0  0  0  0  0  0  0  0  0  0  0  0
  1  2  1  0  0  0  0
  1 10  2  0  0  0  0
  1 25  1  0  0  0  0
  2 12  2  0  0  0  0
  2 26  1  0  0  0  0
  3  4  2  0  0  0  0
  3 13  1  0  0  0  0
  3 27  1  0  0  0  0
  4 14  1  0  0  0  0
  4 28  1  0  0  0  0
  5  8  1  0  0  0  0
  5  9  2  0  0  0  0
  5 29  1  0  0  0  0
  6  8  1  0  0  0  0
  6 14  2  0  0  0  0
  6 30  1  0  0  0  0
  7 11  2  0  0  0  0
  7 12  1  0  0  0  0
  7 31  1  0  0  0  0
  8 13  2  0  0  0  0
  9 15  1  0  0  0  0
  9 16  1  0  0  0  0
 10 11  1  0  0  0  0
 10 17  1  0  0  0  0
 11 18  1  0  0  0  0
 12 21  1  0  0  0  0
 13 23  1  0  0  0  0
 14 24  1  0  0  0  0
 15 22  2  0  0  0  0
 15 23  1  0  0  0  0
 16 19  1  0  0  0  0
 16 20  2  0  0  0  0
 17 32  1  0  0  0  0
 17 33  1  0  0  0  0
 17 34  1  0  0  0  0
 18 35  1  0  0  0  0
 18 36  1  0  0  0  0
 18 37  1  0  0  0  0
 19 38  1  0  0  0  0
 19 39  1  0  0  0  0
 19 40  1  0  0  0  0
 20 21  1  0  0  0  0
 21 41  1  0  0  0  0
M  END
$$$$
