
  -OEChem-05262117483D

 41 43  0     0  0  0  0  0  0999 V2000
   -7.8431    4.6995   -7.7978 C   0  0  0  0  0  0  0  0  0  0  0  0
   -6.5510    4.4333   -7.3432 C   0  0  0  0  0  0  0  0  0  0  0  0
   -0.6104    1.2160   -1.1800 C   0  0  0  0  0  0  0  0  0  0  0  0
    0.6778    1.5610   -0.7776 C   0  0  0  0  0  0  0  0  0  0  0  0
   -0.9840    3.1528   -4.3411 C   0  0  0  0  0  0  0  0  0  0  0  0
    0.9312    2.9872   -2.7340 C   0  0  0  0  0  0  0  0  0  0  0  0
   -7.5177    3.2176   -5.4853 C   0  0  0  0  0  0  0  0  0  0  0  0
   -0.3740    2.6456   -3.1496 C   0  0  0  0  0  0  0  0  0  0  0  0
   -2.2652    2.8306   -4.7251 C   0  0  0  0  0  0  0  0  0  0  0  0
   -8.9839    4.2441   -7.1244 C   0  0  0  0  0  0  0  0  0  0  0  0
   -8.8091    3.4879   -5.9444 C   0  0  0  0  0  0  0  0  0  0  0  0
   -6.3849    3.6818   -6.1735 C   0  0  0  0  0  0  0  0  0  0  0  0
   -1.1227    1.7618   -2.3573 C   0  0  0  0  0  0  0  0  0  0  0  0
    1.4367    2.4454   -1.5625 C   0  0  0  0  0  0  0  0  0  0  0  0
   -2.9995    1.8632   -3.8843 C   0  0  0  0  0  0  0  0  0  0  0  0
   -2.8047    3.3904   -5.9889 C   0  0  0  0  0  0  0  0  0  0  0  0
  -10.3652    4.5560   -7.6507 C   0  0  0  0  0  0  0  0  0  0  0  0
  -10.0045    2.9673   -5.1807 C   0  0  0  0  0  0  0  0  0  0  0  0
   -1.7746    3.8642   -7.0009 C   0  0  0  0  0  0  0  0  0  0  0  0
   -4.0307    3.6354   -6.3599 N   0  0  0  0  0  0  0  0  0  0  0  0
   -5.1209    3.3914   -5.6361 N   0  0  0  0  0  0  0  0  0  0  0  0
   -4.1046    1.3944   -4.1066 O   0  0  0  0  0  0  0  0  0  0  0  0
   -2.3856    1.4055   -2.7341 O   0  0  0  0  0  0  0  0  0  0  0  0
    3.2079    2.9063   -0.9978 Br  0  0  0  0  0  0  0  0  0  0  0  0
   -7.9664    5.2824   -8.7084 H   0  0  0  0  0  0  0  0  0  0  0  0
   -5.6800    4.7922   -7.8787 H   0  0  0  0  0  0  0  0  0  0  0  0
   -1.2201    0.5339   -0.5959 H   0  0  0  0  0  0  0  0  0  0  0  0
    1.0933    1.1489    0.1358 H   0  0  0  0  0  0  0  0  0  0  0  0
   -0.3943    3.8273   -4.9517 H   0  0  0  0  0  0  0  0  0  0  0  0
    1.5264    3.6691   -3.3334 H   0  0  0  0  0  0  0  0  0  0  0  0
   -7.3835    2.6310   -4.5781 H   0  0  0  0  0  0  0  0  0  0  0  0
  -10.9335    3.6434   -7.8680 H   0  0  0  0  0  0  0  0  0  0  0  0
  -10.9559    5.1316   -6.9274 H   0  0  0  0  0  0  0  0  0  0  0  0
  -10.3106    5.1401   -8.5735 H   0  0  0  0  0  0  0  0  0  0  0  0
  -10.6600    3.7844   -4.8569 H   0  0  0  0  0  0  0  0  0  0  0  0
  -10.6143    2.2985   -5.7996 H   0  0  0  0  0  0  0  0  0  0  0  0
   -9.6970    2.4117   -4.2910 H   0  0  0  0  0  0  0  0  0  0  0  0
   -1.0026    3.1084   -7.1841 H   0  0  0  0  0  0  0  0  0  0  0  0
   -2.2841    4.0822   -7.9397 H   0  0  0  0  0  0  0  0  0  0  0  0
   -1.2689    4.7846   -6.6801 H   0  0  0  0  0  0  0  0  0  0  0  0
   -5.0715    2.6961   -4.8891 H   0  0  0  0  0  0  0  0  0  0  0  0
  1  2  1  0  0  0  0
  1 10  2  0  0  0  0
  1 25  1  0  0  0  0
  2 12  2  0  0  0  0
  2 26  1  0  0  0  0
  3  4  2  0  0  0  0
  3 13  1  0  0  0  0
  3 27  1  0  0  0  0
  4 14  1  0  0  0  0
  4 28  1  0  0  0  0
  5  8  1  0  0  0  0
  5  9  2  0  0  0  0
  5 29  1  0  0  0  0
  6  8  1  0  0  0  0
  6 14  2  0  0  0  0
  6 30  1  0  0  0  0
  7 11  2  0  0  0  0
  7 12  1  0  0  0  0
  7 31  1  0  0  0  0
  8 13  2  0  0  0  0
  9 15  1  0  0  0  0
  9 16  1  0  0  0  0
 10 11  1  0  0  0  0
 10 17  1  0  0  0  0
 11 18  1  0  0  0  0
 12 21  1  0  0  0  0
 13 23  1  0  0  0  0
 14 24  1  0  0  0  0
 15 22  2  0  0  0  0
 15 23  1  0  0  0  0
 16 19  1  0  0  0  0
 16 20  2  0  0  0  0
 17 32  1  0  0  0  0
 17 33  1  0  0  0  0
 17 34  1  0  0  0  0
 18 35  1  0  0  0  0
 18 36  1  0  0  0  0
 18 37  1  0  0  0  0
 19 38  1  0  0  0  0
 19 39  1  0  0  0  0
 19 40  1  0  0  0  0
 20 21  1  0  0  0  0
 21 41  1  0  0  0  0
M  END
$$$$
