16
0 1 BrC7H5O2S
C                     1.795341046670    -1.206932120625    -0.074926576975
C                     0.748805036316    -0.555431671214     0.565017986266
C                     1.840012705099    -0.995745713969     2.701193501658
C                     2.871971142742    -1.759895381239     0.641932417432
C                     2.901987259488    -1.656542409944     2.055128035582
C                     0.792227947654    -0.461320457105     1.959557821694
C                     3.963105419938    -2.444180761316    -0.082324088080
O                     4.938344829063    -2.955343197495     0.444980528486
O                     3.792420940502    -2.463443531465    -1.433744198961
S                     4.236528670556    -2.336350596270     3.009470575331
Br                   -0.630274437102     0.428485984869     2.880537643348
H                     1.791830336885    -1.297017841358    -1.155250038929
H                    -0.076627929333    -0.132427978123     0.003439434907
H                     1.829929720193    -0.898057468295     3.781585216889
H                     4.568102305253    -2.936632401510    -1.790073569090
H                     3.713582495082    -1.936577041879     4.191885899911
