
  -OEChem-05262117483D

 37 39  0     0  0  0  0  0  0999 V2000
    2.8789    0.5463    0.3167 C   0  0  0  0  0  0  0  0  0  0  0  0
   -1.5097    4.4790    2.0086 C   0  0  0  0  0  0  0  0  0  0  0  0
   -2.7757    4.0412    2.4137 C   0  0  0  0  0  0  0  0  0  0  0  0
   -0.6617    3.5943    1.3494 C   0  0  0  0  0  0  0  0  0  0  0  0
   -3.1710    2.7241    2.1671 C   0  0  0  0  0  0  0  0  0  0  0  0
    2.1855   -0.3947   -0.4967 C   0  0  0  0  0  0  0  0  0  0  0  0
   -1.0350    2.2575    1.0893 C   0  0  0  0  0  0  0  0  0  0  0  0
    2.8652   -1.3885   -1.2896 C   0  0  0  0  0  0  0  0  0  0  0  0
   -2.3167    1.8255    1.5216 C   0  0  0  0  0  0  0  0  0  0  0  0
    1.9941   -2.2200   -1.9427 C   0  0  0  0  0  0  0  0  0  0  0  0
    0.7941   -0.4937   -0.5594 C   0  0  0  0  0  0  0  0  0  0  0  0
   -0.0731    1.4493    0.3469 C   0  0  0  0  0  0  0  0  0  0  0  0
    4.3620   -1.5208   -1.4157 C   0  0  0  0  0  0  0  0  0  0  0  0
    2.3937   -3.3440   -2.8589 C   0  0  0  0  0  0  0  0  0  0  0  0
    4.7492   -2.8704   -2.0415 C   0  0  0  0  0  0  0  0  0  0  0  0
    3.8725   -3.1967   -3.2590 C   0  0  0  0  0  0  0  0  0  0  0  0
   -2.3386   -0.4477    2.1859 C   0  0  0  0  0  0  0  0  0  0  0  0
    3.4715    1.3068    0.9761 N   0  0  0  0  0  0  0  0  0  0  0  0
   -0.2088    0.1929    0.0819 N   0  0  0  0  0  0  0  0  0  0  0  0
   -2.7927    0.5644    1.2742 O   0  0  0  0  0  0  0  0  0  0  0  0
    0.3301   -1.8349   -1.5796 S   0  0  0  0  0  0  0  0  0  0  0  0
   -1.1925    5.5002    2.1990 H   0  0  0  0  0  0  0  0  0  0  0  0
   -3.4545    4.7224    2.9202 H   0  0  0  0  0  0  0  0  0  0  0  0
    0.3193    3.9312    1.0226 H   0  0  0  0  0  0  0  0  0  0  0  0
   -4.1527    2.3676    2.4658 H   0  0  0  0  0  0  0  0  0  0  0  0
    0.8052    2.0050   -0.0010 H   0  0  0  0  0  0  0  0  0  0  0  0
    4.7451   -0.6966   -2.0323 H   0  0  0  0  0  0  0  0  0  0  0  0
    4.8311   -1.4045   -0.4325 H   0  0  0  0  0  0  0  0  0  0  0  0
    2.2383   -4.3067   -2.3531 H   0  0  0  0  0  0  0  0  0  0  0  0
    1.7586   -3.3581   -3.7520 H   0  0  0  0  0  0  0  0  0  0  0  0
    5.8062   -2.8540   -2.3272 H   0  0  0  0  0  0  0  0  0  0  0  0
    4.6337   -3.6643   -1.2926 H   0  0  0  0  0  0  0  0  0  0  0  0
    4.2136   -4.1193   -3.7405 H   0  0  0  0  0  0  0  0  0  0  0  0
    3.9678   -2.3932   -3.9999 H   0  0  0  0  0  0  0  0  0  0  0  0
   -2.7669   -1.3868    1.8319 H   0  0  0  0  0  0  0  0  0  0  0  0
   -2.7001   -0.2327    3.1996 H   0  0  0  0  0  0  0  0  0  0  0  0
   -1.2484   -0.5247    2.1813 H   0  0  0  0  0  0  0  0  0  0  0  0
  1  6  1  0  0  0  0
  1 18  3  0  0  0  0
  2  3  1  0  0  0  0
  2  4  2  0  0  0  0
  2 22  1  0  0  0  0
  3  5  2  0  0  0  0
  3 23  1  0  0  0  0
  4  7  1  0  0  0  0
  4 24  1  0  0  0  0
  5  9  1  0  0  0  0
  5 25  1  0  0  0  0
  6  8  1  0  0  0  0
  6 11  2  0  0  0  0
  7  9  2  0  0  0  0
  7 12  1  0  0  0  0
  8 10  2  0  0  0  0
  8 13  1  0  0  0  0
  9 20  1  0  0  0  0
 10 14  1  0  0  0  0
 10 21  1  0  0  0  0
 11 19  1  0  0  0  0
 11 21  1  0  0  0  0
 12 19  2  0  0  0  0
 12 26  1  0  0  0  0
 13 15  1  0  0  0  0
 13 27  1  0  0  0  0
 13 28  1  0  0  0  0
 14 16  1  0  0  0  0
 14 29  1  0  0  0  0
 14 30  1  0  0  0  0
 15 16  1  0  0  0  0
 15 31  1  0  0  0  0
 15 32  1  0  0  0  0
 16 33  1  0  0  0  0
 16 34  1  0  0  0  0
 17 20  1  0  0  0  0
 17 35  1  0  0  0  0
 17 36  1  0  0  0  0
 17 37  1  0  0  0  0
M  END
$$$$
