
  -OEChem-05262117483D

 15 15  0     0  0  0  0  0  0999 V2000
   -0.1064    0.9544    1.3524 C   0  0  0  0  0  0  0  0  0  0  0  0
   -0.6814   -0.0509    0.4839 C   0  0  0  0  0  0  0  0  0  0  0  0
   -0.8615    1.1314    2.5241 C   0  0  0  0  0  0  0  0  0  0  0  0
   -0.1408   -0.4938   -0.8443 C   0  0  0  0  0  0  0  0  0  0  0  0
   -1.7832   -0.6107    0.9284 N   0  0  0  0  0  0  0  0  0  0  0  0
   -0.6248    1.9605    3.5576 N   0  0  0  0  0  0  0  0  0  0  0  0
    1.0719    1.7024    1.0840 N   0  3  0  0  0  0  0  0  0  0  0  0
    1.4366    2.5502    1.9352 O   0  5  0  0  0  0  0  0  0  0  0  0
    1.6909    1.4958    0.0313 O   0  0  0  0  0  0  0  0  0  0  0  0
   -2.2102    0.0397    2.4451 S   0  0  0  0  0  0  0  0  0  0  0  0
    0.8734   -0.8873   -0.7384 H   0  0  0  0  0  0  0  0  0  0  0  0
   -0.7981   -1.2645   -1.2503 H   0  0  0  0  0  0  0  0  0  0  0  0
   -0.0811    0.3481   -1.5389 H   0  0  0  0  0  0  0  0  0  0  0  0
    0.1696    2.5892    3.4757 H   0  0  0  0  0  0  0  0  0  0  0  0
   -1.2839    2.0571    4.3169 H   0  0  0  0  0  0  0  0  0  0  0  0
  1  2  1  0  0  0  0
  1  3  2  0  0  0  0
  1  7  1  0  0  0  0
  2  4  1  0  0  0  0
  2  5  2  0  0  0  0
  3  6  1  0  0  0  0
  3 10  1  0  0  0  0
  4 11  1  0  0  0  0
  4 12  1  0  0  0  0
  4 13  1  0  0  0  0
  5 10  1  0  0  0  0
  6 14  1  0  0  0  0
  6 15  1  0  0  0  0
  7  8  1  0  0  0  0
  7  9  2  0  0  0  0
M  CHG  2   7   1   8  -1
M  END
$$$$
