26
0 1 C10ClH13OS
C                     4.876969342723     2.958642188770     0.362892411107
C                     6.072704909670     3.568739326375     0.754229589568
C                     6.714878129192     1.565276190106     1.939316380627
C                     4.588647578706     1.640606836215     0.744528263141
C                     7.001358097219     2.878558621124     1.536861077843
C                     5.532139419127     0.954046094676     1.538346472982
C                     0.222108814788     1.352945294854    -1.435036873051
C                     1.833179365693    -0.610043685415    -1.400206471379
C                     2.485023028859     1.621731545494    -0.410596609502
C                     1.342422187969     0.642425806388    -0.663225026693
O                     3.460326431385     0.967689960659     0.411556685132
S                     8.506035786591     3.695200577443     2.087715805402
Cl                    5.197778010091    -0.691265222194     2.035649556926
H                     4.173513396334     3.516744739077    -0.243658037954
H                     6.282911052586     4.587679724171     0.444383240877
H                     7.412186031246     1.019653289459     2.566365540840
H                     0.572492037563     1.692367611854    -2.417444775969
H                    -0.155995170956     2.226049538782    -0.891282655889
H                    -0.619699465559     0.673857535674    -1.602672201648
H                     2.223273189379    -0.349440943375    -2.392157085146
H                     1.012954159977    -1.321823970336    -1.541123552649
H                     2.628999130123    -1.109732416644    -0.842075128540
H                     2.947463579491     1.924811104106    -1.360658825298
H                     2.118750413651     2.521233905705     0.101680146880
H                     0.955027977698     0.340239170819     0.317922407859
H                     9.351444451094     3.104054884450     1.213268139289
