37
0 1 C17H16N2OS
C                    -0.697943390966    -1.937522057125    -1.964501442822
C                     1.552143890316     4.178706773230    -0.604571712593
C                     1.906434610532     4.595659483670    -1.893666268245
C                     1.280603886139     2.833548458617    -0.374254856549
C                     1.993871952787     3.679480241252    -2.945409392936
C                    -0.263879783045    -2.200868895217    -0.634083481123
C                     1.360468903597     1.887316332220    -1.411392044630
C                    -0.505526492506    -3.463189645227     0.018882752119
C                     1.725734907332     2.323858823159    -2.710822299056
C                    -0.048818751436    -3.480505000907     1.310561756350
C                     0.375956002528    -1.267080900107     0.184750353661
C                     1.064005017930     0.478930723245    -1.177585534761
C                    -1.176334110035    -4.653428717280    -0.619410275506
C                    -0.143812024578    -4.654288905420     2.246284545054
C                    -1.591761075575    -5.689238051570     0.437542937498
C                    -0.468277417600    -5.933851571896     1.455020700068
C                     2.065201093124     1.751233999159    -5.016218436258
N                    -1.069305913052    -1.760036317006    -3.057655880479
N                     0.736222556940     0.044330323252    -0.003165908498
O                     1.793959195637     1.359936000979    -3.671918669336
S                     0.653563854234    -1.950819745960     1.770915724197
H                     1.486456493435     4.899207909166     0.205461206663
H                     2.117501693019     5.644226476160    -2.087616939224
H                     0.996900103471     2.478336213331     0.611471786537
H                     2.270918823732     4.027608110755    -3.933570372902
H                     1.143648982191    -0.184311930342    -2.040628087875
H                    -2.046239842857    -4.325327326477    -1.198866766713
H                    -0.486957018588    -5.109843003129    -1.342453758682
H                     0.791088428032    -4.780065443511     2.804368404822
H                    -0.927935004113    -4.469291838760     2.993227173927
H                    -2.483592054305    -5.330017230703     0.966763937582
H                    -1.870123174142    -6.626958240822    -0.054873941045
H                     0.432499079623    -6.269410620086     0.925984721504
H                    -0.748056578652    -6.732120003325     2.150709198147
H                     2.022370966097     0.833651198857    -5.603281696407
H                     3.062505075225     2.197893665144    -5.106662547549
H                     1.309068487054     2.454783657540    -5.383192428234
