24
0 1 C9H12N2O
C                     7.867279395525    -0.535184033483    -2.798966976613
C                     6.946049585265    -1.561107956469    -2.569296499948
C                     7.619299768379     0.730647346935    -2.257576705178
C                     5.789022992604    -1.349217976961    -1.814145755735
C                     6.469911695293     0.958654503208    -1.501965455080
C                     5.543634735675    -0.075961213673    -1.271991183070
C                     3.357107675306    -0.580937986310    -0.127535755977
C                     1.240553114241    -0.746142079005     1.083791451263
C                     2.450530819051     1.435559440838     1.044503435397
N                     4.410295654869     0.247798510954    -0.495978309964
N                     2.387459330334     0.038440586189     0.641882468395
O                     3.286248915300    -1.767235947585    -0.454894954575
H                     8.761771617032    -0.716829990204    -3.388279954297
H                     7.124809557648    -2.550394559864    -2.983431087737
H                     8.320379814927     1.544974803845    -2.421989090557
H                     5.080798196444    -2.146924644447    -1.640534540024
H                     6.287224444823     1.948372772329    -1.085381274233
H                     1.192517058235    -0.780726064018     2.179365308294
H                     1.346077733557    -1.759479045777     0.700853452867
H                     0.306064139247    -0.315197785529     0.703410696446
H                     2.447651571139     2.117810081622     0.183283998318
H                     3.328381814310     1.650133682332     1.669501954542
H                     1.567174110631     1.668435699504     1.640929787775
H                     4.386497206304     1.207081565561    -0.183981983059
