
  -OEChem-05262117483D

 26 27  0     0  0  0  0  0  0999 V2000
    1.1047    7.1145    0.5270 C   0  0  0  0  0  0  0  0  0  0  0  0
    0.5238    6.6345    1.7025 C   0  0  0  0  0  0  0  0  0  0  0  0
    1.6021    6.2032   -0.4121 C   0  0  0  0  0  0  0  0  0  0  0  0
    0.4369    5.2584    1.9364 C   0  0  0  0  0  0  0  0  0  0  0  0
    1.5242    4.8295   -0.1828 C   0  0  0  0  0  0  0  0  0  0  0  0
    0.9380    4.3460    0.9972 C   0  0  0  0  0  0  0  0  0  0  0  0
    0.4586    2.0583    0.2892 C   0  0  0  0  0  0  0  0  0  0  0  0
    0.4815    0.5653    0.6071 C   0  0  0  0  0  0  0  0  0  0  0  0
    0.5234    0.1835    2.0871 C   0  0  0  0  0  0  0  0  0  0  0  0
    1.5323    1.0776    2.8028 C   0  0  0  0  0  0  0  0  0  0  0  0
    1.1032    2.5333    2.6719 C   0  0  0  0  0  0  0  0  0  0  0  0
    0.8924    2.9407    1.2686 N   0  0  0  0  0  0  0  0  0  0  0  0
    0.1194    2.4305   -0.8316 O   0  0  0  0  0  0  0  0  0  0  0  0
    1.1702    8.1836    0.3433 H   0  0  0  0  0  0  0  0  0  0  0  0
    0.1292    7.3278    2.4408 H   0  0  0  0  0  0  0  0  0  0  0  0
    2.0586    6.5634   -1.3305 H   0  0  0  0  0  0  0  0  0  0  0  0
   -0.0310    4.9033    2.8491 H   0  0  0  0  0  0  0  0  0  0  0  0
    1.9047    4.1308   -0.9174 H   0  0  0  0  0  0  0  0  0  0  0  0
   -0.3778    0.1310    0.0906 H   0  0  0  0  0  0  0  0  0  0  0  0
    1.3725    0.1766    0.0975 H   0  0  0  0  0  0  0  0  0  0  0  0
   -0.4669    0.3191    2.5404 H   0  0  0  0  0  0  0  0  0  0  0  0
    0.7807   -0.8754    2.1964 H   0  0  0  0  0  0  0  0  0  0  0  0
    1.6022    0.8307    3.8677 H   0  0  0  0  0  0  0  0  0  0  0  0
    2.5304    0.9437    2.3678 H   0  0  0  0  0  0  0  0  0  0  0  0
    0.1800    2.6846    3.2489 H   0  0  0  0  0  0  0  0  0  0  0  0
    1.8617    3.1975    3.0942 H   0  0  0  0  0  0  0  0  0  0  0  0
  1  2  1  0  0  0  0
  1  3  2  0  0  0  0
  1 14  1  0  0  0  0
  2  4  2  0  0  0  0
  2 15  1  0  0  0  0
  3  5  1  0  0  0  0
  3 16  1  0  0  0  0
  4  6  1  0  0  0  0
  4 17  1  0  0  0  0
  5  6  2  0  0  0  0
  5 18  1  0  0  0  0
  6 12  1  0  0  0  0
  7  8  1  0  0  0  0
  7 12  1  0  0  0  0
  7 13  2  0  0  0  0
  8  9  1  0  0  0  0
  8 19  1  0  0  0  0
  8 20  1  0  0  0  0
  9 10  1  0  0  0  0
  9 21  1  0  0  0  0
  9 22  1  0  0  0  0
 10 11  1  0  0  0  0
 10 23  1  0  0  0  0
 10 24  1  0  0  0  0
 11 12  1  0  0  0  0
 11 25  1  0  0  0  0
 11 26  1  0  0  0  0
M  END
$$$$
