
  -OEChem-05262117483D

 30 32  0     0  0  0  0  0  0999 V2000
    1.0547    1.0251   -0.5102 C   0  0  0  0  0  0  0  0  0  0  0  0
    5.2055    5.2716   -2.0540 C   0  0  0  0  0  0  0  0  0  0  0  0
   -0.3398    0.9109   -0.5888 C   0  0  0  0  0  0  0  0  0  0  0  0
    5.3095    4.6459   -3.3002 C   0  0  0  0  0  0  0  0  0  0  0  0
    1.6473    2.2716   -0.6798 C   0  0  0  0  0  0  0  0  0  0  0  0
    3.9788    5.2910   -1.3909 C   0  0  0  0  0  0  0  0  0  0  0  0
   -1.1216    2.0419   -0.8033 C   0  0  0  0  0  0  0  0  0  0  0  0
    4.1855    4.0544   -3.8811 C   0  0  0  0  0  0  0  0  0  0  0  0
    0.8780    3.4278   -0.9065 C   0  0  0  0  0  0  0  0  0  0  0  0
    2.8399    4.6823   -1.9421 C   0  0  0  0  0  0  0  0  0  0  0  0
   -0.5284    3.3071   -0.9508 C   0  0  0  0  0  0  0  0  0  0  0  0
    2.9653    4.0756   -3.2022 C   0  0  0  0  0  0  0  0  0  0  0  0
    1.5617    4.7195   -1.1646 C   0  0  0  0  0  0  0  0  0  0  0  0
   -1.2741    5.6810   -0.6754 C   0  0  0  0  0  0  0  0  0  0  0  0
    0.0029    5.9472    0.1135 C   0  0  0  0  0  0  0  0  0  0  0  0
    1.1858    5.8701   -0.7337 N   0  0  0  0  0  0  0  0  0  0  0  0
   -1.3633    4.4073   -1.2183 N   0  0  0  0  0  0  0  0  0  0  0  0
   -2.1681    6.4993   -0.8300 O   0  0  0  0  0  0  0  0  0  0  0  0
    1.5683    3.3771   -4.0104 Cl  0  0  0  0  0  0  0  0  0  0  0  0
    1.6691    0.1473   -0.3328 H   0  0  0  0  0  0  0  0  0  0  0  0
    6.0743    5.7430   -1.6032 H   0  0  0  0  0  0  0  0  0  0  0  0
   -0.8177   -0.0584   -0.4759 H   0  0  0  0  0  0  0  0  0  0  0  0
    6.2587    4.6243   -3.8287 H   0  0  0  0  0  0  0  0  0  0  0  0
    2.7292    2.3630   -0.6562 H   0  0  0  0  0  0  0  0  0  0  0  0
    3.8770    5.7813   -0.4276 H   0  0  0  0  0  0  0  0  0  0  0  0
   -2.2047    1.9563   -0.8531 H   0  0  0  0  0  0  0  0  0  0  0  0
    4.2457    3.5885   -4.8596 H   0  0  0  0  0  0  0  0  0  0  0  0
   -0.0788    6.9532    0.5240 H   0  0  0  0  0  0  0  0  0  0  0  0
    0.0513    5.2235    0.9417 H   0  0  0  0  0  0  0  0  0  0  0  0
   -2.2760    4.2086   -1.6160 H   0  0  0  0  0  0  0  0  0  0  0  0
  1  3  1  0  0  0  0
  1  5  2  0  0  0  0
  1 20  1  0  0  0  0
  2  4  1  0  0  0  0
  2  6  2  0  0  0  0
  2 21  1  0  0  0  0
  3  7  2  0  0  0  0
  3 22  1  0  0  0  0
  4  8  2  0  0  0  0
  4 23  1  0  0  0  0
  5  9  1  0  0  0  0
  5 24  1  0  0  0  0
  6 10  1  0  0  0  0
  6 25  1  0  0  0  0
  7 11  1  0  0  0  0
  7 26  1  0  0  0  0
  8 12  1  0  0  0  0
  8 27  1  0  0  0  0
  9 11  2  0  0  0  0
  9 13  1  0  0  0  0
 10 12  2  0  0  0  0
 10 13  1  0  0  0  0
 11 17  1  0  0  0  0
 12 19  1  0  0  0  0
 13 16  2  0  0  0  0
 14 15  1  0  0  0  0
 14 17  1  0  0  0  0
 14 18  2  0  0  0  0
 15 16  1  0  0  0  0
 15 28  1  0  0  0  0
 15 29  1  0  0  0  0
 17 30  1  0  0  0  0
M  END
$$$$
