30
0 1 C15FH11N2O
C                     1.725659123864    -5.938872050722     5.361668616157
C                     0.880100686335    -6.886742160506     4.771307555382
C                     2.020733009168    -4.754074206295     4.680762688750
C                    -0.204374446009    -1.131690841964     0.189863872424
C                     0.334929237350    -6.651726179080     3.509874124428
C                     1.467045585417    -4.513386725779     3.421363991797
C                     0.354774054805    -2.082105860206    -0.658929065554
C                    -0.766420123259    -1.514389324171     1.413039288618
C                     0.618612054018    -5.458997518755     2.824490045459
C                    -0.106836200908    -3.843517995625     0.975906447583
C                     0.385185562180    -3.436826264137    -0.285945959428
C                    -0.705676590928    -2.852704837689     1.769382951823
C                     0.061002707454    -5.243745179000     1.460519830264
C                     0.397887535062    -5.599828201262    -1.530405295794
C                    -0.709007544506    -6.091809339415    -0.603018265265
N                    -0.193362315881    -6.281195957496     0.743449371352
N                     0.947520873992    -4.368450035584    -1.176203239219
O                     0.801487749783    -6.208573725019    -2.507705754902
F                    -1.260175814854    -3.220412549742     2.947171034454
H                     2.150763639898    -6.123534359878     6.344939845236
H                     0.646486199001    -7.808756523607     5.297448500679
H                     2.682670341329    -4.017812262695     5.129200501290
H                    -0.230432618851    -0.088634367564    -0.111777895831
H                    -0.313572407143    -7.382370948923     3.037532266010
H                     1.710109537284    -3.593444700012     2.897106800952
H                     0.751668726417    -1.787366123851    -1.626821187782
H                    -1.247511524681    -0.803246094527     2.076360461519
H                    -1.536469719546    -5.365932789622    -0.638512937798
H                    -1.056767064336    -7.046067819364    -0.997558489881
H                     1.573050390717    -4.002089741003    -1.887278734180
