
  -OEChem-05262117483D

 34 36  0     0  0  0  0  0  0999 V2000
   -0.0773   -1.6173    1.3576 C   0  0  0  0  0  0  0  0  0  0  0  0
   -0.0839   -1.3381   -0.0154 C   0  0  0  0  0  0  0  0  0  0  0  0
   -2.8856   -5.1440    4.4780 C   0  0  0  0  0  0  0  0  0  0  0  0
   -1.6271   -5.5702    4.0528 C   0  0  0  0  0  0  0  0  0  0  0  0
   -3.8081   -4.6419    3.5536 C   0  0  0  0  0  0  0  0  0  0  0  0
    0.2155   -2.9057    1.7977 C   0  0  0  0  0  0  0  0  0  0  0  0
    0.2064   -2.3459   -0.9334 C   0  0  0  0  0  0  0  0  0  0  0  0
   -2.2178   -4.9752    1.7781 C   0  0  0  0  0  0  0  0  0  0  0  0
   -1.2832   -5.4655    2.6989 C   0  0  0  0  0  0  0  0  0  0  0  0
   -3.4903   -4.5615    2.1900 C   0  0  0  0  0  0  0  0  0  0  0  0
    0.4583   -3.9370    0.8797 C   0  0  0  0  0  0  0  0  0  0  0  0
    0.4719   -3.6555   -0.4997 C   0  0  0  0  0  0  0  0  0  0  0  0
    0.0587   -5.9780    2.2688 C   0  0  0  0  0  0  0  0  0  0  0  0
    1.8590   -5.9108    0.6044 C   0  0  0  0  0  0  0  0  0  0  0  0
    1.3981   -6.3170   -0.7904 C   0  0  0  0  0  0  0  0  0  0  0  0
   -4.4758   -4.0071    1.1871 C   0  0  0  0  0  0  0  0  0  0  0  0
    0.7617   -5.2533    1.3165 N   0  0  0  0  0  0  0  0  0  0  0  0
    0.5073   -7.0303    2.7258 O   0  0  0  0  0  0  0  0  0  0  0  0
    0.7665   -4.8789   -1.7565 S   0  0  0  0  0  0  0  0  0  0  0  0
   -0.2818   -0.8328    2.0804 H   0  0  0  0  0  0  0  0  0  0  0  0
   -0.2975   -0.3337   -0.3707 H   0  0  0  0  0  0  0  0  0  0  0  0
   -3.1548   -5.2115    5.5289 H   0  0  0  0  0  0  0  0  0  0  0  0
   -0.9098   -5.9894    4.7519 H   0  0  0  0  0  0  0  0  0  0  0  0
   -4.7894   -4.3182    3.8943 H   0  0  0  0  0  0  0  0  0  0  0  0
    0.2408   -3.1327    2.8587 H   0  0  0  0  0  0  0  0  0  0  0  0
    0.2219   -2.1241   -1.9976 H   0  0  0  0  0  0  0  0  0  0  0  0
   -1.9584   -4.9156    0.7246 H   0  0  0  0  0  0  0  0  0  0  0  0
    2.1470   -6.7935    1.1759 H   0  0  0  0  0  0  0  0  0  0  0  0
    2.7098   -5.2253    0.5515 H   0  0  0  0  0  0  0  0  0  0  0  0
    2.2275   -6.7374   -1.3657 H   0  0  0  0  0  0  0  0  0  0  0  0
    0.6057   -7.0648   -0.7151 H   0  0  0  0  0  0  0  0  0  0  0  0
   -4.2634   -2.9521    0.9769 H   0  0  0  0  0  0  0  0  0  0  0  0
   -4.4217   -4.5452    0.2358 H   0  0  0  0  0  0  0  0  0  0  0  0
   -5.5032   -4.0719    1.5565 H   0  0  0  0  0  0  0  0  0  0  0  0
  1  2  1  0  0  0  0
  1  6  2  0  0  0  0
  1 20  1  0  0  0  0
  2  7  2  0  0  0  0
  2 21  1  0  0  0  0
  3  4  2  0  0  0  0
  3  5  1  0  0  0  0
  3 22  1  0  0  0  0
  4  9  1  0  0  0  0
  4 23  1  0  0  0  0
  5 10  2  0  0  0  0
  5 24  1  0  0  0  0
  6 11  1  0  0  0  0
  6 25  1  0  0  0  0
  7 12  1  0  0  0  0
  7 26  1  0  0  0  0
  8  9  2  0  0  0  0
  8 10  1  0  0  0  0
  8 27  1  0  0  0  0
  9 13  1  0  0  0  0
 10 16  1  0  0  0  0
 11 12  2  0  0  0  0
 11 17  1  0  0  0  0
 12 19  1  0  0  0  0
 13 17  1  0  0  0  0
 13 18  2  0  0  0  0
 14 15  1  0  0  0  0
 14 17  1  0  0  0  0
 14 28  1  0  0  0  0
 14 29  1  0  0  0  0
 15 19  1  0  0  0  0
 15 30  1  0  0  0  0
 15 31  1  0  0  0  0
 16 32  1  0  0  0  0
 16 33  1  0  0  0  0
 16 34  1  0  0  0  0
M  END
$$$$
