
  -OEChem-05262117483D

 34 36  0     0  0  0  0  0  0999 V2000
   -0.4458    0.7079   -1.5505 C   0  0  0  0  0  0  0  0  0  0  0  0
   -0.6579    0.0574   -0.3275 C   0  0  0  0  0  0  0  0  0  0  0  0
   -4.7026   -1.6610   -8.0086 C   0  0  0  0  0  0  0  0  0  0  0  0
   -4.4385   -1.2023   -6.7160 C   0  0  0  0  0  0  0  0  0  0  0  0
   -3.6854   -2.2390   -8.7728 C   0  0  0  0  0  0  0  0  0  0  0  0
   -0.9539    0.1557   -2.7214 C   0  0  0  0  0  0  0  0  0  0  0  0
   -1.3792   -1.1316   -0.2932 C   0  0  0  0  0  0  0  0  0  0  0  0
   -2.1389   -1.9304   -6.9547 C   0  0  0  0  0  0  0  0  0  0  0  0
   -3.1556   -1.3540   -6.1786 C   0  0  0  0  0  0  0  0  0  0  0  0
   -2.3842   -2.3688   -8.2612 C   0  0  0  0  0  0  0  0  0  0  0  0
   -1.6917   -1.0378   -2.6980 C   0  0  0  0  0  0  0  0  0  0  0  0
   -1.9108   -1.6888   -1.4700 C   0  0  0  0  0  0  0  0  0  0  0  0
   -2.8780   -0.7923   -4.8131 C   0  0  0  0  0  0  0  0  0  0  0  0
   -2.2412   -3.0583   -3.9761 C   0  0  0  0  0  0  0  0  0  0  0  0
   -3.2913   -3.5726   -2.9941 C   0  0  0  0  0  0  0  0  0  0  0  0
   -1.2740   -2.9435   -9.1111 C   0  0  0  0  0  0  0  0  0  0  0  0
   -2.1549   -1.5959   -3.9307 N   0  0  0  0  0  0  0  0  0  0  0  0
   -3.2382    0.3457   -4.5284 O   0  0  0  0  0  0  0  0  0  0  0  0
   -2.8214   -3.2049   -1.2669 S   0  0  0  0  0  0  0  0  0  0  0  0
    0.1164    1.6364   -1.5909 H   0  0  0  0  0  0  0  0  0  0  0  0
   -0.2618    0.4738    0.5947 H   0  0  0  0  0  0  0  0  0  0  0  0
   -5.7018   -1.5617   -8.4246 H   0  0  0  0  0  0  0  0  0  0  0  0
   -5.2115   -0.7230   -6.1227 H   0  0  0  0  0  0  0  0  0  0  0  0
   -3.9004   -2.5866   -9.7812 H   0  0  0  0  0  0  0  0  0  0  0  0
   -0.7968    0.6511   -3.6732 H   0  0  0  0  0  0  0  0  0  0  0  0
   -1.5452   -1.6388    0.6544 H   0  0  0  0  0  0  0  0  0  0  0  0
   -1.1380   -2.0217   -6.5378 H   0  0  0  0  0  0  0  0  0  0  0  0
   -1.2594   -3.4807   -3.7408 H   0  0  0  0  0  0  0  0  0  0  0  0
   -2.5142   -3.3698   -4.9820 H   0  0  0  0  0  0  0  0  0  0  0  0
   -4.2635   -3.1274   -3.2215 H   0  0  0  0  0  0  0  0  0  0  0  0
   -3.3796   -4.6605   -3.0607 H   0  0  0  0  0  0  0  0  0  0  0  0
   -0.9101   -2.2015   -9.8316 H   0  0  0  0  0  0  0  0  0  0  0  0
   -0.4221   -3.2558   -8.5007 H   0  0  0  0  0  0  0  0  0  0  0  0
   -1.6183   -3.8112   -9.6828 H   0  0  0  0  0  0  0  0  0  0  0  0
  1  2  1  0  0  0  0
  1  6  2  0  0  0  0
  1 20  1  0  0  0  0
  2  7  2  0  0  0  0
  2 21  1  0  0  0  0
  3  4  2  0  0  0  0
  3  5  1  0  0  0  0
  3 22  1  0  0  0  0
  4  9  1  0  0  0  0
  4 23  1  0  0  0  0
  5 10  2  0  0  0  0
  5 24  1  0  0  0  0
  6 11  1  0  0  0  0
  6 25  1  0  0  0  0
  7 12  1  0  0  0  0
  7 26  1  0  0  0  0
  8  9  2  0  0  0  0
  8 10  1  0  0  0  0
  8 27  1  0  0  0  0
  9 13  1  0  0  0  0
 10 16  1  0  0  0  0
 11 12  2  0  0  0  0
 11 17  1  0  0  0  0
 12 19  1  0  0  0  0
 13 17  1  0  0  0  0
 13 18  2  0  0  0  0
 14 15  1  0  0  0  0
 14 17  1  0  0  0  0
 14 28  1  0  0  0  0
 14 29  1  0  0  0  0
 15 19  1  0  0  0  0
 15 30  1  0  0  0  0
 15 31  1  0  0  0  0
 16 32  1  0  0  0  0
 16 33  1  0  0  0  0
 16 34  1  0  0  0  0
M  END
$$$$
