
  -OEChem-05262117483D

 25 26  0     0  0  0  0  0  0999 V2000
    3.4174   -1.0909    1.3154 C   0  0  0  0  0  0  0  0  0  0  0  0
    2.4548   -0.5164    2.1523 C   0  0  0  0  0  0  0  0  0  0  0  0
    3.0377   -1.9011    0.2477 C   0  0  0  0  0  0  0  0  0  0  0  0
    0.7041   -1.5745    0.8391 C   0  0  0  0  0  0  0  0  0  0  0  0
    1.0921   -0.7564    1.9167 C   0  0  0  0  0  0  0  0  0  0  0  0
    1.6731   -2.1405    0.0134 C   0  0  0  0  0  0  0  0  0  0  0  0
   -1.0135    2.2756    6.1536 C   0  0  0  0  0  0  0  0  0  0  0  0
   -1.9558    1.0428    4.5379 C   0  0  0  0  0  0  0  0  0  0  0  0
    0.1119   -0.1371    2.8144 C   0  0  0  0  0  0  0  0  0  0  0  0
   -2.5013    2.4867    6.5304 C   0  0  0  0  0  0  0  0  0  0  0  0
   -0.8290    1.4614    5.0382 N   0  0  0  0  0  0  0  0  0  0  0  0
   -1.1500   -0.3350    2.6214 N   0  0  0  0  0  0  0  0  0  0  0  0
   -2.0865    0.2397    3.4565 N   0  0  0  0  0  0  0  0  0  0  0  0
   -0.1240    2.7927    6.8011 O   0  0  0  0  0  0  0  0  0  0  0  0
    1.3570   -2.9468   -1.0526 O   0  0  0  0  0  0  0  0  0  0  0  0
   -3.4934    1.5540    5.3232 S   0  0  0  0  0  0  0  0  0  0  0  0
    4.4725   -0.9056    1.4969 H   0  0  0  0  0  0  0  0  0  0  0  0
    2.7565    0.1147    2.9839 H   0  0  0  0  0  0  0  0  0  0  0  0
    3.7720   -2.3548   -0.4113 H   0  0  0  0  0  0  0  0  0  0  0  0
   -0.3546   -1.7536    0.6664 H   0  0  0  0  0  0  0  0  0  0  0  0
    0.4884    0.4795    3.6276 H   0  0  0  0  0  0  0  0  0  0  0  0
   -2.6763    2.1181    7.5424 H   0  0  0  0  0  0  0  0  0  0  0  0
   -2.7403    3.5506    6.4887 H   0  0  0  0  0  0  0  0  0  0  0  0
   -3.0271   -0.0081    3.1768 H   0  0  0  0  0  0  0  0  0  0  0  0
    0.3921   -3.0339   -1.1087 H   0  0  0  0  0  0  0  0  0  0  0  0
  1  2  1  0  0  0  0
  1  3  2  0  0  0  0
  1 17  1  0  0  0  0
  2  5  2  0  0  0  0
  2 18  1  0  0  0  0
  3  6  1  0  0  0  0
  3 19  1  0  0  0  0
  4  5  1  0  0  0  0
  4  6  2  0  0  0  0
  4 20  1  0  0  0  0
  5  9  1  0  0  0  0
  6 15  1  0  0  0  0
  7 10  1  0  0  0  0
  7 11  1  0  0  0  0
  7 14  2  0  0  0  0
  8 11  2  0  0  0  0
  8 13  1  0  0  0  0
  8 16  1  0  0  0  0
  9 12  2  0  0  0  0
  9 21  1  0  0  0  0
 10 16  1  0  0  0  0
 10 22  1  0  0  0  0
 10 23  1  0  0  0  0
 12 13  1  0  0  0  0
 13 24  1  0  0  0  0
 15 25  1  0  0  0  0
M  END
$$$$
