15
0 1 C6F3H3INS
C                     1.407844721073     0.119719528112     1.315849406166
C                     0.059924297217    -0.029491781507     0.969706533298
C                     1.980133168288    -0.683217929099     2.307031813377
C                    -0.697522065363    -0.971639278975     1.676885707040
C                     1.115079048552    -1.595409667774     2.919563811747
C                    -2.976896505909    -0.182121268984     0.200659272734
N                    -0.152777106751    -1.737555905994     2.637746731047
F                    -2.823602599402     1.113675898136     0.554325521507
F                    -4.287316776148    -0.406145234307    -0.006449447799
F                    -2.335157381036    -0.342106441399    -0.980228883459
S                    -2.438535863965    -1.356983954158     1.483751397743
I                     2.108388562938    -3.389409218465     4.031743392527
H                     2.019055300448     0.850370494619     0.792419896104
H                    -0.365080024405     0.561179848081     0.168373006921
H                     3.020261313590    -0.590144495002     2.595894174248
