
  -OEChem-05262117483D

 22 22  0     0  0  0  0  0  0999 V2000
    1.7601   -0.9633   -0.1925 C   0  0  0  0  0  0  0  0  0  0  0  0
    0.7065   -0.4062    0.5343 C   0  0  0  0  0  0  0  0  0  0  0  0
    2.8354   -1.5765    0.4551 C   0  0  0  0  0  0  0  0  0  0  0  0
    1.8129   -1.0819    2.5911 C   0  0  0  0  0  0  0  0  0  0  0  0
    0.7455   -0.4725    1.9304 C   0  0  0  0  0  0  0  0  0  0  0  0
    2.8716   -1.6416    1.8582 C   0  0  0  0  0  0  0  0  0  0  0  0
    6.5220   -3.6704    2.2233 C   0  0  0  0  0  0  0  0  0  0  0  0
    5.3411   -2.9941    1.5249 C   0  0  0  0  0  0  0  0  0  0  0  0
   -0.3650    0.1127    2.7641 C   0  0  0  0  0  0  0  0  0  0  0  0
   -1.3400    0.6730    2.0103 F   0  0  0  0  0  0  0  0  0  0  0  0
   -0.9578   -0.8281    3.5468 F   0  0  0  0  0  0  0  0  0  0  0  0
    0.0914    1.0776    3.6065 F   0  0  0  0  0  0  0  0  0  0  0  0
    4.1764   -2.3905    2.8019 S   0  0  0  0  0  0  0  0  0  0  0  0
    1.7474   -0.9214   -1.2782 H   0  0  0  0  0  0  0  0  0  0  0  0
   -0.1270    0.0692    0.0295 H   0  0  0  0  0  0  0  0  0  0  0  0
    3.6364   -1.9986   -0.1411 H   0  0  0  0  0  0  0  0  0  0  0  0
    1.8233   -1.1226    3.6773 H   0  0  0  0  0  0  0  0  0  0  0  0
    7.0462   -2.9729    2.8833 H   0  0  0  0  0  0  0  0  0  0  0  0
    6.1936   -4.5267    2.8199 H   0  0  0  0  0  0  0  0  0  0  0  0
    7.2355   -4.0312    1.4757 H   0  0  0  0  0  0  0  0  0  0  0  0
    4.8236   -3.7039    0.8727 H   0  0  0  0  0  0  0  0  0  0  0  0
    5.6848   -2.1482    0.9223 H   0  0  0  0  0  0  0  0  0  0  0  0
  1  2  1  0  0  0  0
  1  3  2  0  0  0  0
  1 14  1  0  0  0  0
  2  5  2  0  0  0  0
  2 15  1  0  0  0  0
  3  6  1  0  0  0  0
  3 16  1  0  0  0  0
  4  5  1  0  0  0  0
  4  6  2  0  0  0  0
  4 17  1  0  0  0  0
  5  9  1  0  0  0  0
  6 13  1  0  0  0  0
  7  8  1  0  0  0  0
  7 18  1  0  0  0  0
  7 19  1  0  0  0  0
  7 20  1  0  0  0  0
  8 13  1  0  0  0  0
  8 21  1  0  0  0  0
  8 22  1  0  0  0  0
  9 10  1  0  0  0  0
  9 11  1  0  0  0  0
  9 12  1  0  0  0  0
M  END
$$$$
