31
0 1 C15FH12NOS
C                    -0.919118054517     0.556021582093    -2.498619909198
C                    -0.524079688934    -0.197544805552    -1.385251515939
C                    -5.131738249981    -2.350961242558    -8.180642375495
C                    -4.385640473691    -1.974687193942    -7.061025902241
C                    -1.795940879622     0.004935127834    -3.426939381722
C                    -6.527657941445    -2.402909436890    -8.118435207791
C                    -1.015022978282    -1.487736467272    -1.213747632051
C                    -6.434232652128    -1.648080363627    -5.800235056466
C                    -5.035867997906    -1.628617622701    -5.867359031888
C                    -2.305759094559    -1.291332985836    -3.258460518192
C                    -7.147574835336    -2.049812773299    -6.922668223593
C                    -1.914869510058    -2.047606919263    -2.138311893752
C                    -4.279054864652    -1.109503531625    -4.674569817814
C                    -3.080586134454    -3.290017493140    -4.453795386864
C                    -3.554812927388    -4.034099199509    -3.207874801716
N                    -3.168238486701    -1.839172705070    -4.260961110462
O                    -4.623110583225    -0.057429914599    -4.145751246415
F                    -8.502019818405    -2.090615230841    -6.854645477721
S                    -2.465083610394    -3.701711864890    -1.779250053595
H                    -0.541991093949     1.564144671643    -2.644183748473
H                     0.164845469300     0.217707044665    -0.654747343190
H                    -4.626719137876    -2.604187444785    -9.108596482906
H                    -3.301618518127    -1.930664581946    -7.117676031886
H                    -2.108907040185     0.579606280108    -4.291595242689
H                    -7.130047808772    -2.699283965693    -8.971572478997
H                    -0.709094064980    -2.074682509377    -0.350970334307
H                    -6.952916151708    -1.342990227954    -4.897057047226
H                    -2.044788685484    -3.555393911047    -4.686355859029
H                    -3.703590279943    -3.578721095556    -5.297536486974
H                    -4.582722032221    -3.747401131095    -2.970645637150
H                    -3.521540153544    -5.114808558652    -3.371371165468
