18   
torsion grid (-45,)
C        0.8232807913    0.0736696223    2.5523583206
C        0.2970681425    0.9698957988    3.4359771305
C       -0.1944619726    0.1959305928    1.4768062326
C        0.6937137728   -1.3613285996   -0.3635440399
C       -1.1069123307    0.3365897055   -0.9472092733
C        0.1875609197    1.0720454264   -0.9299261604
C       -0.0209182905   -0.1150267476    0.0344450813
N       -1.2724666435    0.8461038499    1.8985089435
O        0.9271915895   -1.6857629881   -1.5139753383
O       -1.0601574339    0.8705520434    3.3163947334
O        1.0658746169   -2.1328457313    0.6925990769
H        1.8526549868   -0.2259519484    2.4138141546
H        0.6415917226    1.3110426250    4.4092952771
H       -1.9754958138    0.7968313819   -0.4907365610
H       -1.2933142888   -0.3375739592   -1.7755917563
H        0.8876263324    0.9022430960   -1.7410408025
H        0.2224791012    2.0465366425   -0.4539658834
H        1.5010466235   -2.9184576515    0.3083723944
18   
torsion grid (-30,)
C        0.8216131899    0.1223113111    2.5239852674
C        0.2809630204    0.9112359018    3.4955510172
C       -0.1677270350    0.2358706026    1.4675707356
C        0.6918700082   -1.3501603728   -0.3655186118
C       -1.1200151342    0.3348247460   -0.9446870771
C        0.1733564222    1.0730833864   -0.9575327269
C       -0.0180366295   -0.0992710465    0.0264611572
N       -1.2546580629    0.8575495878    1.8944621614
O        0.9059732238   -1.6902745890   -1.5153519399
O       -1.0586541844    0.9852691112    3.2894013615
O        1.0854983706   -2.1067934059    0.6937173712
H        1.8403712491   -0.2231105314    2.4274887446
H        0.6034757178    1.1653895188    4.4995570233
H       -1.9827809805    0.8005695638   -0.4831733116
H       -1.3166917822   -0.3517066156   -1.7604189068
H        0.8608777050    0.8932389394   -1.7770942756
H        0.2128024556    2.0548310878   -0.4971624181
H        1.5153523949   -2.8959230104    0.3107257301
18   
torsion grid (-15,)
C        0.8272163352    0.1668510192    2.5031100572
C        0.2505374687    0.8381761138    3.5371289522
C       -0.1543505464    0.2633707728    1.4587255650
C        0.6901178707   -1.3416362381   -0.3678658196
C       -1.1296229127    0.3344295141   -0.9448912972
C        0.1618855324    1.0752470385   -0.9764723973
C       -0.0172769321   -0.0878294996    0.0199367832
N       -1.2543842243    0.8509559075    1.8914294309
O        0.8959978153   -1.6905297265   -1.5167044110
O       -1.0530647289    1.0712865598    3.2624113764
O        1.0923151256   -2.0910969144    0.6932398099
H        1.8350105887   -0.2134452631    2.4315527092
H        0.5573018999    1.0465262735    4.5545614436
H       -1.9890871642    0.8031238969   -0.4804888591
H       -1.3317925577   -0.3605186227   -1.7520794285
H        0.8418898213    0.8891112354   -1.8008090930
H        0.2030686748    2.0615745676   -0.5261963713
H        1.5188794616   -2.8824872909    0.3112386139
18   
torsion grid (0,)
C        0.8458490458    0.2077207193    2.4961437832
C        0.2283978108    0.7648736505    3.5723700006
C       -0.1394195256    0.2924694762    1.4593631706
C        0.6893229196   -1.3313458634   -0.3616300695
C       -1.1393302717    0.3354446189   -0.9339940091
C        0.1494875242    1.0789139402   -0.9855734569
C       -0.0157795511   -0.0753708953    0.0237843301
N       -1.2479066401    0.8580137927    1.8988670060
O        0.8850567378   -1.6867119034   -1.5103763882
O       -1.0201804664    1.1612706944    3.2456875297
O        1.1009471859   -2.0755196518    0.6996880935
H        1.8363285734   -0.2169158348    2.4379638710
H        0.5268332678    0.9389158440    4.5979617538
H       -1.9952887189    0.8062725754   -0.4654813034
H       -1.3474233360   -0.3681856332   -1.7320658141
H        0.8219772215    0.8865866368   -1.8145916934
H        0.1923908206    2.0694676320   -0.5449322556
H        1.5235441481   -2.8687120514    0.3169910031
18   
torsion grid (15,)
C        0.8755760201    0.2452425109    2.4898576977
C        0.2135759222    0.6972824010    3.5900175844
C       -0.1156820012    0.3228929112    1.4531844604
C        0.6994445291   -1.3269703722   -0.3543328692
C       -1.1409676518    0.3250225320   -0.9286709944
C        0.1432941718    1.0731740080   -1.0036368892
C       -0.0054326761   -0.0683473590    0.0236811035
N       -1.2277925932    0.8792553840    1.8983020829
O        0.8860193376   -1.6924689440   -1.5014668431
O       -0.9575224714    1.2633174077    3.2203427936
O        1.1206957037   -2.0613536996    0.7100799221
H        1.8418752660   -0.2335602414    2.4441811264
H        0.4969560019    0.8430300182    4.6248217518
H       -1.9941649212    0.7985121599   -0.4579788882
H       -1.3532724640   -0.3911215176   -1.7143788385
H        0.8083387849    0.8717446448   -1.8364620107
H        0.1861640241    2.0697841964   -0.5770158677
H        1.5406656503   -2.8572727747    0.3301097506
18   
torsion grid (30,)
C        0.9070892744    0.2858184648    2.4891425888
C        0.1842889429    0.6297021425    3.5932189371
C       -0.1003880708    0.3516200105    1.4463735158
C        0.7078184569   -1.3226762261   -0.3459925812
C       -1.1453763277    0.3140272402   -0.9235082410
C        0.1336549284    1.0676536525   -1.0188603650
C        0.0008395608   -0.0624842925    0.0243216514
N       -1.2232059921    0.8891849974    1.8986637173
O        0.8925813203   -1.6973812273   -1.4904360436
O       -0.8923366499    1.3522439869    3.1923807946
O        1.1313592860   -2.0494129058    0.7228195565
H        1.8496672628   -0.2393628230    2.4461942753
H        0.4454721394    0.7391177066    4.6400056769
H       -1.9968426849    0.7889342958   -0.4511819933
H       -1.3603086423   -0.4135424226   -1.6978833423
H        0.7936814863    0.8589100971   -1.8538354118
H        0.1743381994    2.0696736777   -0.6049669286
H        1.5507193611   -2.8478078000    0.3472959871
18   
torsion grid (45,)
C        0.9543912717    0.3283576184    2.4945107635
C        0.1578018349    0.5664557237    3.5769008688
C       -0.0852109985    0.3909286748    1.4357822086
C        0.7174933932   -1.3147792828   -0.3346120697
C       -1.1513591471    0.3009506628   -0.9200063949
C        0.1206498164    1.0619268967   -1.0389602618
C        0.0064755415   -0.0530694203    0.0242647860
N       -1.2192900172    0.9103325857    1.8975619862
O        0.9032967884   -1.6995773497   -1.4754264930
O       -0.8023059530    1.4432644409    3.1598979606
O        1.1397435750   -2.0326485030    0.7408635099
H        1.8646989543   -0.2516533182    2.4422881484
H        0.3754724457    0.6067268767    4.6410590254
H       -2.0018715035    0.7775351731   -0.4476768240
H       -1.3677124347   -0.4412091883   -1.6799918873
H        0.7760923344    0.8435535015   -1.8750722140
H        0.1570621615    2.0708178330   -0.6417797710
H        1.5596393680   -2.8341009937    0.3723885385
