
  -OEChem-05262117483D

 42 45  0     1  0  0  0  0  0999 V2000
   -4.2812   -5.2544   -3.3100 C   0  0  0  0  0  0  0  0  0  0  0  0
   -4.2501   -4.1011   -4.1372 C   0  0  0  0  0  0  0  0  0  0  0  0
   -3.8951   -5.1712   -1.9882 C   0  0  0  0  0  0  0  0  0  0  0  0
   -3.8337   -2.8891   -3.6266 C   0  0  0  0  0  0  0  0  0  0  0  0
   -3.0569   -3.8092   -0.0760 C   0  0  0  0  0  0  0  0  0  0  0  0
   -2.6364   -2.5999    0.4321 C   0  0  0  0  0  0  0  0  0  0  0  0
   -2.9881   -1.5409   -1.7115 C   0  0  0  0  0  0  0  0  0  0  0  0
   -3.4593   -3.9363   -1.4342 C   0  0  0  0  0  0  0  0  0  0  0  0
   -3.4276   -2.7728   -2.2684 C   0  0  0  0  0  0  0  0  0  0  0  0
   -2.5902   -1.4378   -0.3919 C   0  0  0  0  0  0  0  0  0  0  0  0
    0.3347    1.9896   -0.7993 C   0  0  0  0  0  0  0  0  0  0  0  0
    0.0212   -0.9419    1.3595 C   0  0  0  0  0  0  0  0  0  0  0  0
    0.6271    3.2687   -1.0502 C   0  0  0  0  0  0  0  0  0  0  0  0
    0.4001    0.8521   -1.8078 C   0  0  0  0  0  0  0  0  0  0  0  0
   -0.1111    1.4399    0.5476 C   0  0  0  0  0  0  0  0  0  0  0  0
    0.2502   -0.4372   -0.9863 C   0  0  1  0  0  0  0  0  0  0  0  0
    1.5377   -1.0865   -0.4124 C   0  0  1  0  0  0  0  0  0  0  0  0
   -0.5389   -0.0335    0.2748 C   0  0  1  0  0  0  0  0  0  0  0  0
    2.7987   -0.2332   -0.3487 C   0  0  0  0  0  0  0  0  0  0  0  0
   -2.0764   -0.1290    0.1598 C   0  0  0  0  0  0  0  0  0  0  0  0
   -0.4401   -1.1491    2.4603 O   0  0  0  0  0  0  0  0  0  0  0  0
    1.1847   -1.5043    0.9425 O   0  0  0  0  0  0  0  0  0  0  0  0
   -4.6121   -6.2034   -3.7238 H   0  0  0  0  0  0  0  0  0  0  0  0
   -4.5579   -4.1781   -5.1768 H   0  0  0  0  0  0  0  0  0  0  0  0
   -3.9196   -6.0532   -1.3521 H   0  0  0  0  0  0  0  0  0  0  0  0
   -3.8122   -2.0051   -4.2604 H   0  0  0  0  0  0  0  0  0  0  0  0
   -3.0883   -4.6868    0.5659 H   0  0  0  0  0  0  0  0  0  0  0  0
   -2.3349   -2.5210    1.4723 H   0  0  0  0  0  0  0  0  0  0  0  0
   -2.9678   -0.6598   -2.3515 H   0  0  0  0  0  0  0  0  0  0  0  0
    0.5412    4.0349   -0.2828 H   0  0  0  0  0  0  0  0  0  0  0  0
    0.9636    3.5933   -2.0325 H   0  0  0  0  0  0  0  0  0  0  0  0
   -0.4469    0.9283   -2.5005 H   0  0  0  0  0  0  0  0  0  0  0  0
    1.3057    0.8848   -2.4198 H   0  0  0  0  0  0  0  0  0  0  0  0
    0.7163    1.4827    1.2643 H   0  0  0  0  0  0  0  0  0  0  0  0
   -0.9308    2.0147    0.9877 H   0  0  0  0  0  0  0  0  0  0  0  0
   -0.2888   -1.2030   -1.5469 H   0  0  0  0  0  0  0  0  0  0  0  0
    1.7634   -2.0132   -0.9461 H   0  0  0  0  0  0  0  0  0  0  0  0
    2.6297    0.7220    0.1537 H   0  0  0  0  0  0  0  0  0  0  0  0
    3.1704   -0.0282   -1.3573 H   0  0  0  0  0  0  0  0  0  0  0  0
    3.5767   -0.7761    0.1950 H   0  0  0  0  0  0  0  0  0  0  0  0
   -2.4171    0.6938   -0.4782 H   0  0  0  0  0  0  0  0  0  0  0  0
   -2.4846    0.0480    1.1607 H   0  0  0  0  0  0  0  0  0  0  0  0
  1  2  1  0  0  0  0
  1  3  2  0  0  0  0
  1 23  1  0  0  0  0
  2  4  2  0  0  0  0
  2 24  1  0  0  0  0
  3  8  1  0  0  0  0
  3 25  1  0  0  0  0
  4  9  1  0  0  0  0
  4 26  1  0  0  0  0
  5  6  2  0  0  0  0
  5  8  1  0  0  0  0
  5 27  1  0  0  0  0
  6 10  1  0  0  0  0
  6 28  1  0  0  0  0
  7  9  1  0  0  0  0
  7 10  2  0  0  0  0
  7 29  1  0  0  0  0
  8  9  2  0  0  0  0
 10 20  1  0  0  0  0
 11 13  2  0  0  0  0
 11 14  1  0  0  0  0
 11 15  1  0  0  0  0
 12 18  1  0  0  0  0
 12 21  2  0  0  0  0
 12 22  1  0  0  0  0
 13 30  1  0  0  0  0
 13 31  1  0  0  0  0
 14 16  1  0  0  0  0
 14 32  1  0  0  0  0
 14 33  1  0  0  0  0
 15 18  1  0  0  0  0
 15 34  1  0  0  0  0
 15 35  1  0  0  0  0
 16 17  1  0  0  0  0
 16 18  1  0  0  0  0
 16 36  1  0  0  0  0
 17 19  1  0  0  0  0
 17 22  1  0  0  0  0
 17 37  1  0  0  0  0
 18 20  1  0  0  0  0
 19 38  1  0  0  0  0
 19 39  1  0  0  0  0
 19 40  1  0  0  0  0
 20 41  1  0  0  0  0
 20 42  1  0  0  0  0
M  END
$$$$
