
  -OEChem-05262117483D

 53 55  0     1  0  0  0  0  0999 V2000
    4.9133   -4.0871   11.3775 C   0  0  0  0  0  0  0  0  0  0  0  0
    5.8789   -4.3865   10.3795 C   0  0  0  0  0  0  0  0  0  0  0  0
    3.8099   -3.3201   11.0681 C   0  0  0  0  0  0  0  0  0  0  0  0
    2.5168   -2.0280    9.3632 C   0  0  0  0  0  0  0  0  0  0  0  0
    2.5698    0.1059    1.8660 C   0  0  0  0  0  0  0  0  0  0  0  0
    0.6062    1.1398    2.7894 C   0  0  0  0  0  0  0  0  0  0  0  0
    5.7275   -3.9165    9.0915 C   0  0  0  0  0  0  0  0  0  0  0  0
    2.8811   -0.4438    3.1145 C   0  0  0  0  0  0  0  0  0  0  0  0
    0.8985    0.5986    4.0383 C   0  0  0  0  0  0  0  0  0  0  0  0
    2.4136   -1.5845    8.0639 C   0  0  0  0  0  0  0  0  0  0  0  0
    3.6272   -2.8220    9.7494 C   0  0  0  0  0  0  0  0  0  0  0  0
    1.4342    0.9017    1.6827 C   0  0  0  0  0  0  0  0  0  0  0  0
    4.6000   -3.1238    8.7433 C   0  0  0  0  0  0  0  0  0  0  0  0
    2.0399   -0.1983    4.2079 C   0  0  0  0  0  0  0  0  0  0  0  0
    3.4343   -1.9406    7.1414 C   0  0  0  0  0  0  0  0  0  0  0  0
   -0.5542   -0.4220   -0.1546 C   0  0  0  0  0  0  0  0  0  0  0  0
   -1.8413   -0.2810   -0.5157 C   0  0  0  0  0  0  0  0  0  0  0  0
    2.2552    2.2288   -0.2466 C   0  0  0  0  0  0  0  0  0  0  0  0
   -2.9216   -1.1235    0.1215 C   0  0  0  0  0  0  0  0  0  0  0  0
   -2.3407    0.6969   -1.5523 C   0  0  0  0  0  0  0  0  0  0  0  0
    3.3063    4.3429   -0.3504 C   0  0  0  0  0  0  0  0  0  0  0  0
    3.3933   -1.4993    5.6944 C   0  0  0  0  0  0  0  0  0  0  0  0
    0.6316    0.3463   -0.6750 C   0  0  0  0  0  0  0  0  0  0  0  0
    1.0710    1.4567    0.3123 C   0  0  1  0  0  0  0  0  0  0  0  0
    4.4837   -2.6766    7.4593 N   0  0  0  0  0  0  0  0  0  0  0  0
    3.1767    1.7435   -0.8776 O   0  0  0  0  0  0  0  0  0  0  0  0
    2.2457   -0.6871    5.4726 O   0  0  0  0  0  0  0  0  0  0  0  0
    2.1803    3.5433    0.0679 O   0  0  0  0  0  0  0  0  0  0  0  0
    5.0494   -4.4661   12.3869 H   0  0  0  0  0  0  0  0  0  0  0  0
    6.7437   -4.9921   10.6377 H   0  0  0  0  0  0  0  0  0  0  0  0
    3.0674   -3.0876   11.8284 H   0  0  0  0  0  0  0  0  0  0  0  0
    1.7554   -1.7762   10.0985 H   0  0  0  0  0  0  0  0  0  0  0  0
    3.2314   -0.0864    1.0256 H   0  0  0  0  0  0  0  0  0  0  0  0
   -0.2851    1.7507    2.6698 H   0  0  0  0  0  0  0  0  0  0  0  0
    6.4549   -4.1350    8.3152 H   0  0  0  0  0  0  0  0  0  0  0  0
    3.7726   -1.0520    3.2164 H   0  0  0  0  0  0  0  0  0  0  0  0
    0.2555    0.7807    4.8946 H   0  0  0  0  0  0  0  0  0  0  0  0
    1.5817   -0.9760    7.7301 H   0  0  0  0  0  0  0  0  0  0  0  0
   -0.3268   -1.1480    0.6253 H   0  0  0  0  0  0  0  0  0  0  0  0
   -3.6739   -0.4916    0.6118 H   0  0  0  0  0  0  0  0  0  0  0  0
   -2.5141   -1.8104    0.8684 H   0  0  0  0  0  0  0  0  0  0  0  0
   -3.4545   -1.7156   -0.6340 H   0  0  0  0  0  0  0  0  0  0  0  0
   -2.8496    0.1684   -2.3687 H   0  0  0  0  0  0  0  0  0  0  0  0
   -1.5485    1.3077   -1.9889 H   0  0  0  0  0  0  0  0  0  0  0  0
   -3.0823    1.3753   -1.1109 H   0  0  0  0  0  0  0  0  0  0  0  0
    3.0837    5.3561   -0.0162 H   0  0  0  0  0  0  0  0  0  0  0  0
    3.4159    4.3095   -1.4369 H   0  0  0  0  0  0  0  0  0  0  0  0
    4.2246    3.9764    0.1146 H   0  0  0  0  0  0  0  0  0  0  0  0
    4.3111   -0.9435    5.4646 H   0  0  0  0  0  0  0  0  0  0  0  0
    3.3669   -2.3883    5.0512 H   0  0  0  0  0  0  0  0  0  0  0  0
    1.4779   -0.3304   -0.8289 H   0  0  0  0  0  0  0  0  0  0  0  0
    0.4224    0.8031   -1.6460 H   0  0  0  0  0  0  0  0  0  0  0  0
    0.2459    2.1619    0.4397 H   0  0  0  0  0  0  0  0  0  0  0  0
  1  2  1  0  0  0  0
  1  3  2  0  0  0  0
  1 29  1  0  0  0  0
  2  7  2  0  0  0  0
  2 30  1  0  0  0  0
  3 11  1  0  0  0  0
  3 31  1  0  0  0  0
  4 10  1  0  0  0  0
  4 11  2  0  0  0  0
  4 32  1  0  0  0  0
  5  8  2  0  0  0  0
  5 12  1  0  0  0  0
  5 33  1  0  0  0  0
  6  9  1  0  0  0  0
  6 12  2  0  0  0  0
  6 34  1  0  0  0  0
  7 13  1  0  0  0  0
  7 35  1  0  0  0  0
  8 14  1  0  0  0  0
  8 36  1  0  0  0  0
  9 14  2  0  0  0  0
  9 37  1  0  0  0  0
 10 15  2  0  0  0  0
 10 38  1  0  0  0  0
 11 13  1  0  0  0  0
 12 24  1  0  0  0  0
 13 25  2  0  0  0  0
 14 27  1  0  0  0  0
 15 22  1  0  0  0  0
 15 25  1  0  0  0  0
 16 17  2  0  0  0  0
 16 23  1  0  0  0  0
 16 39  1  0  0  0  0
 17 19  1  0  0  0  0
 17 20  1  0  0  0  0
 18 24  1  0  0  0  0
 18 26  2  0  0  0  0
 18 28  1  0  0  0  0
 19 40  1  0  0  0  0
 19 41  1  0  0  0  0
 19 42  1  0  0  0  0
 20 43  1  0  0  0  0
 20 44  1  0  0  0  0
 20 45  1  0  0  0  0
 21 28  1  0  0  0  0
 21 46  1  0  0  0  0
 21 47  1  0  0  0  0
 21 48  1  0  0  0  0
 22 27  1  0  0  0  0
 22 49  1  0  0  0  0
 22 50  1  0  0  0  0
 23 24  1  0  0  0  0
 23 51  1  0  0  0  0
 23 52  1  0  0  0  0
 24 53  1  0  0  0  0
M  END
$$$$
