49
0 1 C20H26O3
C                    -2.721112573259    -0.361799363828     4.133126321735
C                    -0.556428535244    -0.955350601169     4.975888999641
C                    -0.883307658984    -0.691181580444     2.590195957001
C                    -1.901509156058    -0.651648121604     5.223920798369
C                    -2.235252073354    -0.376386572857     2.818348393585
C                    -0.032282804994    -0.980988363883     3.681562945167
C                     0.173084255752    -2.052566002949     0.637378688781
C                     0.744485341578     0.293405511270     0.813209374257
C                     0.915996517527    -1.870252393925    -1.821121184514
C                     1.872534518272     0.310044737228    -1.472109806031
C                    -0.339779866167    -0.719451195432     1.182731084621
C                     1.341520782217    -1.810096047210    -0.321983864118
C                     1.808334940161    -0.355226003894    -0.083612788050
C                     0.760965570951    -0.408317284502    -2.252763277519
C                    -2.447455013556    -0.668066368450     6.633146809548
C                    -3.003246525274     1.462256055401     1.238729918830
C                     2.269274458467    -1.650666627284     4.677889452292
C                    -0.899296928325     1.335502730264    -2.189163960993
C                    -3.183470630456     0.002807830155     1.697288256108
C                     1.434882586144    -1.298852117740     3.442743110949
O                    -0.289363766862    -3.147105879461     0.889810304968
O                     0.756631276214     1.465323230015     1.137215346208
O                    -0.545294726108     0.003655587922    -1.831325964847
H                    -3.768232334871    -0.117112700628     4.303132708201
H                     0.088029279883    -1.176022371740     5.821360032970
H                     1.709986302495    -2.339343437361    -2.409604835673
H                    -0.001877055068    -2.440239893960    -1.980853981734
H                     1.757414736062     1.394753691814    -1.419341741571
H                     2.837127516931     0.101466343412    -1.948260809014
H                    -1.137047485905    -0.472782604825     0.473783114886
H                     2.104856813067    -2.562030976223    -0.109443213603
H                     2.763452941486    -0.281206230279     0.444729291022
H                     0.852747648609    -0.274453204098    -3.339890286203
H                    -2.652802500037    -1.694056613217     6.962361837916
H                    -1.734869178043    -0.235222080074     7.342748937568
H                    -3.382538746693    -0.105170086460     6.706614794210
H                    -3.213002661181     2.149746937015     2.064607144622
H                    -3.685490069791     1.699428460419     0.414298929063
H                    -1.978520368444     1.659418826757     0.911166262033
H                     2.302772428965    -0.823719447506     5.394279844404
H                     3.299427608056    -1.872133687702     4.380762846253
H                     1.875272073693    -2.532537332012     5.193006271013
H                    -1.958705994554     1.450811068898    -1.951410672860
H                    -0.750040442848     1.506869091578    -3.264693585429
H                    -0.329082818734     2.080259767297    -1.620696866462
H                    -3.069135078288    -0.674394518249     0.843244996475
H                    -4.212109338369    -0.135982805412     2.045681767279
H                     1.506686562483    -2.134838416875     2.737216356548
H                     1.903748237131    -0.438326633072     2.949325844056
