27
0 1 C9H14O3S
C                     0.910630104975     0.842755422887    -0.253413430417
C                     0.623800917032    -0.351406328702    -0.823722707238
C                     1.542526734817     2.033498806114    -0.840761827122
C                     0.076940255014    -0.844013038987     1.485400255722
C                    -0.185505944633    -1.298865019081     0.040051560372
C                    -1.674956194635    -1.233558275242    -0.352624447015
C                     4.063765265530     1.378981930182    -4.108701475521
C                     3.046374579070     2.525231548484    -4.129177093379
C                     2.612181841326     2.967848258245    -2.740549432128
O                     1.662950830634     3.090315957073    -0.238352718911
O                     0.910420228002    -0.691541685536    -2.110409093822
O                     1.965697759034     1.836098608818    -2.108002506996
S                     0.337551336888     0.981155874929     1.437006719343
H                    -0.757115346359    -1.072635268515     2.152319759571
H                     0.986007916649    -1.310406337003     1.875754360511
H                     0.173880450491    -2.330207478575    -0.085967859475
H                    -2.070108375653    -0.230394745638    -0.168076228466
H                    -2.257062228510    -1.950997369583     0.234616870682
H                    -1.820583572218    -1.467087935469    -1.412511429059
H                     4.969591600330     1.666284287220    -3.561926159204
H                     3.640896983595     0.496309379103    -3.620976477923
H                     4.360649307319     1.099941389389    -5.125115184431
H                     2.158653772653     2.229458995800    -4.700193790171
H                     3.471698444350     3.400997744286    -4.635101945197
H                     3.464058522456     3.275252057226    -2.125382115372
H                     1.905167792041     3.801905653529    -2.778609783324
H                     0.665767675565    -1.621266229390    -2.243686856461
