
  -OEChem-05262117483D

 42 45  0     1  0  0  0  0  0999 V2000
   -0.5892   -2.7985    7.4778 C   0  0  0  0  0  0  0  0  0  0  0  0
   -0.1634   -3.7852    6.5495 C   0  0  0  0  0  0  0  0  0  0  0  0
   -1.1448   -1.6180    7.0310 C   0  0  0  0  0  0  0  0  0  0  0  0
   -0.3042   -3.5731    5.1944 C   0  0  0  0  0  0  0  0  0  0  0  0
   -1.8687   -0.1676    5.1380 C   0  0  0  0  0  0  0  0  0  0  0  0
   -2.0001    0.0376    3.7818 C   0  0  0  0  0  0  0  0  0  0  0  0
   -1.0333   -2.1231    3.3127 C   0  0  0  0  0  0  0  0  0  0  0  0
   -1.3005   -1.3697    5.6392 C   0  0  0  0  0  0  0  0  0  0  0  0
   -0.8755   -2.3664    4.7025 C   0  0  0  0  0  0  0  0  0  0  0  0
   -1.5746   -0.9427    2.8412 C   0  0  0  0  0  0  0  0  0  0  0  0
    0.5065    2.0483    0.1619 C   0  0  0  0  0  0  0  0  0  0  0  0
    0.5946   -1.2848    0.5369 C   0  0  0  0  0  0  0  0  0  0  0  0
    0.7607    3.3557    0.2641 C   0  0  0  0  0  0  0  0  0  0  0  0
    0.4167    1.2617   -1.1283 C   0  0  0  0  0  0  0  0  0  0  0  0
    0.1807    1.1137    1.3169 C   0  0  0  0  0  0  0  0  0  0  0  0
   -0.6565    0.1942   -0.8318 C   0  0  1  0  0  0  0  0  0  0  0  0
   -0.4786   -1.1626   -1.5233 C   0  0  1  0  0  0  0  0  0  0  0  0
   -0.4262   -0.1453    0.6602 C   0  0  1  0  0  0  0  0  0  0  0  0
    0.0004   -1.1558   -2.9637 C   0  0  0  0  0  0  0  0  0  0  0  0
   -1.7113   -0.6706    1.3592 C   0  0  0  0  0  0  0  0  0  0  0  0
    1.3865   -1.6688    1.3647 O   0  0  0  0  0  0  0  0  0  0  0  0
    0.5013   -1.8624   -0.6983 O   0  0  0  0  0  0  0  0  0  0  0  0
   -0.4725   -2.9780    8.5435 H   0  0  0  0  0  0  0  0  0  0  0  0
    0.2781   -4.7092    6.9138 H   0  0  0  0  0  0  0  0  0  0  0  0
   -1.4694   -0.8600    7.7406 H   0  0  0  0  0  0  0  0  0  0  0  0
    0.0284   -4.3246    4.4822 H   0  0  0  0  0  0  0  0  0  0  0  0
   -2.2054    0.5911    5.8412 H   0  0  0  0  0  0  0  0  0  0  0  0
   -2.4489    0.9598    3.4184 H   0  0  0  0  0  0  0  0  0  0  0  0
   -0.6993   -2.8863    2.6146 H   0  0  0  0  0  0  0  0  0  0  0  0
    0.7918    3.8551    1.2302 H   0  0  0  0  0  0  0  0  0  0  0  0
    0.9560    3.9681   -0.6133 H   0  0  0  0  0  0  0  0  0  0  0  0
    0.1870    1.8825   -1.9979 H   0  0  0  0  0  0  0  0  0  0  0  0
    1.3823    0.7742   -1.3178 H   0  0  0  0  0  0  0  0  0  0  0  0
    1.0662    0.8479    1.9025 H   0  0  0  0  0  0  0  0  0  0  0  0
   -0.5241    1.5810    2.0089 H   0  0  0  0  0  0  0  0  0  0  0  0
   -1.6567    0.6003   -1.0128 H   0  0  0  0  0  0  0  0  0  0  0  0
   -1.4125   -1.7333   -1.4555 H   0  0  0  0  0  0  0  0  0  0  0  0
    0.9630   -0.6483   -3.0613 H   0  0  0  0  0  0  0  0  0  0  0  0
   -0.7322   -0.6396   -3.5932 H   0  0  0  0  0  0  0  0  0  0  0  0
    0.1124   -2.1786   -3.3338 H   0  0  0  0  0  0  0  0  0  0  0  0
   -2.0535   -1.5773    0.8475 H   0  0  0  0  0  0  0  0  0  0  0  0
   -2.4856    0.0884    1.2011 H   0  0  0  0  0  0  0  0  0  0  0  0
  1  2  1  0  0  0  0
  1  3  2  0  0  0  0
  1 23  1  0  0  0  0
  2  4  2  0  0  0  0
  2 24  1  0  0  0  0
  3  8  1  0  0  0  0
  3 25  1  0  0  0  0
  4  9  1  0  0  0  0
  4 26  1  0  0  0  0
  5  6  2  0  0  0  0
  5  8  1  0  0  0  0
  5 27  1  0  0  0  0
  6 10  1  0  0  0  0
  6 28  1  0  0  0  0
  7  9  1  0  0  0  0
  7 10  2  0  0  0  0
  7 29  1  0  0  0  0
  8  9  2  0  0  0  0
 10 20  1  0  0  0  0
 11 13  2  0  0  0  0
 11 14  1  0  0  0  0
 11 15  1  0  0  0  0
 12 18  1  0  0  0  0
 12 21  2  0  0  0  0
 12 22  1  0  0  0  0
 13 30  1  0  0  0  0
 13 31  1  0  0  0  0
 14 16  1  0  0  0  0
 14 32  1  0  0  0  0
 14 33  1  0  0  0  0
 15 18  1  0  0  0  0
 15 34  1  0  0  0  0
 15 35  1  0  0  0  0
 16 17  1  0  0  0  0
 16 18  1  0  0  0  0
 16 36  1  0  0  0  0
 17 19  1  0  0  0  0
 17 22  1  0  0  0  0
 17 37  1  0  0  0  0
 18 20  1  0  0  0  0
 19 38  1  0  0  0  0
 19 39  1  0  0  0  0
 19 40  1  0  0  0  0
 20 41  1  0  0  0  0
 20 42  1  0  0  0  0
M  END
$$$$
