37
0 1 C12H21N3O
C                     0.242432093110     3.765821900925     3.045347821820
C                     1.510192414421     3.234952799586     1.455213130069
C                    -0.051917427969     1.657602838740    -0.754496157296
C                    -1.080614631131     1.315620674608    -1.551002206359
C                    -1.190075482210     1.878335824531    -2.948115472897
C                    -2.201315695412     0.384562837022    -1.157766599364
C                     2.190747925971     0.401931629016     3.112579553598
C                     2.579436895290    -1.713013386644     1.850300899636
C                     0.263049392874    -1.152933645066     2.656363994959
C                     0.193933684391     1.194517162879     0.664150361839
C                     1.322665478520     0.120939530295     0.718802397713
C                     1.570016226177    -0.569436578932     2.088992778805
N                     1.393265111029     4.144354139202     2.416032978797
N                    -0.347825666982     2.688894132090     2.534490546263
N                     0.484768283435     2.354211406651     1.509306561187
O                     0.983186592475    -0.906370561811    -0.214907157460
H                    -0.173354210214     4.291281959197     3.895286301456
H                     2.309007988627     3.177686633583     0.727961915469
H                     0.698506890611     2.341202251690    -1.152336516209
H                    -1.216798052915     1.073803617711    -3.693480926136
H                    -2.124720030013     2.441591624227    -3.060565794209
H                    -0.358004157791     2.544817042647    -3.189579256380
H                    -3.161654955981     0.911557403369    -1.210624481072
H                    -2.093529393865    -0.033617638632    -0.157065140817
H                    -2.262798165509    -0.452899183892    -1.863148068161
H                     1.489646193740     1.163985214771     3.455345497972
H                     3.076881057879     0.903643537016     2.707887508705
H                     2.511046223087    -0.163038397919     3.994644016561
H                     2.178374900227    -2.468790766635     1.172848065199
H                     2.826660079489    -2.193115956946     2.803307684978
H                     3.511645878522    -1.330912170879     1.417190408664
H                    -0.232668694197    -1.793384069969     1.920669636253
H                     0.479904181766    -1.760610902913     3.541401433702
H                    -0.432275168870    -0.366403491317     2.966795280264
H                    -0.710146990043     0.762615937085     1.084663916314
H                     2.266720225907     0.601504416268     0.410786716415
H                     0.742325092034    -0.472331708799    -1.051275263244
