
  -OEChem-05262117483D

 49 51  0     1  0  0  0  0  0999 V2000
    1.0323    0.2993    4.8077 C   0  0  0  0  0  0  0  0  0  0  0  0
    3.3280   -0.2512    4.3937 C   0  0  0  0  0  0  0  0  0  0  0  0
    1.8210    0.0833    2.5277 C   0  0  0  0  0  0  0  0  0  0  0  0
    2.2991    0.0035    5.3098 C   0  0  0  0  0  0  0  0  0  0  0  0
    0.7738    0.3413    3.4305 C   0  0  0  0  0  0  0  0  0  0  0  0
    3.1157   -0.2167    3.0139 C   0  0  0  0  0  0  0  0  0  0  0  0
    1.7233   -1.1983    0.2678 C   0  0  0  0  0  0  0  0  0  0  0  0
    2.3582    1.1453    0.2099 C   0  0  0  0  0  0  0  0  0  0  0  0
    1.0662   -1.0656   -2.1985 C   0  0  0  0  0  0  0  0  0  0  0  0
    1.7301    1.2557   -2.2700 C   0  0  0  0  0  0  0  0  0  0  0  0
    1.5736    0.1193    1.0391 C   0  0  0  0  0  0  0  0  0  0  0  0
    2.1990   -0.9073   -1.1533 C   0  0  1  0  0  0  0  0  0  0  0  0
    2.6142    0.5870   -1.1885 C   0  0  2  0  0  0  0  0  0  0  0  0
    1.3166    0.0954   -3.1802 C   0  0  0  0  0  0  0  0  0  0  0  0
    2.5583   -0.0663    6.7971 C   0  0  0  0  0  0  0  0  0  0  0  0
   -1.4073   -0.6750    2.6098 C   0  0  0  0  0  0  0  0  0  0  0  0
    5.5904   -0.9214    2.6708 C   0  0  0  0  0  0  0  0  0  0  0  0
   -0.1676   -0.4704   -4.9490 C   0  0  0  0  0  0  0  0  0  0  0  0
   -0.6479    0.6132    2.9788 C   0  0  0  0  0  0  0  0  0  0  0  0
    4.2585   -0.4904    2.0488 C   0  0  0  0  0  0  0  0  0  0  0  0
    1.4653   -2.3037    0.6998 O   0  0  0  0  0  0  0  0  0  0  0  0
    2.6929    2.2495    0.5870 O   0  0  0  0  0  0  0  0  0  0  0  0
    0.1928    0.4782   -3.9538 O   0  0  0  0  0  0  0  0  0  0  0  0
    0.2180    0.5032    5.5007 H   0  0  0  0  0  0  0  0  0  0  0  0
    4.3170   -0.4795    4.7788 H   0  0  0  0  0  0  0  0  0  0  0  0
    1.0712   -2.0554   -2.6589 H   0  0  0  0  0  0  0  0  0  0  0  0
    0.0808   -0.9173   -1.7405 H   0  0  0  0  0  0  0  0  0  0  0  0
    0.8208    1.6834   -1.8327 H   0  0  0  0  0  0  0  0  0  0  0  0
    2.2453    2.0576   -2.8013 H   0  0  0  0  0  0  0  0  0  0  0  0
    0.5280    0.4012    0.8512 H   0  0  0  0  0  0  0  0  0  0  0  0
    3.0284   -1.5815   -1.3828 H   0  0  0  0  0  0  0  0  0  0  0  0
    3.6741    0.7231   -1.4197 H   0  0  0  0  0  0  0  0  0  0  0  0
    2.1532   -0.1694   -3.8496 H   0  0  0  0  0  0  0  0  0  0  0  0
    2.5944   -1.1073    7.1405 H   0  0  0  0  0  0  0  0  0  0  0  0
    3.5162    0.3955    7.0576 H   0  0  0  0  0  0  0  0  0  0  0  0
    1.7727    0.4413    7.3643 H   0  0  0  0  0  0  0  0  0  0  0  0
   -0.8963   -1.2359    1.8214 H   0  0  0  0  0  0  0  0  0  0  0  0
   -2.4244   -0.4474    2.2719 H   0  0  0  0  0  0  0  0  0  0  0  0
   -1.4748   -1.3380    3.4783 H   0  0  0  0  0  0  0  0  0  0  0  0
    6.0066   -0.1437    3.3188 H   0  0  0  0  0  0  0  0  0  0  0  0
    6.3227   -1.1178    1.8812 H   0  0  0  0  0  0  0  0  0  0  0  0
    5.4832   -1.8370    3.2613 H   0  0  0  0  0  0  0  0  0  0  0  0
   -0.9752   -0.0250   -5.5339 H   0  0  0  0  0  0  0  0  0  0  0  0
   -0.5242   -1.4117   -4.5087 H   0  0  0  0  0  0  0  0  0  0  0  0
    0.6795   -0.6903   -5.6160 H   0  0  0  0  0  0  0  0  0  0  0  0
   -1.1819    1.1207    3.7885 H   0  0  0  0  0  0  0  0  0  0  0  0
   -0.6650    1.3143    2.1360 H   0  0  0  0  0  0  0  0  0  0  0  0
    3.9490   -1.2731    1.3459 H   0  0  0  0  0  0  0  0  0  0  0  0
    4.4376    0.4099    1.4497 H   0  0  0  0  0  0  0  0  0  0  0  0
  1  4  1  0  0  0  0
  1  5  2  0  0  0  0
  1 24  1  0  0  0  0
  2  4  2  0  0  0  0
  2  6  1  0  0  0  0
  2 25  1  0  0  0  0
  3  5  1  0  0  0  0
  3  6  2  0  0  0  0
  3 11  1  0  0  0  0
  4 15  1  0  0  0  0
  5 19  1  0  0  0  0
  6 20  1  0  0  0  0
  7 11  1  0  0  0  0
  7 12  1  0  0  0  0
  7 21  2  0  0  0  0
  8 11  1  0  0  0  0
  8 13  1  0  0  0  0
  8 22  2  0  0  0  0
  9 12  1  0  0  0  0
  9 14  1  0  0  0  0
  9 26  1  0  0  0  0
  9 27  1  0  0  0  0
 10 13  1  0  0  0  0
 10 14  1  0  0  0  0
 10 28  1  0  0  0  0
 10 29  1  0  0  0  0
 11 30  1  0  0  0  0
 12 13  1  0  0  0  0
 12 31  1  0  0  0  0
 13 32  1  0  0  0  0
 14 23  1  0  0  0  0
 14 33  1  0  0  0  0
 15 34  1  0  0  0  0
 15 35  1  0  0  0  0
 15 36  1  0  0  0  0
 16 19  1  0  0  0  0
 16 37  1  0  0  0  0
 16 38  1  0  0  0  0
 16 39  1  0  0  0  0
 17 20  1  0  0  0  0
 17 40  1  0  0  0  0
 17 41  1  0  0  0  0
 17 42  1  0  0  0  0
 18 23  1  0  0  0  0
 18 43  1  0  0  0  0
 18 44  1  0  0  0  0
 18 45  1  0  0  0  0
 19 46  1  0  0  0  0
 19 47  1  0  0  0  0
 20 48  1  0  0  0  0
 20 49  1  0  0  0  0
M  END
$$$$
