
  -OEChem-05262117483D

 42 45  0     1  0  0  0  0  0999 V2000
   -7.5139    2.3630   -0.8450 C   0  0  0  0  0  0  0  0  0  0  0  0
   -7.2397    1.3808   -1.8331 C   0  0  0  0  0  0  0  0  0  0  0  0
   -6.6556    2.5338    0.2210 C   0  0  0  0  0  0  0  0  0  0  0  0
   -6.1133    0.5911   -1.7364 C   0  0  0  0  0  0  0  0  0  0  0  0
   -4.5840    1.8711    1.4373 C   0  0  0  0  0  0  0  0  0  0  0  0
   -3.4573    1.0835    1.5264 C   0  0  0  0  0  0  0  0  0  0  0  0
   -4.0355   -0.0470   -0.5245 C   0  0  0  0  0  0  0  0  0  0  0  0
   -5.4855    1.7356    0.3468 C   0  0  0  0  0  0  0  0  0  0  0  0
   -5.2070    0.7465   -0.6509 C   0  0  0  0  0  0  0  0  0  0  0  0
   -3.1542    0.1129    0.5291 C   0  0  0  0  0  0  0  0  0  0  0  0
    0.1172    2.1399   -0.7292 C   0  0  0  0  0  0  0  0  0  0  0  0
    0.4431   -1.1451   -0.0592 C   0  0  0  0  0  0  0  0  0  0  0  0
    0.2414    3.4695   -0.7208 C   0  0  0  0  0  0  0  0  0  0  0  0
    0.1824    1.2500   -1.9505 C   0  0  0  0  0  0  0  0  0  0  0  0
   -0.1964    1.2697    0.4770 C   0  0  0  0  0  0  0  0  0  0  0  0
   -0.8161    0.1171   -1.6325 C   0  0  1  0  0  0  0  0  0  0  0  0
   -0.4670   -1.2654   -2.1918 C   0  0  1  0  0  0  0  0  0  0  0  0
   -0.6642   -0.0825   -0.1079 C   0  0  1  0  0  0  0  0  0  0  0  0
    0.1001   -1.3305   -3.5978 C   0  0  0  0  0  0  0  0  0  0  0  0
   -1.8913   -0.7099    0.6173 C   0  0  0  0  0  0  0  0  0  0  0  0
    1.1553   -1.4225    0.8775 O   0  0  0  0  0  0  0  0  0  0  0  0
    0.5176   -1.7993   -1.2537 O   0  0  0  0  0  0  0  0  0  0  0  0
   -8.4051    2.9787   -0.9329 H   0  0  0  0  0  0  0  0  0  0  0  0
   -7.9245    1.2539   -2.6675 H   0  0  0  0  0  0  0  0  0  0  0  0
   -6.8650    3.2839    0.9803 H   0  0  0  0  0  0  0  0  0  0  0  0
   -5.9048   -0.1623   -2.4930 H   0  0  0  0  0  0  0  0  0  0  0  0
   -4.7996    2.6042    2.2113 H   0  0  0  0  0  0  0  0  0  0  0  0
   -2.7935    1.1878    2.3813 H   0  0  0  0  0  0  0  0  0  0  0  0
   -3.8421   -0.8072   -1.2798 H   0  0  0  0  0  0  0  0  0  0  0  0
    0.1585    4.0431    0.1999 H   0  0  0  0  0  0  0  0  0  0  0  0
    0.4340    4.0288   -1.6336 H   0  0  0  0  0  0  0  0  0  0  0  0
   -0.0410    1.7776   -2.8810 H   0  0  0  0  0  0  0  0  0  0  0  0
    1.1970    0.8387   -2.0396 H   0  0  0  0  0  0  0  0  0  0  0  0
    0.6775    1.1200    1.1197 H   0  0  0  0  0  0  0  0  0  0  0  0
   -0.9731    1.7343    1.0868 H   0  0  0  0  0  0  0  0  0  0  0  0
   -1.8266    0.4194   -1.9157 H   0  0  0  0  0  0  0  0  0  0  0  0
   -1.3457   -1.9194   -2.1256 H   0  0  0  0  0  0  0  0  0  0  0  0
    1.0158   -0.7411   -3.6861 H   0  0  0  0  0  0  0  0  0  0  0  0
   -0.6356   -0.9407   -4.3093 H   0  0  0  0  0  0  0  0  0  0  0  0
    0.3292   -2.3644   -3.8706 H   0  0  0  0  0  0  0  0  0  0  0  0
   -1.6066   -0.8624    1.6634 H   0  0  0  0  0  0  0  0  0  0  0  0
   -2.0789   -1.7055    0.2002 H   0  0  0  0  0  0  0  0  0  0  0  0
  1  2  1  0  0  0  0
  1  3  2  0  0  0  0
  1 23  1  0  0  0  0
  2  4  2  0  0  0  0
  2 24  1  0  0  0  0
  3  8  1  0  0  0  0
  3 25  1  0  0  0  0
  4  9  1  0  0  0  0
  4 26  1  0  0  0  0
  5  6  2  0  0  0  0
  5  8  1  0  0  0  0
  5 27  1  0  0  0  0
  6 10  1  0  0  0  0
  6 28  1  0  0  0  0
  7  9  1  0  0  0  0
  7 10  2  0  0  0  0
  7 29  1  0  0  0  0
  8  9  2  0  0  0  0
 10 20  1  0  0  0  0
 11 13  2  0  0  0  0
 11 14  1  0  0  0  0
 11 15  1  0  0  0  0
 12 18  1  0  0  0  0
 12 21  2  0  0  0  0
 12 22  1  0  0  0  0
 13 30  1  0  0  0  0
 13 31  1  0  0  0  0
 14 16  1  0  0  0  0
 14 32  1  0  0  0  0
 14 33  1  0  0  0  0
 15 18  1  0  0  0  0
 15 34  1  0  0  0  0
 15 35  1  0  0  0  0
 16 17  1  0  0  0  0
 16 18  1  0  0  0  0
 16 36  1  0  0  0  0
 17 19  1  0  0  0  0
 17 22  1  0  0  0  0
 17 37  1  0  0  0  0
 18 20  1  0  0  0  0
 19 38  1  0  0  0  0
 19 39  1  0  0  0  0
 19 40  1  0  0  0  0
 20 41  1  0  0  0  0
 20 42  1  0  0  0  0
M  END
$$$$
