25   
torsion grid (-165,)
C        2.0604335565   -1.0193202758   -0.0724469551
C        3.0592694515   -1.0653258657    8.7078528218
C        3.3307904916   -1.2206988772    7.3515393405
C        1.9297092937    0.1896837673    0.6129883597
C        2.0128992470   -2.2323905833    0.6156146893
C        1.7231401381   -0.9801228225    9.1176701240
C        0.9580961008   -1.1983746892    6.9723852629
C        2.2584931082   -1.2715386320    6.4511375525
C        1.7328074147   -1.0344651172    2.7245623610
C        1.7769219340    0.1686265225    1.9980796848
C        1.8325974571   -2.2361845716    1.9996431481
C        2.5659803009   -1.4413583593    4.9947825625
N        0.6836865543   -1.0545180861    8.2752999577
N        1.5697011785   -1.0221061275    4.1273026565
O        3.6187882570   -1.9291847526    4.6036974648
Cl       1.6343473102    1.6899894541    2.8613907702
Cl       1.6851790640   -3.7668340246    2.8220072881
H        2.1929051939   -1.0158946643   -1.1503390827
H        3.8596842479   -1.0130544343    9.4402124854
H        4.3444219644   -1.3052808432    6.9713183076
H        1.9587851852    1.1384871482    0.0879043771
H        2.0964799518   -3.1760210121    0.0869967016
H        1.4768219415   -0.8535271905   10.1707775320
H        0.0896016066   -1.2937729456    6.3216423396
H        0.8396994551   -0.4264914126    4.4967337137
25   
torsion grid (-150,)
C        2.0142592863   -1.0201497229   -0.0613919609
C        3.0526223715   -1.0983886762    8.7113203494
C        3.3266417474   -1.2311269780    7.3532523270
C        1.8834961362    0.1918529283    0.6184118762
C        1.9744767375   -2.2286727972    0.6353127589
C        1.7150680129   -1.0281322164    9.1203594647
C        0.9524046628   -1.2217257001    6.9717067512
C        2.2545259340   -1.2781865900    6.4520731350
C        1.7005087782   -1.0203845960    2.7392117851
C        1.7378846806    0.1775779825    2.0041101754
C        1.8016299619   -2.2254585280    2.0198742064
C        2.5553589607   -1.4223372105    4.9938327739
N        0.6763760511   -1.0970508778    8.2764841831
N        1.5308364569   -1.0090389695    4.1413530507
O        3.6169549999   -1.8707617199    4.5843460049
Cl       1.5943761996    1.7069205936    2.8583367304
Cl       1.6680157738   -3.7527810071    2.8524801814
H        2.1405987347   -1.0227139420   -1.1399443824
H        3.8515845435   -1.0508489301    9.4455736952
H        4.3414226184   -1.3004858781    6.9728179346
H        1.9067672460    1.1380956659    0.0884402621
H        2.0587269706   -3.1755044156    0.1125388277
H        1.4672178271   -0.9180342212   10.1750015088
H        0.0894572875   -1.3134339717    6.3141054304
H        0.9423040652   -0.2631094749    4.4945463005
25   
torsion grid (-135,)
C        1.9993494683   -1.0782040405   -0.0627014377
C        3.0378230419   -1.1458902086    8.7179734503
C        3.3313199397   -1.2143709288    7.3594006153
C        1.8854832889    0.1576419645    0.5753522226
C        1.9549358104   -2.2606635820    0.6776419258
C        1.6935634256   -1.1249799357    9.1112595567
C        0.9607105337   -1.2467205553    6.9468481066
C        2.2707530183   -1.2514977639    6.4436566119
C        1.7054195191   -0.9749900127    2.7407377568
C        1.7495912827    0.1940851764    1.9616742591
C        1.7937058104   -2.2046032835    2.0617788160
C        2.5824178354   -1.3296872357    4.9856266007
N        0.6665664173   -1.1822074966    8.2521438930
N        1.5316785722   -0.9221862768    4.1427006379
O        3.6671484107   -1.6985813654    4.5623712505
Cl       1.6262782556    1.7572485755    2.7599567461
Cl       1.6651123717   -3.7006841759    2.9530664378
H        2.1169354286   -1.1201610624   -1.1413617375
H        3.8259982307   -1.1095950235    9.4644148555
H        4.3522368345   -1.2412393045    6.9899842883
H        1.9136943606    1.0844790662    0.0123468491
H        2.0281447306   -3.2266803194    0.1893618324
H        1.4306343655   -1.0651496723   10.1663556273
H        0.1126924920   -1.3278206683    6.2697801229
H        1.0727097857   -0.0711189236    4.4536311654
25   
torsion grid (-120,)
C        1.9514894345   -1.1572558051   -0.0478901125
C        3.0194661528   -1.2363354065    8.7285170768
C        3.3374667166   -1.2179882927    7.3741777406
C        1.8563384698    0.1091522346    0.5299658310
C        1.9168850685   -2.3000846665    0.7534127476
C        1.6680897693   -1.2627510793    9.0974825343
C        0.9730460562   -1.2680168455    6.9174649943
C        2.2920455855   -1.2213352098    6.4396615523
C        1.7093475838   -0.9110762003    2.7546322794
C        1.7461463970    0.2154223950    1.9150789858
C        1.7829550047   -2.1726350410    2.1350276702
C        2.6210289064   -1.2061055837    4.9866096318
N        0.6562045835   -1.2853308506    8.2189514936
N        1.5444544257   -0.7954588176    4.1546567094
O        3.7289504969   -1.4783926114    4.5549234546
Cl       1.6457704770    1.8196016153    2.6343953493
Cl       1.6779090533   -3.6209828244    3.1081995192
H        2.0478101322   -1.2542321087   -1.1250601575
H        3.7935847344   -1.2298558738    9.4903484593
H        4.3648582439   -1.2018565136    7.0224167115
H        1.8784801867    1.0067157836   -0.0789277831
H        1.9781513413   -3.2901990734    0.3142053701
H        1.3866695160   -1.2707755865   10.1495249242
H        0.1420141491   -1.3180230922    6.2176215503
H        1.2107731616    0.1317279359    4.4084640124
25   
torsion grid (-105,)
C        1.9006122834   -1.2513286739   -0.0176828574
C        3.0006189275   -1.3606637838    8.7232914628
C        3.3446788284   -1.2254012931    7.3823874875
C        1.8273832200    0.0500909269    0.4796959392
C        1.8732151042   -2.3394064552    0.8572698263
C        1.6428187002   -1.4466842506    9.0592786178
C        0.9898617759   -1.2889250808    6.8717641194
C        2.3172584604   -1.1772353611    6.4284641651
C        1.7157725846   -0.8211498007    2.7695367111
C        1.7454391648    0.2472576153    1.8568626779
C        1.7683079841   -2.1200491019    2.2291335503
C        2.6674338905   -1.0382892754    4.9903011217
N        0.6486752019   -1.4182568321    8.1607848056
N        1.5697182308   -0.6216344101    4.1624221626
O        3.7968644598   -1.1981902589    4.5624839498
Cl       1.6730969935    1.8966640978    2.4715358204
Cl       1.6780053058   -3.5007221779    3.3011989553
H        1.9744881855   -1.4184896138   -1.0879432044
H        3.7588111018   -1.3984867339    9.5000629460
H        4.3781560000   -1.1564460510    7.0556935026
H        1.8448387918    0.9063445794   -0.1862227306
H        1.9185334716   -3.3566678844    0.4828484016
H        1.3413341131   -1.5467514884   10.1010489662
H        0.1773235139   -1.2934568747    6.1496679516
H        1.3514242462    0.3567045018    4.3469806500
25   
torsion grid (-90,)
C        1.8440336095   -1.3534916556    0.0358432081
C        2.9728365410   -1.5136382301    8.6977690927
C        3.3486913548   -1.2462766549    7.3857835411
C        1.7826852807   -0.0190010758    0.4380276180
C        1.8468798207   -2.3726807909    0.9906456211
C        1.6076545297   -1.6404393882    8.9885118498
C        1.0067745095   -1.2728103110    6.8112924212
C        2.3444226754   -1.1135477911    6.4147165783
C        1.7381241938   -0.7151394396    2.7909337081
C        1.7398430189    0.2810153859    1.7982427756
C        1.7820068559   -2.0499297465    2.3439571431
C        2.7252791009   -0.8341644985    5.0077815087
N        0.6353024675   -1.5285655179    8.0726357166
N        1.6176147983   -0.4142868157    4.1673384121
O        3.8736692274   -0.8710274963    4.6075623811
Cl       1.6821872862    1.9726820991    2.2876557631
Cl       1.7357427950   -3.3469265861    3.5214860552
H        1.8862440232   -1.5998885883   -1.0206565491
H        3.7115734043   -1.6223279264    9.4864989786
H        4.3893423878   -1.1384263946    7.0943652348
H        1.7790632332    0.7855067611   -0.2898184103
H        1.8851717467   -3.4153613526    0.6931337990
H        1.2814540853   -1.8443717979   10.0074781052
H        0.2145205106   -1.2048144189    6.0708988745
H        1.5043092514    0.5946189306    4.2703662881
25   
torsion grid (-75,)
C        0.9765690402   -2.0318715629    1.3782939107
C        2.2125978199   -2.2619401838    7.7455120902
C        3.1306161794   -1.5262473042    7.0027395418
C        0.6533887479   -0.6814877905    1.5191986280
C        2.0789129352   -2.5564352033    2.0541416808
C        0.8489665443   -2.1002396251    7.4708874207
C        1.2658265813   -0.5769531617    5.8154377252
C        2.6534299531   -0.6731296875    5.9987816668
C        2.5418378461   -0.3735652784    3.0653705521
C        1.4268645340    0.1181749251    2.3554587702
C        2.8576468329   -1.7340433145    2.8667904652
C        3.6316049491    0.1578853351    5.2332879616
N        0.3726051964   -1.2663623704    6.5361479855
N        3.3460957610    0.4652725211    3.8582336037
O        4.6776082785    0.5306771076    5.7300750010
Cl       0.9748525945    1.8085045016    2.5574055144
Cl       4.2788447731   -2.4189161906    3.6270919908
H        0.3756907569   -2.6706372199    0.7384909195
H        2.5359107850   -2.9465345286    8.5242358846
H        4.2001771114   -1.6011569419    7.1743019039
H       -0.1971952480   -0.2517129487    1.0007731993
H        2.3538971738   -3.5998431142    1.9413203230
H        0.1048041803   -2.6637362320    8.0318681230
H        0.8494200248    0.1014503427    5.0750783437
H        3.0868045530    1.4422863091    3.7446190008
25   
torsion grid (-60,)
C        0.9464132017   -1.9888005418    1.3819615545
C        2.2368047848   -2.2710236557    7.7818661421
C        3.1299438981   -1.4934805604    7.0514274199
C        0.6778539315   -0.6244121401    1.5022985951
C        2.0116071556   -2.5546380892    2.0836390737
C        0.8742765841   -2.1904203846    7.4691974260
C        1.2471426678   -0.6659917215    5.8038718310
C        2.6326429562   -0.6835344079    6.0221833383
C        2.5428784997   -0.3833623451    3.0827957553
C        1.4661935481    0.1518596579    2.3472439223
C        2.8088279113   -1.7567296780    2.9030811205
C        3.5834611317    0.1970063915    5.2767833774
N        0.3759066202   -1.3960729789    6.5118013336
N        3.3602507041    0.4265258780    3.8916166544
O        4.5669996513    0.6737929507    5.8182425906
Cl       1.0853352281    1.8600960278    2.5267357385
Cl       4.1865511191   -2.4894733664    3.6957173505
H        0.3310172445   -2.6079868122    0.7366221911
H        2.5779363098   -2.9248981194    8.5792110309
H        4.1968409095   -1.5030975587    7.2531174065
H       -0.1432768244   -0.1654027355    0.9619646394
H        2.2434181361   -3.6098788403    1.9851961858
H        0.1485256028   -2.7880589395    8.0188271876
H        0.8129308674   -0.0192368993    5.0457823172
H        3.2707167249    1.4166955621    3.6811158200
25   
torsion grid (-45,)
C        0.9177182802   -1.9571902181    1.3634170439
C        2.2706350227   -2.2489956069    7.8134574635
C        3.1356204115   -1.4380633140    7.0853510515
C        0.6905117070   -0.5838348070    1.4669652705
C        1.9533898192   -2.5535627378    2.0836840031
C        0.9129586686   -2.2534683358    7.4710634715
C        1.2373418578   -0.7441871290    5.7815071248
C        2.6166796948   -0.6809702275    6.0271855188
C        2.5360751049   -0.3928414306    3.0735662506
C        1.4902745424    0.1741534345    2.3184773930
C        2.7641424995   -1.7743401348    2.9083557948
C        3.5373350330    0.2340946482    5.2841854373
N        0.3927458758   -1.5076350540    6.4868825512
N        3.3561684126    0.3984880779    3.8988880691
O        4.4621772264    0.8010537211    5.8483718693
Cl       1.1668808045    1.8935010221    2.4792457737
Cl       4.1059381971   -2.5424533939    3.7259562219
H        0.2916108902   -2.5616669064    0.7143432068
H        2.6300616612   -2.8644796348    8.6330089107
H        4.1961715008   -1.3811993189    7.3113769201
H       -0.1072745198   -0.1041324576    0.9099031713
H        2.1514456038   -3.6165644728    1.9960382753
H        0.2099195065   -2.8796312830    8.0184946481
H        0.7837488874   -0.1371509891    5.0023519003
H        3.4445438018    1.3662933310    3.6044945926
25   
torsion grid (-30,)
C        0.8916858745   -1.9300516072    1.3297132053
C        2.2901572754   -2.2206291635    7.8484770305
C        3.1285165343   -1.3840498036    7.1179290905
C        0.6949411178   -0.5512458747    1.4231615552
C        1.8998418146   -2.5487048774    2.0698011629
C        0.9403882742   -2.2962820952    7.4844126712
C        1.2228050472   -0.8042292464    5.7718584387
C        2.5937964894   -0.6733865380    6.0360146364
C        2.5147518487   -0.3983625199    3.0607608680
C        1.4967886679    0.1921970368    2.2861060565
C        2.7146199487   -1.7848736629    2.9053881206
C        3.4886615587    0.2623896474    5.2861127246
N        0.4029197005   -1.5939010466    6.4779764023
N        3.3258282577    0.3819605772    3.9059840052
O        4.3670666462    0.8993983916    5.8548942660
Cl       1.2142412981    1.9172917860    2.4339055361
Cl       4.0217512016   -2.5811346139    3.7498278052
H        0.2622662838   -2.5224096394    0.6726044413
H        2.6641466050   -2.8019481998    8.6863041588
H        4.1809622958   -1.2724865660    7.3608717782
H       -0.0812731728   -0.0557745740    0.8496952596
H        2.0730497221   -3.6165977147    1.9899002474
H        0.2582707017   -2.9445586152    8.0325933622
H        0.7538015673   -0.2328180067    4.9750661737
H        3.5960828047    1.2948024406    3.5533035395
25   
torsion grid (-15,)
C        0.8842125953   -1.9454574979    1.3086657504
C        2.2822834542   -2.1873803002    7.8367415102
C        3.1156255147   -1.3503571650    7.1005734920
C        0.6633771669   -0.5705306371    1.4060980345
C        1.9053312024   -2.5508886075    2.0418393060
C        0.9310429745   -2.2690555734    7.4798506448
C        1.2014163384   -0.7799681646    5.7623931420
C        2.5731775418   -0.6450133217    6.0195024494
C        2.4865876742   -0.3931766496    3.0346757285
C        1.4564025704    0.1851119316    2.2673511009
C        2.7100761937   -1.7752670839    2.8767937481
C        3.4644317420    0.2851702831    5.2572296685
N        0.3871795287   -1.5709465996    6.4738561139
N        3.2756881921    0.4034288810    3.8886641012
O        4.3341198546    0.9435167323    5.8182455511
Cl       1.1485859428    1.9025888771    2.4209866457
Cl       4.0318554037   -2.5502929544    3.7171256170
H        0.2616025250   -2.5465578983    0.6528445950
H        2.6619182606   -2.7648710642    8.6746752878
H        4.1686422915   -1.2344962807    7.3390706530
H       -0.1240096575   -0.0877994012    0.8370515483
H        2.0949339232   -3.6156493499    1.9579136391
H        0.2535984465   -2.9177278633    8.0333875834
H        0.7273095990   -0.2110106917    4.9666895001
H        3.7290050671    1.2188764250    3.4879816016
25   
torsion grid (0,)
C        1.0696076882   -0.0922527194    1.4738142913
C        2.2639447443   -0.1406721337    7.9422608573
C        3.0424629721   -1.0329143657    7.2103466067
C        2.1830406108    0.3285435868    2.2017648486
C        0.6201732245   -1.4106290287    1.5646639927
C        0.9164336163    0.0105630417    7.5945451723
C        1.0880975093   -1.5148813329    5.8964896796
C        2.4523861875   -1.7230035825    6.1449553444
C        2.3991311065   -1.9060255634    3.1739760727
C        2.8484242526   -0.5789743992    3.0266985303
C        1.2821091559   -2.2980296229    2.4118565452
C        3.2853384703   -2.7050866923    5.3814581729
N        0.3254707246   -0.6698754719    6.6029208426
N        3.0411028484   -2.8380963644    4.0240596661
O        4.1258171667   -3.4065242100    5.9348183043
Cl       4.2822270844   -0.0440076965    3.8715064704
Cl       0.6921919163   -3.9385925775    2.5526949263
H        0.5520336548    0.6100707295    0.8271486701
H        2.6824527532    0.4261988726    8.7688692403
H        4.0896741265   -1.2034879886    7.4413936968
H        2.5475954993    1.3472372621    2.1237089438
H       -0.2418826378   -1.7481738145    0.9992964530
H        0.2809036229    0.7036863080    8.1438997598
H        0.5763190787   -2.0710110533    5.1152470191
H        3.6187173121   -3.5504428284    3.5862791693
25   
torsion grid (15,)
C        1.0366348127   -0.1293063637    1.4336800415
C        2.2877205463   -0.1983460811    8.0062371030
C        3.0356464491   -1.1087865860    7.2656044986
C        2.0975496921    0.3372516978    2.2104953392
C        0.6580675954   -1.4718563868    1.4874876157
C        0.9652588821    0.0498910617    7.6197614236
C        1.1041874038   -1.4175167132    5.8680309500
C        2.4435517516   -1.7191323118    6.1531088998
C        2.3992682981   -1.8964194551    3.1604131254
C        2.7831959120   -0.5454409226    3.0454764221
C        1.3336753660   -2.3335052885    2.3492645927
C        3.2405462376   -2.7281263322    5.3870851647
N        0.3699460159   -0.5542741972    6.5825504056
N        3.0646551022   -2.7994841240    4.0133761042
O        4.0239559615   -3.4872594669    5.9479470903
Cl       4.1599461887    0.0532088059    3.9401122160
Cl       0.8280890551   -4.0076594609    2.4472099011
H        0.5065965025    0.5547406330    0.7777956323
H        2.7100938783    0.3093526536    8.8685725627
H        4.0613295522   -1.3537251657    7.5246148228
H        2.4099298869    1.3748773137    2.1605624079
H       -0.1614897929   -1.8476480414    0.8842126401
H        0.3538844427    0.7599114476    8.1749038194
H        0.5873412603   -1.9074632540    5.0468724624
H        3.4349972036   -3.6521389508    3.6048763031
25   
torsion grid (30,)
C        1.0433706765   -0.1479319117    1.4617223151
C        2.3186684884   -0.1398181334    8.0121896160
C        3.0752050352   -1.0504450193    7.2808747435
C        2.0970574981    0.3402598307    2.2351888101
C        0.6927968578   -1.4977719146    1.5214924709
C        0.9941475155    0.0926930784    7.6226716126
C        1.1476151557   -1.3884645948    5.8844443913
C        2.4893398660   -1.6762610709    6.1733451328
C        2.4471154311   -1.8837435053    3.1918576078
C        2.8030648277   -0.5254157606    3.0704509970
C        1.3875813833   -2.3423034457    2.3842654689
C        3.2914415967   -2.6913782020    5.4216922307
N        0.4047815934   -0.5260362560    6.5907096238
N        3.1473888637   -2.7656003625    4.0363042714
O        4.0807333645   -3.4330560635    5.9942481752
Cl       4.1711606008    0.1039627587    3.9580904938
Cl       0.9121025935   -4.0276958694    2.4891656563
H        0.4985068290    0.5233267535    0.8049242595
H        2.7359520744    0.3800683162    8.8697127226
H        4.1030483063   -1.2831964883    7.5425502609
H        2.3894474418    1.3835412740    2.1818062485
H       -0.1205140060   -1.8926195060    0.9219237413
H        0.3760502805    0.8023104651    8.1708021982
H        0.6361054926   -1.8887082569    5.0662356971
H        3.3225339802   -3.6959443845    3.6695835886
25   
torsion grid (45,)
C        1.0715157028   -0.1244902942    1.4966193440
C        2.3031340416   -0.1087512515    7.9773269651
C        3.0889385989   -0.9969248276    7.2495842656
C        2.1505634254    0.3388912806    2.2502732079
C        0.6910083400   -1.4657033198    1.5660015830
C        0.9623711177    0.0534694108    7.6077655487
C        1.1551637715   -1.4499996774    5.8930523759
C        2.5131010577   -1.6711460521    6.1651303041
C        2.4674753722   -1.8918628853    3.2050015249
C        2.8511048891   -0.5414697571    3.0741674141
C        1.3824031619   -2.3242349092    2.4169640498
C        3.3430052313   -2.6686957492    5.4213792778
N        0.3848663367   -0.6108425965    6.5974759934
N        3.1759631177   -2.7852957536    4.0294769460
O        4.1862603642   -3.3458804726    5.9918393913
Cl       4.2511744681    0.0565644251    3.9350000942
Cl       0.8666523741   -3.9995976160    2.5341675382
H        0.5310848635    0.5582918783    0.8482038768
H        2.7101345511    0.4470946326    8.8170045827
H        4.1312862057   -1.1758746434    7.4957110587
H        2.4672968507    1.3746865767    2.1895222591
H       -0.1424005713   -1.8427737813    0.9827837196
H        0.3210303138    0.7434721253    8.1542127186
H        0.6546356375   -1.9877362063    5.0920309899
H        3.1629855042   -3.7510994930    3.7161386077
25   
torsion grid (60,)
C        1.1030462503   -0.0965918541    1.5165583678
C        2.2724849577   -0.0826271270    7.9454065524
C        3.0902773381   -0.9406366449    7.2168071256
C        2.2085740618    0.3334418260    2.2514340414
C        0.6819842488   -1.4245730116    1.6021629155
C        0.9168112955   -0.0048633818    7.6035646214
C        1.1559518230   -1.5291903071    5.9137869622
C        2.5295662501   -1.6702942520    6.1604690743
C        2.4729943969   -1.9022129892    3.2142258670
C        2.8937555692   -0.5638869355    3.0693750934
C        1.3601983782   -2.2998730757    2.4458994286
C        3.3933892934   -2.6368160171    5.4157100257
N        0.3552278898   -0.7203192552    6.6193395570
N        3.1771269119   -2.8134552806    4.0217163162
O        4.3054858900   -3.2305342832    5.9665668673
Cl       4.3263182446   -0.0046020320    3.9049927190
Cl       0.7880249939   -3.9580930936    2.5810086291
H        0.5747849157    0.5995646928    0.8724528904
H        2.6659376561    0.5138061533    8.7634151404
H        4.1468207812   -1.0537269413    7.4403436947
H        2.5582962333    1.3579412337    2.1803318020
H       -0.1727862563   -1.7787638942    1.0357496923
H        0.2496266002    0.6592603851    8.1510923657
H        0.6699294138   -2.1089128715    5.1332503270
H        2.9828969648   -3.7832525995    3.7882218028
25   
torsion grid (75,)
C        1.1379343184   -0.0571341836    1.5141845905
C        2.2484732074   -0.0882749868    7.9086444706
C        3.0956310113   -0.9072639223    7.1688521993
C        2.2762542027    0.3283432276    2.2232168953
C        0.6637446896   -1.3655273786    1.6194775747
C        0.8818363728   -0.0917828373    7.6031172864
C        1.1641612028   -1.6199737929    5.9239480767
C        2.5493974053   -1.6824905392    6.1372997295
C        2.4711683001   -1.9114769251    3.1964214126
C        2.9404263104   -0.5911221133    3.0335285094
C        1.3247042795   -2.2622552455    2.4537801696
C        3.4462686794   -2.6024443517    5.3739514963
N        0.3369975386   -0.8493142464    6.6411897035
N        3.1593551397   -2.8497235548    3.9871173200
O        4.4330064562   -3.0989198882    5.8836131980
Cl       4.4114746581   -0.0835838624    3.8368481719
Cl       0.6834254719   -3.8952294829    2.6102070683
H        0.6261800580    0.6567214136    0.8762670072
H        2.6281785549    0.5409749325    8.7083193485
H        4.1627750602   -0.9552703171    7.3635406247
H        2.6678320199    1.3365687752    2.1384037129
H       -0.2174501747   -1.6878304501    1.0748857416
H        0.1923819647    0.5402301007    8.1609854014
H        0.6917869750   -2.2334368077    5.1608734393
H        2.7958334175   -3.7894026808    3.8472963007
25   
torsion grid (90,)
C        1.9547855944   -0.8022142586    0.1752396063
C        2.8996466379   -0.9341181347    8.8595657998
C        3.2728514368   -1.2165735123    7.5499907595
C        2.0493977901    0.1918675499    1.1515861723
C        1.7365533063   -2.1289692200    0.5473756707
C        1.5507619687   -0.6618106243    9.1254463131
C        0.9617280836   -0.9186974240    6.9291741550
C        2.2820315230   -1.2182048963    6.5563010004
C        1.7168283891   -1.4772742973    2.9132516208
C        1.9187226586   -0.1473858559    2.4960783552
C        1.6301286177   -2.4483112559    1.8996763927
C        2.6609817149   -1.5114054736    5.1516586894
N        0.5927508286   -0.6473455250    8.1879913683
N        1.5327792203   -1.7890853735    4.2801384374
O        3.8150710516   -1.5951414778    4.7756205125
Cl       1.9903071666    1.1239848527    3.7000000767
Cl       1.3739208131   -4.1320329223    2.3514011127
H        2.0478048856   -0.5419342474   -0.8746598135
H        3.6280391617   -0.9233296667    9.6651512638
H        4.3013993004   -1.4339597815    7.2773280053
H        2.2099363207    1.2292645836    0.8773660648
H        1.6599068750   -2.9139992123   -0.1975118746
H        1.2264497710   -0.4423192245   10.1417800772
H        0.1835909273   -0.8839816464    6.1716964682
H        1.3058526885   -2.7808501069    4.3591292687
25   
torsion grid (105,)
C        2.0006410119   -0.9088337359    0.1204746442
C        2.9095995429   -1.0904704851    8.8826390750
C        3.2664279045   -1.2376859155    7.5463321049
C        2.0739811816    0.1585404627    1.0179872539
C        1.7728610169   -2.2032614548    0.5884436533
C        1.5626424476   -0.8591883187    9.1926940708
C        0.9456507173   -0.9008448141    6.9895972647
C        2.2619147179   -1.1520667196    6.5708823601
C        1.7065308063   -1.3692786825    2.8940218915
C        1.9145457021   -0.0743843070    2.3823479565
C        1.6386110334   -2.4164945600    1.9591228199
C        2.6266963696   -1.3014348453    5.1374261294
N        0.5920213980   -0.7587257587    8.2738961738
N        1.5080479037   -1.5775261893    4.2791812451
O        3.7761204618   -1.2602642350    4.7357762730
Cl       1.9538059765    1.2868888773    3.4818821033
Cl       1.3706500622   -4.0592365187    2.5362577177
H        2.1166250447   -0.7305142063   -0.9442382941
H        3.6495579851   -1.1528261542    9.6752549757
H        4.2928550956   -1.4157403205    7.2392486615
H        2.2399478280    1.1715073430    0.6666646584
H        1.7105959564   -3.0433085618   -0.0951998555
H        1.2507810460   -0.7459366254   10.2300476857
H        0.1552079783   -0.7914594547    6.2514360968
H        1.1784882906   -2.5287664981    4.4385427208
25   
torsion grid (120,)
C        2.0260297126   -1.0029249277    0.0891787336
C        2.9168702499   -1.1973786292    8.8846019106
C        3.2592683242   -1.2280730698    7.5364683695
C        2.1040799626    0.1207460564    0.9141095412
C        1.7781803119   -2.2615985950    0.6379402399
C        1.5685857228   -1.0328119498    9.2282724815
C        0.9236805667   -0.9182610760    7.0358069527
C        2.2398526079   -1.0979622242    6.5824438858
C        1.7033404548   -1.2748429903    2.8810055114
C        1.9298220827   -0.0175770821    2.2901977301
C        1.6298108273   -2.3819082786    2.0182901467
C        2.5958154281   -1.1258759998    5.1358593622
N        0.5834149729   -0.8882162698    8.3311718198
N        1.4991013180   -1.3991531111    4.2751300399
O        3.7365157455   -0.9718188616    4.7317221475
Cl       1.9680340155    1.4145003310    3.2919878028
Cl       1.3358982594   -3.9782294042    2.7011717888
H        2.1535800982   -0.8964970318   -0.9838437203
H        3.6698620831   -1.2986188720    9.6607750277
H        4.2861213277   -1.3485311111    7.2039254452
H        2.2843391418    1.1060605812    0.4973978815
H        1.7113709769   -3.1438893705    0.0102865184
H        1.2677370747   -1.0117709228   10.2747472783
H        0.1174052852   -0.7681385308    6.3214682557
H        1.0559731457   -2.2867974270    4.5010762343
25   
torsion grid (135,)
C        2.0795815059   -1.0894480685    0.0745147467
C        2.9239311494   -1.3061870562    8.8726808778
C        3.2525322538   -1.2448491361    7.5218544688
C        2.1493619279    0.0761050412    0.8393114348
C        1.8153676312   -2.3168808903    0.6835943368
C        1.5772095747   -1.1836739210    9.2380051363
C        0.9096364752   -0.9389625910    7.0630789485
C        2.2229466382   -1.0716393312    6.5865509342
C        1.7123491954   -1.2128869684    2.8690627319
C        1.9515229083    0.0117576081    2.2183311963
C        1.6448632539   -2.3643373436    2.0657851084
C        2.5734418868   -1.0010419394    5.1370029790
N        0.5817962320   -0.9952485052    8.3606702451
N        1.5021454232   -1.2724494508    4.2657566373
O        3.7012369644   -0.7469207187    4.7427685433
Cl       1.9697038022    1.4953908041    3.1389512817
Cl       1.3315528644   -3.9191901395    2.8273799897
H        2.2255167572   -1.0401855463   -1.0003717198
H        3.6864502640   -1.4449494156    9.6336354658
H        4.2778550154   -1.3254967305    7.1730593115
H        2.3400932418    1.0372225667    0.3736513634
H        1.7538060659   -3.2302654890    0.1015743769
H        1.2860117495   -1.2336810576   10.2861513371
H        0.0910886096   -0.7505516559    6.3712362250
H        0.9449471806   -2.0729818846    4.5490064864
25   
torsion grid (150,)
C        2.0872971612   -1.1487569838    0.0741871720
C        2.9328115449   -1.3542258461    8.8658381806
C        3.2499962573   -1.2268526672    7.5166846657
C        2.1665901403    0.0430647914    0.7958233605
C        1.8075818060   -2.3512568315    0.7252904198
C        1.5869108445   -1.2830702727    9.2463420321
C        0.8983795466   -0.9648091502    7.0875171777
C        2.2100177438   -1.0436278789    6.5954614013
C        1.7135011633   -1.1669651137    2.8675803642
C        1.9638050151    0.0327757376    2.1762906428
C        1.6337667455   -2.3473234555    2.1078000915
C        2.5574392377   -0.9060993414    5.1469664399
N        0.5812836877   -1.0829417316    8.3835400510
N        1.5125672201   -1.1861718496    4.2655001019
O        3.6711006653   -0.5709555373    4.7685638266
Cl       1.9820998100    1.5494036838    3.0384277406
Cl       1.3022577192   -3.8671549910    2.9259783548
H        2.2370107007   -1.1397392538   -1.0013372614
H        3.7050238761   -1.5043643951    9.6147553242
H        4.2744241932   -1.2635491091    7.1581862033
H        2.3670712807    0.9844106332    0.2952692692
H        1.7372593257   -3.2839217034    0.1757698112
H        1.3049396811   -1.3850433895   10.2932008923
H        0.0657669429   -0.7651432863    6.4148922828
H        0.8372052366   -1.8685427479    4.5907395305
25   
torsion grid (165,)
C        2.1162027650   -1.1651482785    0.0725538036
C        2.9328991299   -1.3738089782    8.8698093396
C        3.2474053194   -1.2252049124    7.5220688185
C        2.1925400652    0.0342319751    0.7816981527
C        1.8348658163   -2.3622656516    0.7331608978
C        1.5869144203   -1.3229154990    9.2521062613
C        0.8944836820   -0.9871609552    7.0974404000
C        2.2058933503   -1.0441579212    6.6024320593
C        1.7350177766   -1.1574139736    2.8623622343
C        1.9854627487    0.0368345375    2.1619761007
C        1.6568482951   -2.3461383833    2.1152927489
C        2.5610137755   -0.8835816859    5.1557745117
N        0.5790773404   -1.1234343066    8.3918620575
N        1.5426644270   -1.1733589592    4.2611469635
O        3.6699516550   -0.5104418739    4.7948995469
Cl       1.9960653279    1.5609125200    3.0094392480
Cl       1.3239124652   -3.8547679083    2.9480097566
H        2.2696021412   -1.1663284421   -1.0025674286
H        3.7077159024   -1.5239611262    9.6160510572
H        4.2719547176   -1.2431501869    7.1627169246
H        2.3936234486    0.9704867148    0.2719652232
H        1.7667693604   -3.2996404368    0.1914390021
H        1.3063753710   -1.4407441598   10.2976351972
H        0.0547676258   -0.7878769537    6.4326317295
H        0.7443309523   -1.6896107344    4.6080838094
25   
torsion grid (180,)
C        2.0334201745   -1.1002050594   -0.1094586763
C        2.9540800597   -0.7520646355    8.7048153004
C        3.2543970907   -0.6364368906    7.3504372670
C        2.4322117162    0.0419374168    0.5861959290
C        1.4773157765   -2.1876367174    0.5667016211
C        1.7478239160   -1.3593711269    9.0739196996
C        1.1648334447   -1.7267847379    6.8923901506
C        2.3325589046   -1.1165812725    6.4112999432
C        1.7450107461   -0.9950523740    2.6874565151
C        2.2725683949    0.0941057158    1.9719167096
C        1.3461823665   -2.1252852980    1.9531966734
C        2.6774150174   -0.9999952626    4.9567290320
N        0.8670702367   -1.8512162237    8.1920438315
N        1.5992905051   -0.9665389770    4.0939239753
O        3.8362725808   -0.9147836433    4.5687221373
Cl       2.7001813952    1.5612177266    2.8122987379
Cl       0.6646251233   -3.4962323414    2.8075016455
H        2.1509275494   -1.1410451347   -1.1883985141
H        3.6361140295   -0.3851792628    9.4664027892
H        4.1797830139   -0.1892237936    7.0001015193
H        2.8506111506    0.8956043798    0.0636547032
H        1.1595096159   -3.0772287226    0.0334149039
H        1.4811142729   -1.4621535201   10.1246543910
H        0.4440700170   -2.1741552149    6.2081459013
H        0.6639285894   -1.0412089671    4.4710640344
