
  -OEChem-05262117483D

 30 32  0     1  0  0  0  0  0999 V2000
    1.9454   -1.2093    0.2816 C   0  0  0  0  0  0  0  0  0  0  0  0
    0.6138   -1.0809   -0.1399 C   0  0  0  0  0  0  0  0  0  0  0  0
    2.6210   -2.4306    0.1700 C   0  0  0  0  0  0  0  0  0  0  0  0
   -0.0623   -2.1785   -0.6835 C   0  0  0  0  0  0  0  0  0  0  0  0
    1.9492   -3.5285   -0.3702 C   0  0  0  0  0  0  0  0  0  0  0  0
    0.6187   -3.3932   -0.7894 C   0  0  0  0  0  0  0  0  0  0  0  0
   -0.5053   -5.3876   -3.6835 C   0  0  0  0  0  0  0  0  0  0  0  0
    2.4497   -4.9393   -0.5991 C   0  0  0  0  0  0  0  0  0  0  0  0
    1.1486   -5.7353   -0.8642 C   0  0  0  0  0  0  0  0  0  0  0  0
   -1.2259   -6.5187   -5.5688 C   0  0  0  0  0  0  0  0  0  0  0  0
   -1.8773   -7.0891   -4.2967 C   0  0  0  0  0  0  0  0  0  0  0  0
    0.1195   -4.6961   -1.3678 C   0  0  2  0  0  0  0  0  0  0  0  0
   -0.6009   -5.3023   -5.0190 N   0  3  0  0  0  0  0  0  0  0  0  0
    0.1238   -4.5703   -2.8676 N   0  0  0  0  0  0  0  0  0  0  0  0
   -1.1562   -6.4297   -3.1935 O   0  0  0  0  0  0  0  0  0  0  0  0
    2.4554   -0.3505    0.7090 H   0  0  0  0  0  0  0  0  0  0  0  0
    0.1037   -0.1280   -0.0332 H   0  0  0  0  0  0  0  0  0  0  0  0
    3.6500   -2.5197    0.5088 H   0  0  0  0  0  0  0  0  0  0  0  0
   -1.0994   -2.0851   -0.9982 H   0  0  0  0  0  0  0  0  0  0  0  0
    3.1297   -4.9749   -1.4594 H   0  0  0  0  0  0  0  0  0  0  0  0
    3.0034   -5.3345    0.2566 H   0  0  0  0  0  0  0  0  0  0  0  0
    1.2740   -6.5723   -1.5552 H   0  0  0  0  0  0  0  0  0  0  0  0
    0.7672   -6.1413    0.0770 H   0  0  0  0  0  0  0  0  0  0  0  0
   -0.4698   -7.1858   -5.9925 H   0  0  0  0  0  0  0  0  0  0  0  0
   -1.9627   -6.2666   -6.3326 H   0  0  0  0  0  0  0  0  0  0  0  0
   -2.9283   -6.8158   -4.1947 H   0  0  0  0  0  0  0  0  0  0  0  0
   -1.7460   -8.1613   -4.1672 H   0  0  0  0  0  0  0  0  0  0  0  0
   -0.9055   -4.9448   -1.0868 H   0  0  0  0  0  0  0  0  0  0  0  0
   -0.0514   -4.6579   -5.5752 H   0  0  0  0  0  0  0  0  0  0  0  0
    0.6344   -3.7855   -3.2605 H   0  0  0  0  0  0  0  0  0  0  0  0
  1  2  1  0  0  0  0
  1  3  2  0  0  0  0
  1 16  1  0  0  0  0
  2  4  2  0  0  0  0
  2 17  1  0  0  0  0
  3  5  1  0  0  0  0
  3 18  1  0  0  0  0
  4  6  1  0  0  0  0
  4 19  1  0  0  0  0
  5  6  2  0  0  0  0
  5  8  1  0  0  0  0
  6 12  1  0  0  0  0
  7 13  2  0  0  0  0
  7 14  1  0  0  0  0
  7 15  1  0  0  0  0
  8  9  1  0  0  0  0
  8 20  1  0  0  0  0
  8 21  1  0  0  0  0
  9 12  1  0  0  0  0
  9 22  1  0  0  0  0
  9 23  1  0  0  0  0
 10 11  1  0  0  0  0
 10 13  1  0  0  0  0
 10 24  1  0  0  0  0
 10 25  1  0  0  0  0
 11 15  1  0  0  0  0
 11 26  1  0  0  0  0
 11 27  1  0  0  0  0
 12 14  1  0  0  0  0
 12 28  1  0  0  0  0
 13 29  1  0  0  0  0
 14 30  1  0  0  0  0
M  CHG  1  13   1
M  END
$$$$
