
  -OEChem-05262117483D

 69 72  0     1  0  0  0  0  0999 V2000
   -2.9891   -0.4612    6.1734 C   0  0  0  0  0  0  0  0  0  0  0  0
   -7.0055   -1.4945    4.4297 C   0  0  0  0  0  0  0  0  0  0  0  0
   -3.3981    0.2125    5.0252 C   0  0  0  0  0  0  0  0  0  0  0  0
   -7.1490   -0.5802    3.3820 C   0  0  0  0  0  0  0  0  0  0  0  0
   -3.3628    1.5468    7.4733 C   0  0  0  0  0  0  0  0  0  0  0  0
   -7.1868    1.2630    4.9691 C   0  0  0  0  0  0  0  0  0  0  0  0
   -2.9639    0.1978    7.4096 C   0  0  0  0  0  0  0  0  0  0  0  0
   -6.9356   -1.0310    5.7432 C   0  0  0  0  0  0  0  0  0  0  0  0
   -7.0369    0.3405    6.0047 C   0  0  0  0  0  0  0  0  0  0  0  0
   -3.7913    2.2355    6.3461 C   0  0  0  0  0  0  0  0  0  0  0  0
   -7.2276    0.7944    3.6485 C   0  0  0  0  0  0  0  0  0  0  0  0
   -3.7985    1.5532    5.1063 C   0  0  0  0  0  0  0  0  0  0  0  0
   -1.7821   -0.7159   10.6481 C   0  0  0  0  0  0  0  0  0  0  0  0
   -2.0488   -1.9621   10.1319 C   0  0  0  0  0  0  0  0  0  0  0  0
   -2.5501   -0.5069    8.6102 C   0  0  0  0  0  0  0  0  0  0  0  0
   -1.2585   -0.2328   11.9294 C   0  0  0  0  0  0  0  0  0  0  0  0
   -5.7287   -3.7786    8.2233 C   0  0  0  0  0  0  0  0  0  0  0  0
   -7.0109    0.5988    7.4959 C   0  0  0  0  0  0  0  0  0  0  0  0
   -6.4736   -0.7300    8.0814 C   0  0  0  0  0  0  0  0  0  0  0  0
   -6.7981   -1.8243    7.0283 C   0  0  2  0  0  0  0  0  0  0  0  0
   -1.8918   -3.3042   10.7621 C   0  0  0  0  0  0  0  0  0  0  0  0
   -1.1297    1.2684   12.0989 C   0  0  0  0  0  0  0  0  0  0  0  0
   -3.6369    6.1170    5.9706 C   0  0  0  0  0  0  0  0  0  0  0  0
   -4.2294    3.6769    6.4240 C   0  0  0  0  0  0  0  0  0  0  0  0
   -5.7416   -2.9393    6.9521 C   0  0  0  0  0  0  0  0  0  0  0  0
   -3.1572    4.6632    5.9232 C   0  0  0  0  0  0  0  0  0  0  0  0
   -5.2191    2.5947    1.9023 C   0  0  0  0  0  0  0  0  0  0  0  0
   -6.6150    2.8319    2.4853 C   0  0  0  0  0  0  0  0  0  0  0  0
   -4.3497    1.6781    2.7527 C   0  0  0  0  0  0  0  0  0  0  0  0
   -2.5435   -1.8049    8.8417 N   0  0  0  0  0  0  0  0  0  0  0  0
   -0.9429   -1.0246   12.8148 O   0  0  0  0  0  0  0  0  0  0  0  0
   -6.6795   -4.4505    8.5673 O   0  0  0  0  0  0  0  0  0  0  0  0
   -2.1072    0.2172    9.6649 O   0  0  0  0  0  0  0  0  0  0  0  0
   -4.6011   -3.7478    8.9701 O   0  0  0  0  0  0  0  0  0  0  0  0
   -7.3846    1.6230    2.5522 O   0  0  0  0  0  0  0  0  0  0  0  0
   -4.2186    2.2908    4.0436 O   0  0  0  0  0  0  0  0  0  0  0  0
   -2.6660   -1.4956    6.1102 H   0  0  0  0  0  0  0  0  0  0  0  0
   -6.9431   -2.5572    4.2066 H   0  0  0  0  0  0  0  0  0  0  0  0
   -3.4032   -0.3134    4.0784 H   0  0  0  0  0  0  0  0  0  0  0  0
   -7.1945   -0.9097    2.3479 H   0  0  0  0  0  0  0  0  0  0  0  0
   -3.3593    2.0562    8.4330 H   0  0  0  0  0  0  0  0  0  0  0  0
   -7.2706    2.3237    5.1861 H   0  0  0  0  0  0  0  0  0  0  0  0
   -6.3905    1.4587    7.7671 H   0  0  0  0  0  0  0  0  0  0  0  0
   -8.0276    0.8061    7.8548 H   0  0  0  0  0  0  0  0  0  0  0  0
   -5.3886   -0.6549    8.1939 H   0  0  0  0  0  0  0  0  0  0  0  0
   -6.8909   -0.9640    9.0641 H   0  0  0  0  0  0  0  0  0  0  0  0
   -7.7572   -2.2998    7.2694 H   0  0  0  0  0  0  0  0  0  0  0  0
   -2.8667   -3.7940   10.8493 H   0  0  0  0  0  0  0  0  0  0  0  0
   -1.2638   -3.9408   10.1299 H   0  0  0  0  0  0  0  0  0  0  0  0
   -1.4400   -3.2096   11.7488 H   0  0  0  0  0  0  0  0  0  0  0  0
   -2.1052    1.7525   11.9817 H   0  0  0  0  0  0  0  0  0  0  0  0
   -0.4706    1.6874   11.3312 H   0  0  0  0  0  0  0  0  0  0  0  0
   -0.7279    1.4800   13.0903 H   0  0  0  0  0  0  0  0  0  0  0  0
   -4.5198    6.2617    5.3371 H   0  0  0  0  0  0  0  0  0  0  0  0
   -3.9087    6.4138    6.9903 H   0  0  0  0  0  0  0  0  0  0  0  0
   -2.8590    6.8034    5.6202 H   0  0  0  0  0  0  0  0  0  0  0  0
   -5.1396    3.8131    5.8292 H   0  0  0  0  0  0  0  0  0  0  0  0
   -4.4860    3.9194    7.4616 H   0  0  0  0  0  0  0  0  0  0  0  0
   -5.9911   -3.6242    6.1356 H   0  0  0  0  0  0  0  0  0  0  0  0
   -4.7634   -2.5021    6.7350 H   0  0  0  0  0  0  0  0  0  0  0  0
   -2.2541    4.5463    6.5343 H   0  0  0  0  0  0  0  0  0  0  0  0
   -2.8794    4.3957    4.8985 H   0  0  0  0  0  0  0  0  0  0  0  0
   -5.3133    2.1497    0.9056 H   0  0  0  0  0  0  0  0  0  0  0  0
   -4.7234    3.5664    1.7852 H   0  0  0  0  0  0  0  0  0  0  0  0
   -6.5405    3.3094    3.4654 H   0  0  0  0  0  0  0  0  0  0  0  0
   -7.1804    3.4969    1.8277 H   0  0  0  0  0  0  0  0  0  0  0  0
   -3.3538    1.5531    2.3091 H   0  0  0  0  0  0  0  0  0  0  0  0
   -4.8163    0.6956    2.8488 H   0  0  0  0  0  0  0  0  0  0  0  0
   -3.9388   -3.1033    8.6225 H   0  0  0  0  0  0  0  0  0  0  0  0
  1  3  1  0  0  0  0
  1  7  2  0  0  0  0
  1 37  1  0  0  0  0
  2  4  2  0  0  0  0
  2  8  1  0  0  0  0
  2 38  1  0  0  0  0
  3 12  2  0  0  0  0
  3 39  1  0  0  0  0
  4 11  1  0  0  0  0
  4 40  1  0  0  0  0
  5  7  1  0  0  0  0
  5 10  2  0  0  0  0
  5 41  1  0  0  0  0
  6  9  1  0  0  0  0
  6 11  2  0  0  0  0
  6 42  1  0  0  0  0
  7 15  1  0  0  0  0
  8  9  2  0  0  0  0
  8 20  1  0  0  0  0
  9 18  1  0  0  0  0
 10 12  1  0  0  0  0
 10 24  1  0  0  0  0
 11 35  1  0  0  0  0
 12 36  1  0  0  0  0
 13 14  2  0  0  0  0
 13 16  1  0  0  0  0
 13 33  1  0  0  0  0
 14 21  1  0  0  0  0
 14 30  1  0  0  0  0
 15 30  2  0  0  0  0
 15 33  1  0  0  0  0
 16 22  1  0  0  0  0
 16 31  2  0  0  0  0
 17 25  1  0  0  0  0
 17 32  2  0  0  0  0
 17 34  1  0  0  0  0
 18 19  1  0  0  0  0
 18 43  1  0  0  0  0
 18 44  1  0  0  0  0
 19 20  1  0  0  0  0
 19 45  1  0  0  0  0
 19 46  1  0  0  0  0
 20 25  1  0  0  0  0
 20 47  1  0  0  0  0
 21 48  1  0  0  0  0
 21 49  1  0  0  0  0
 21 50  1  0  0  0  0
 22 51  1  0  0  0  0
 22 52  1  0  0  0  0
 22 53  1  0  0  0  0
 23 26  1  0  0  0  0
 23 54  1  0  0  0  0
 23 55  1  0  0  0  0
 23 56  1  0  0  0  0
 24 26  1  0  0  0  0
 24 57  1  0  0  0  0
 24 58  1  0  0  0  0
 25 59  1  0  0  0  0
 25 60  1  0  0  0  0
 26 61  1  0  0  0  0
 26 62  1  0  0  0  0
 27 28  1  0  0  0  0
 27 29  1  0  0  0  0
 27 63  1  0  0  0  0
 27 64  1  0  0  0  0
 28 35  1  0  0  0  0
 28 65  1  0  0  0  0
 28 66  1  0  0  0  0
 29 36  1  0  0  0  0
 29 67  1  0  0  0  0
 29 68  1  0  0  0  0
 34 69  1  0  0  0  0
M  END
$$$$
