56
1 1 C20ClH31NO2S
C                     3.134194331237    -1.021892714497    -6.999422901451
C                     2.435859370302    -3.342495679616    -6.939900366156
C                     2.975178251630    -1.021945865056    -8.391042176103
C                     2.280907064750    -3.342069760754    -8.323476940972
C                     2.847825151751    -2.180698866616    -6.266982289368
C                     2.539967990778    -2.171995319695    -9.046628990144
C                    -2.370348189431    -3.869088473457    -6.571365687709
C                    -2.513941240480    -2.569715698259    -5.770777454515
C                    -1.105888034169    -4.621241719820    -6.142978188010
C                    -2.479747216737    -2.829297551625    -4.267513536146
C                    -1.083524121520    -4.869934026959    -4.637487952323
C                     0.782163647995    -3.457739141124    -0.629090588305
C                     0.455782501177    -3.834598380358    -2.072002819483
C                     1.488103732131    -1.650056401292    -2.456354181416
C                     0.610499238201    -0.641991701155    -3.208789288729
C                     3.466698031924    -0.124671854205    -1.903049178160
C                     3.832521518559    -2.599064824174    -2.115781734790
C                    -1.048681215390    -3.718476569348    -2.393409864567
C                     3.349717218132    -1.169978649401    -4.133506091052
C                     3.024449184993    -1.402918673920    -2.644377744838
N                    -1.216266563200    -3.563550283440    -3.882379568744
O                     1.176661882399    -2.979606141941    -2.952231767790
O                     2.917535036282    -2.289739810287    -4.903913797432
S                     0.963309839175    -1.644883212506    -0.656087204012
Cl                    2.333580073108    -2.163639129987   -10.786030168822
H                     3.494117195633    -0.120625897546    -6.516932260232
H                     2.272959066468    -4.248013128387    -6.361938493647
H                     3.197608038856    -0.124961509935    -8.960304899154
H                     1.974793706731    -4.244736822939    -8.843371219177
H                    -2.327702311325    -3.645847245897    -7.640434233030
H                    -3.252711759230    -4.501243325902    -6.412544953870
H                    -1.710202556054    -1.871401571031    -6.036126831467
H                    -3.456577904069    -2.065526907532    -6.002975969468
H                    -1.037222279776    -5.592124100755    -6.642950325386
H                    -0.212577322496    -4.054721510581    -6.431098250841
H                    -2.496909968293    -1.900645401264    -3.693861113503
H                    -3.315743533197    -3.454576026681    -3.941636081364
H                    -1.917640107305    -5.498878578229    -4.314297389536
H                    -0.148147181874    -5.331539927543    -4.318853901659
H                    -0.019085548702    -3.727422595850     0.064013916287
H                     1.705538848503    -3.942645825566    -0.308768991517
H                     0.808304002057    -4.848654779422    -2.283634243007
H                    -0.443548294490    -0.799640074635    -2.968061273239
H                     0.752967734759    -0.742797350944    -4.288333759495
H                     0.846421488517     0.386365812571    -2.927166230853
H                     4.523695515893     0.071891369956    -2.105675460795
H                     2.905193867005     0.761709181351    -2.213553214748
H                     3.355343827119    -0.240027495990    -0.823186116254
H                     4.902106583173    -2.401511064944    -2.233323201254
H                     3.595163155377    -3.514022969012    -2.660467002213
H                     3.646929873677    -2.753461186731    -1.049059185505
H                    -1.462670951501    -2.824237966603    -1.923749754541
H                    -1.613501559260    -4.593527941991    -2.065532564437
H                     4.432767683714    -1.038542439331    -4.251245173453
H                     2.864697792485    -0.252880051539    -4.484109044080
H                    -0.400926478072    -2.988074056833    -4.155836681412
