30
1 1 C12H15N2O
C                     1.090971248281    -0.575863584326    -1.899754340926
C                    -0.307966859409    -0.671069793086    -1.924091936401
C                     1.750771434775    -0.001656721552    -0.806528533139
C                    -1.065171192208    -0.195748555845    -0.847630340937
C                     0.996609664559     0.466577102429     0.270691436769
C                    -0.396887167879     0.358450418224     0.243286582011
C                    -2.114946724903    -1.112375349889     2.338142025173
C                     1.463429955666     1.155453338230     1.535398299739
C                     0.227207601258     1.084961356241     2.465924647611
C                    -2.796095862156    -3.276330896097     2.794641302173
C                    -1.270967362754    -3.203436920540     2.596147708341
C                    -0.982712756617     0.955979152568     1.505379145515
N                    -3.127699522368    -1.839966894228     2.834918990551
N                    -2.127588932510     0.180169763974     2.069802516517
O                    -1.027033041378    -1.826581663607     2.134649114312
H                     1.667785838139    -0.947437073489    -2.742085665321
H                    -0.804224405604    -1.109230873067    -2.785362481415
H                     2.835178303259     0.074590507112    -0.799853925729
H                    -2.151437441240    -0.260598540374    -0.871613959193
H                     2.344444414625     0.685825111131     1.981193639418
H                     1.729337810371     2.197043266782     1.320472594618
H                     0.289080180795     0.186359840855     3.084909062464
H                     0.134597922193     1.945502128839     3.131868502144
H                    -3.306354839375    -3.766768292033     1.961040793201
H                    -3.069712188370    -3.764547562826     3.730866788060
H                    -0.710655868016    -3.327526939110     3.523533934520
H                    -0.886999770718    -3.867885553114     1.824840501247
H                    -1.418805319925     1.938182152778     1.297229443450
H                    -4.079478415494    -1.496932244250     2.891377849092
H                    -2.989848213392     0.679467173948     2.255455424244
