15   
torsion grid (-165,)
C        2.2093614313   -1.0522915055   -0.7521654149
C        4.3429541523    0.2883623527   -1.3560798132
C        4.7484977286   -0.8311967005   -0.4245312133
C        3.3711201688   -0.2111520675   -0.3241396365
C        0.1374441486   -1.9819477967   -0.1347023877
O        2.1677885015   -1.6232598416   -1.8281988381
O        1.2702483315   -1.1514660312    0.2028010693
F        3.1390202364    0.5948112835    0.7690349892
H        4.7570693316    1.2730719108   -1.1651422899
H        4.1220710041    0.0478967346   -2.3902592883
H        4.8147132077   -1.8393751171   -0.8195811058
H        5.4210481938   -0.5897674812    0.3924979616
H        0.4623625899   -3.0081429907   -0.3208215302
H       -0.5207999164   -1.9356353502    0.7321512581
H       -0.3652467109   -1.5954835575   -1.0240029398
15   
torsion grid (-150,)
C        2.2645179081   -1.1614232601   -0.6792573807
C        4.2827120072    0.3130506876   -1.3383019075
C        4.8124376354   -0.8118333785   -0.4783021482
C        3.4101929658   -0.2920212311   -0.2684945791
C        0.1088921202   -1.9430702643   -0.1544846227
O        2.2870349272   -1.8419163459   -1.6906120962
O        1.2414340913   -1.1144204243    0.1889284523
F        3.1953877293    0.4662697741    0.8617230303
H        4.6398199145    1.3163011040   -1.1293585774
H        4.0173243587    0.0969700084   -2.3674648327
H        4.9118792926   -1.7981414022   -0.9184791034
H        5.5192222822   -0.5574349716    0.3050098727
H        0.4068325703   -2.9930594271   -0.1977428309
H       -0.6177612081   -1.7794933550    0.6405168739
H       -0.3005938299   -1.6438325312   -1.1218329972
15   
torsion grid (-135,)
C        2.3020753717   -1.2510018734   -0.6064627697
C        4.2045312392    0.3425114465   -1.3085981851
C        4.8477720211   -0.7825214739   -0.5259196734
C        3.4380095460   -0.3602320877   -0.2134240925
C        0.0741002623   -1.8833266419   -0.1945439973
O        2.3729677895   -2.0330984956   -1.5389525953
O        1.2109061534   -1.0620778491    0.1525281881
F        3.2453779026    0.3499160532    0.9524423048
H        4.5109065513    1.3574836165   -1.0768052315
H        3.8955315286    0.1518441259   -2.3307364661
H        4.9746637293   -1.7435734684   -1.0121998898
H        5.5868566377   -0.5149389335    0.2222098952
H        0.3270711341   -2.9414618498   -0.0977138190
H       -0.7066075269   -1.6062139724    0.5129303005
H       -0.2414635295   -1.6799057741   -1.2202754631
15   
torsion grid (-120,)
C        2.3494448670   -1.3422486319   -0.5376837440
C        4.1319333686    0.3595742691   -1.2861774070
C        4.8822874020   -0.7614249322   -0.5907178033
C        3.4811836444   -0.4306018379   -0.1748462612
C        0.0662101085   -1.8308714475   -0.2425864974
O        2.4523658259   -2.2260912051   -1.3703020543
O        1.2109583437   -1.0175661866    0.0963817068
F        3.3224989490    0.2311750335    1.0257477358
H        4.3972667548    1.3802119156   -1.0297264027
H        3.7735772747    0.1954385492   -2.2969926942
H        5.0267950704   -1.6949976889   -1.1233433487
H        5.6563267673   -0.4814214493    0.1162316822
H        0.2603609148   -2.8785684201   -0.0026285235
H       -0.7518531249   -1.4412817774    0.3622614859
H       -0.1607421008   -1.7402680868   -1.3072735371
15   
torsion grid (-105,)
C        2.3834744052   -1.4199496720   -0.4658723181
C        4.0576751467    0.3797005110   -1.2452934396
C        4.8944062821   -0.7433928476   -0.6478975717
C        3.5143835629   -0.4883340362   -0.1378481679
C        0.0645350595   -1.7910892384   -0.2874841929
O        2.5083522191   -2.4085531838   -1.1657220193
O        1.2130979982   -0.9702727647    0.0180885117
F        3.3975005640    0.1155399701    1.0998040484
H        4.2998975781    1.3976902754   -0.9570230366
H        3.6490559143    0.2519066535   -2.2425696369
H        5.0429551486   -1.6462725956   -1.2301961726
H        5.7027575826   -0.4619863442    0.0188716463
H        0.2005377873   -2.7984811458    0.1121295825
H       -0.7787097857   -1.2960665394    0.1928843810
H       -0.0830421048   -1.8482703235   -1.3683880137
15   
torsion grid (-90,)
C        2.3949569590   -1.4807844211   -0.4324412079
C        3.9860438524    0.4102455821   -1.2135636677
C        4.8817350994   -0.7275133380   -0.7262248333
C        3.5281409789   -0.5329523866   -0.1367045566
C        0.0546572856   -1.7597258531   -0.3731493331
O        2.5325508997   -2.5683359868   -0.9598196383
O        1.2083897955   -0.9268563210   -0.1255217446
F        3.4584552696   -0.0053464186    1.1418510262
H        4.2256229634    1.4155838183   -0.8815941448
H        3.5299638661    0.3345745299   -2.1958078165
H        5.0219972111   -1.5928923154   -1.3651749176
H        5.7210144339   -0.4622691650   -0.0918117750
H        0.1278043670   -2.6886498726    0.1968394928
H       -0.8014317837   -1.1717704374   -0.0439965830
H       -0.0213617004   -1.9940599649   -1.4374662806
15   
torsion grid (-75,)
C        2.4048037371   -1.5242692642   -0.3559585579
C        3.9364444169    0.4428780021   -1.1372411115
C        4.8636182099   -0.7224800195   -0.7790229234
C        3.5478108502   -0.5674590245   -0.1032865585
C        0.0557605482   -1.7312467810   -0.4177671610
O        2.5359523129   -2.6914156799   -0.6684167996
O        1.2204456225   -0.8950500791   -0.2409201735
F        3.5517128351   -0.1317221903    1.2143519745
H        4.2027335560    1.4260121732   -0.7617007431
H        3.4212102679    0.4316722022   -2.0929131181
H        4.9709379128   -1.5448891331   -1.4787810769
H        5.7409431452   -0.4933503001   -0.1830167129
H        0.0543168959   -2.5387954839    0.3178078463
H       -0.7987556410   -1.0720362777   -0.2689022762
H        0.0462238577   -2.1585157355   -1.4231408275
15   
torsion grid (-60,)
C        2.4227015615   -1.5489626618   -0.2812099607
C        3.9006259188    0.4794329266   -1.0778396247
C        4.8395392330   -0.7125458506   -0.8613103979
C        3.5765417593   -0.5868121697   -0.0844914490
C        0.0787578719   -1.7247917097   -0.4850601355
O        2.5376693924   -2.7555135620   -0.3573725415
O        1.2515285687   -0.8886704522   -0.3672170358
F        3.6851272360   -0.2441666294    1.2572958101
H        4.2101610822    1.4370783422   -0.6709869073
H        3.3134446567    0.5291252648   -1.9897236365
H        4.8931719650   -1.4887843657   -1.6181075142
H        5.7598925335   -0.5267285735   -0.3170344527
H       -0.0014109688   -2.3862090013    0.3805022747
H       -0.7648072929   -1.0365312302   -0.5253506039
H        0.1331548513   -2.3264608418   -1.3952554394
15   
torsion grid (-45,)
C        2.4214561881   -1.5644838532   -0.1707256354
C        3.8562776814    0.4962725252   -1.0048000357
C        4.7760797098   -0.7249054150   -0.9383556390
C        3.5911487885   -0.6094529415   -0.0386885943
C        0.1013946005   -1.7473796708   -0.5590445771
O        2.5045732050   -2.7649545428   -0.0119028127
O        1.2777486893   -0.9129273551   -0.4632708599
F        3.8404462594   -0.3531702177    1.3017145436
H        4.2321705266    1.4240885556   -0.5850286307
H        3.1851724940    0.6064038915   -1.8507126626
H        4.7428974760   -1.4585710908   -1.7379018801
H        5.7464651657   -0.5915369250   -0.4706037328
H       -0.0803756805   -2.2514117453    0.3926991652
H       -0.7162135024   -1.0689947730   -0.8004831926
H        0.2305610722   -2.4955556718   -1.3444961517
15   
torsion grid (-30,)
C        2.4195808990   -1.5279223957   -0.0530840975
C        3.8273735120    0.5377939624   -0.9396707566
C        4.6888609811   -0.7169238659   -1.0236938143
C        3.6089250313   -0.5949575499    0.0100390950
C        0.1478384258   -1.7558076073   -0.6483950227
O        2.4501763600   -2.6808036515    0.3237026653
O        1.3227571361   -0.9193704793   -0.5522087196
F        4.0195996328   -0.4196101761    1.3189283796
H        4.2882822821    1.4285341030   -0.5243518973
H        3.0735187540    0.7136595014   -1.6997113307
H        4.5389839334   -1.4097773950   -1.8461824349
H        5.7070965976   -0.6502416978   -0.6532246710
H       -0.1482614802   -2.1023824278    0.3440350329
H       -0.6241962921   -1.1221560833   -1.0837568948
H        0.3476092829   -2.6193591759   -1.2869382139
15   
torsion grid (-15,)
C        2.4394209902   -1.4946585018    0.0513549690
C        3.8247665824    0.5727460887   -0.8743767511
C        4.6053288354   -0.7070169591   -1.1119644512
C        3.6473019919   -0.5937381205    0.0480083288
C        0.2305051809   -1.7940867304   -0.7233940218
O        2.4043159531   -2.5706693333    0.6098376217
O        1.4038445242   -0.9554154300   -0.6302176517
F        4.2138975785   -0.5072777523    1.3016103523
H        4.3702977769    1.4170099967   -0.4646020995
H        3.0038372767    0.8214703219   -1.5375371083
H        4.3303952182   -1.3465321946   -1.9452054021
H        5.6582592534   -0.7122022360   -0.8478559301
H       -0.1688504297   -1.9926860255    0.2734259217
H       -0.4836444410   -1.2279503175   -1.3206523326
H        0.4770453613   -2.7414843680   -1.2081596246
15   
torsion grid (0,)
C        2.4147402012   -1.4608217108    0.1353449372
C        3.8054330561    0.5905768132   -0.8101294241
C        4.5061489030   -0.7016595652   -1.1721455180
C        3.6519251565   -0.6123239205    0.0744442609
C        0.2673737028   -1.8206381714   -0.7776560328
O        2.2927226648   -2.4350653938    0.8468496753
O        1.4574755679   -1.0046078694   -0.7066267244
F        4.3278784333   -0.6048315958    1.2721494822
H        4.4176903446    1.3888637641   -0.4025439985
H        2.9450520299    0.9032823095   -1.3903653428
H        4.1317653987   -1.2863768470   -2.0064187900
H        5.5752102688   -0.7648688085   -0.9950337680
H       -0.2197446403   -1.8611567465    0.1988590551
H       -0.3751343158   -1.3326027815   -1.5100455691
H        0.5189074909   -2.8344424380   -1.0974875619
15   
torsion grid (15,)
C        2.4079642532   -1.4375131867    0.1797350381
C        3.8094017576    0.6047538963   -0.7468505273
C        4.4557920550   -0.6778182035   -1.2206166864
C        3.6763647240   -0.6467866550    0.0773561008
C        0.3096148608   -1.8527050144   -0.8211002937
O        2.1950169459   -2.2898664033    1.0150473691
O        1.5313770885   -1.0830184212   -0.7919127786
F        4.4195892756   -0.7138592232    1.2308730661
H        4.4609462369    1.3635536868   -0.3251202720
H        2.9249744657    0.9667186178   -1.2581640011
H        4.0176509354   -1.2053953040   -2.0612693350
H        5.5311258393   -0.7733313354   -1.1080784857
H       -0.2407254641   -1.7224556441    0.1131544908
H       -0.2601067629   -1.4597693150   -1.6627798897
H        0.5307107675   -2.9128156612   -0.9645323519
15   
torsion grid (30,)
C        1.8841531685   -0.3939952362   -0.5721809024
C        4.3946800389   -0.6112446356   -1.3284450208
C        4.3847778648   -0.5315746592    0.1829314343
C        3.2872722246    0.1263000208   -0.6198855559
C        0.5579166803   -2.3491126870   -0.5441604028
O        0.8921040580    0.2991415727   -0.5047546600
O        1.8700385804   -1.7499093633   -0.6099078420
F        3.3227562417    1.4978680045   -0.6882134990
H        5.1003607670    0.0215873958   -1.8571535353
H        4.1473724445   -1.5534711883   -1.8041048893
H        4.1303105684   -1.4193609170    0.7512327830
H        5.0811997770    0.1548746395    0.6538608437
H       -0.0513519858   -2.0206776646   -1.3890026696
H        0.7284900439   -3.4245570972   -0.5863233595
H        0.0605827547   -2.0727176032    0.3882682090
15   
torsion grid (45,)
C        1.8842322160   -0.3981953148   -0.5891927231
C        4.3786495285   -0.5631438082   -1.3558005364
C        4.4049740647   -0.5897269475    0.1587609528
C        3.2891418478    0.1188102914   -0.5628128107
C        0.5501435825   -2.3461088526   -0.5022285414
O        0.8965598843    0.2919895585   -0.7199704148
O        1.8633931338   -1.7476072193   -0.4529970231
F        3.3260402484    1.4926857045   -0.5447848221
H        5.0665492974    0.1083031135   -1.8596267509
H        4.1208914279   -1.4718603848   -1.8886643257
H        4.1658393162   -1.5158320566    0.6689564958
H        5.1140288782    0.0629545161    0.6579032980
H        0.0712857430   -2.1331013793   -1.4606212516
H        0.7152549996   -3.4165863139   -0.3828594267
H       -0.0731470924   -1.9583271922    0.3064368836
15   
torsion grid (60,)
C        1.8916284008   -0.4057336379   -0.6184591866
C        4.3767088362   -0.4821444534   -1.3847045816
C        4.4268405313   -0.6182173211    0.1271010613
C        3.2926680739    0.1192755549   -0.5218399828
C        0.5418489561   -2.3365159940   -0.4512046013
O        0.9310723999    0.2579469231   -0.9437815300
O        1.8410767435   -1.7230400607   -0.3032384982
F        3.3104519583    1.4912684306   -0.4136408798
H        5.0446648144    0.2357299348   -1.8497356973
H        4.1285183090   -1.3556034091   -1.9786123257
H        4.2128817186   -1.5830384612    0.5720664554
H        5.1369867622    0.0071947003    0.6584889037
H        0.1913075500   -2.2421450338   -1.4815178415
H        0.6841095802   -3.3838445368   -0.1861397065
H       -0.1777728324   -1.8619609848    0.2193107442
15   
torsion grid (75,)
C        1.9038638523   -0.4423173374   -0.6668664378
C        4.3930467784   -0.4022270983   -1.4071069779
C        4.4446810095   -0.6693383166    0.0905314266
C        3.2979857254    0.0925961813   -0.4964991819
C        0.5022384671   -2.3213355785   -0.3855218009
O        0.9959994424    0.1802506589   -1.1746149684
O        1.7922743898   -1.7021434692   -0.1849930290
F        3.2821833107    1.4535551394   -0.2735957485
H        5.0437822142    0.3686917510   -1.8071944015
H        4.1708193707   -1.2270243413   -2.0768583992
H        4.2531845597   -1.6744232269    0.4484974053
H        5.1428579301   -0.0806967817    0.6769002407
H        0.2606096011   -2.3623065579   -1.4500737078
H        0.5948998220   -3.3248665939    0.0288235741
H       -0.2714625629   -1.7560016570    0.1382410237
15   
torsion grid (90,)
C        1.9348420694   -0.5045816594   -0.7357980202
C        4.4363190182   -0.2990366260   -1.4240717234
C        4.4723053351   -0.7126124845    0.0448942689
C        3.3126614048    0.0589903588   -0.4935641606
C        0.4672849223   -2.3066290289   -0.3266109167
O        1.0927299383    0.0477223302   -1.4112709313
O        1.7512667438   -1.6828764108   -0.1000134205
F        3.2330879077    1.3925120376   -0.1374762515
H        5.0685098184    0.5281624171   -1.7308235011
H        4.2607088708   -1.0593863069   -2.1789404436
H        4.3124698768   -1.7545646470    0.2991400340
H        5.1421538827   -0.1642237468    0.6994302547
H        0.3165506762   -2.4906739896   -1.3927928813
H        0.4986518124   -3.2441793507    0.2276393768
H       -0.3331425219   -1.6631256691    0.0446380601
15   
torsion grid (105,)
C        1.9391833237   -0.5885995247   -0.7853332560
C        4.4381677376   -0.1886834623   -1.4277486098
C        4.4756111050   -0.7547175179   -0.0071762419
C        3.2930943248    0.0176144266   -0.4869380991
C        0.4025942275   -2.2931061204   -0.2377233195
O        1.1699834680   -0.1407303612   -1.6097370608
O        1.6833954832   -1.6630435890   -0.0096190935
F        3.1351376504    1.3002677290    0.0127395823
H        5.0441009237    0.6880969548   -1.6334506430
H        4.3041645198   -0.8683748809   -2.2637998802
H        4.3591715297   -1.8238721943    0.1357744881
H        5.1168058669   -0.2533502533    0.7108301710
H        0.3254665908   -2.6322000008   -1.2733169065
H        0.3683362550   -3.1373322631    0.4501401624
H       -0.4049036362   -1.5883081977   -0.0282047443
15   
torsion grid (120,)
C        1.9745277001   -0.6657825811   -0.8488897089
C        4.4567823705   -0.0767745893   -1.4300860189
C        4.5015338754   -0.7822791658   -0.0724145455
C        3.2957752041   -0.0121906683   -0.4954333206
C        0.3538855074   -2.2458596150   -0.1827985503
O        1.3039953345   -0.3625801849   -1.8141631962
O        1.6289582874   -1.6070502029    0.0525506393
F        3.0646954336    1.2000165249    0.1390148514
H        5.0367359454    0.8345565046   -1.5364074369
H        4.3545731401   -0.6704086911   -2.3333090169
H        4.4293781307   -1.8647295901   -0.0376551267
H        5.1150734258   -0.3315235618    0.7013551704
H        0.3549205658   -2.7473192669   -1.1533333102
H        0.2372633421   -2.9666307065    0.6258208384
H       -0.4478266382   -1.5044551776   -0.1608352921
15   
torsion grid (135,)
C        2.0309376880   -0.7514770035   -0.8791773088
C        4.4727162580    0.0179315330   -1.4165284506
C        4.5467636561   -0.8182072313   -0.1388216548
C        3.3128932136   -0.0469833217   -0.4835039625
C        0.3241944704   -2.2003575186   -0.1341195374
O        1.4867377631   -0.6374940054   -1.9589854635
O        1.5804604147   -1.5334280861    0.1211790443
F        3.0356441530    1.0760935444    0.2819415164
H        5.0278446242    0.9504619080   -1.4314441539
H        4.3771626783   -0.4828330081   -2.3747799212
H        4.5138588098   -1.9009808801   -0.2118611711
H        5.1455850653   -0.4261525171    0.6775101429
H        0.4190268258   -2.8693494926   -0.9925714147
H        0.1052897422   -2.7627543888    0.7729286926
H       -0.4593916176   -1.4660428676   -0.3337405104
15   
torsion grid (150,)
C        2.0778564460   -0.8186950258   -0.8777487301
C        4.4607959052    0.1121084577   -1.3977255344
C        4.5841556927   -0.8406907716   -0.2158550339
C        3.3187070270   -0.0666744639   -0.4554124325
C        0.2855926621   -2.1475070593   -0.1110882161
O        1.6886285311   -0.9214742428   -2.0247595973
O        1.5011415882   -1.4226494502    0.1781312748
F        3.0347408804    0.9576272684    0.4312297743
H        4.9944585066    1.0548484258   -1.3322323908
H        4.3472759940   -0.2948248156   -2.3971534927
H        4.5761069044   -1.9115271235   -0.3954439098
H        5.1850297101   -0.5148356228    0.6277356203
H        0.4878902097   -2.9599081144   -0.8129247548
H       -0.0524074484   -2.5392832423    0.8476691336
H       -0.4624069845   -1.4772820905   -0.5405978249
15   
torsion grid (165,)
C        2.1191545006   -0.8811616707   -0.8426541439
C        4.4310715079    0.1907523485   -1.3763009880
C        4.6269443925   -0.8492912908   -0.2887765798
C        3.3256252876   -0.0921504169   -0.4112338258
C        0.2380811095   -2.0898149932   -0.0954934277
O        1.8779555263   -1.1806431178   -1.9971876442
O        1.4083852878   -1.3037781442    0.2182721845
F        3.0599604971    0.8427128773    0.5693791016
H        4.9384285247    1.1418394312   -1.2509031012
H        4.2855500659   -0.1391393524   -2.3993404980
H        4.6367399861   -1.9003431429   -0.5601659912
H        5.2443086797   -0.5776401633    0.5619804702
H        0.5262379340   -3.0068695698   -0.6145770726
H       -0.2225329678   -2.3172114840    0.8652760516
H       -0.4459430733   -1.5176633870   -0.7262820289
15   
torsion grid (180,)
C        2.1638644417   -0.9608854109   -0.8021968651
C        4.3944853676    0.2443279285   -1.3664087559
C        4.6864177724   -0.8469745833   -0.3584686285
C        3.3451547726   -0.1440489773   -0.3700309307
C        0.1887923211   -2.0382680508   -0.1061107755
O        2.0377520548   -1.4127228391   -1.9262476134
O        1.3289404997   -1.2137914279    0.2202821438
F        3.0964202776    0.7217371662    0.6736563037
H        4.8607648725    1.2105302556   -1.2031140703
H        4.2143829962   -0.0341198349   -2.3989932525
H        4.7216097478   -1.8773213409   -0.6971777385
H        5.3283983522   -0.5998158572    0.4812854424
H        0.5185974284   -3.0211890238   -0.4503535510
H       -0.3793037131   -2.1228813961    0.8196334958
H       -0.4113835492   -1.5651747359   -0.8864773983
