20   
torsion grid (-165,)
C        7.0617566104   -2.5190743113   -0.7398542079
C        6.3608346420   -2.2029892756   -1.9092694649
C        6.5067177493   -2.2215081554    0.5091803699
C        5.1039503356   -1.5978493012   -1.8345061955
C        5.2551880744   -1.6039966031    0.5883882138
C        4.5539788165   -1.2937618287   -0.5822120147
C        1.9280962814   -2.7036384490    0.7219535407
N        3.2660583064   -0.6521549086   -0.4458582420
O        2.0903773290   -2.5134748956   -1.9078801616
O        0.7458405716   -0.7399315951   -0.6809639569
S        1.8914085899   -1.6511129879   -0.7359208461
H        8.0374018018   -2.9935969995   -0.8025159119
H        6.7879149051   -2.4378261336   -2.8804481721
H        7.0510610138   -2.4582130019    1.4194228055
H        4.5401355352   -1.3818202523   -2.7371556466
H        4.8186571078   -1.3421166543    1.5481307465
H        1.0777600274   -3.3803438943    0.6224738025
H        1.8285511257   -2.0762981332    1.6073520279
H        2.8619390235   -3.2656638977    0.7252358152
H        3.1643686179    0.1315338904   -1.0947094805
20   
torsion grid (-150,)
C        7.1119857990   -2.5068056077   -0.8233208745
C        6.4041779460   -2.1380568114   -1.9731543550
C        6.5511383254   -2.2947523205    0.4402674968
C        5.1348379528   -1.5658555572   -1.8638717264
C        5.2871017961   -1.7087150519    0.5543135513
C        4.5795973040   -1.3449723903   -0.5967997101
C        1.7899961822   -2.6211079961    0.8449426110
N        3.2782400485   -0.7475275564   -0.4300597743
O        2.1993371004   -2.7479875146   -1.7619872536
O        0.7952639246   -0.8181707571   -0.8686657278
S        1.9168782993   -1.7511020097   -0.7240457329
H        8.0970407485   -2.9570225007   -0.9126554597
H        6.8353273774   -2.3081639726   -2.9559545027
H        7.1004575584   -2.5737026220    1.3354347765
H        4.5653992844   -1.3101702483   -2.7526566552
H        4.8466289530   -1.5112744157    1.5276870008
H        0.9476135490   -3.3082300508    0.7486967909
H        1.6141801292   -1.8882021125    1.6317298067
H        2.7147246515   -3.1755510230    1.0081717698
H        3.1350245370    0.0911824439   -0.9944424120
20   
torsion grid (-135,)
C        7.1729191127   -2.4642378353   -0.8796650829
C        6.4584364024   -2.0527054749   -2.0107645859
C        6.6027927927   -2.3391521169    0.3912453184
C        5.1730563297   -1.5238405255   -1.8751484885
C        5.3221540637   -1.7963442162    0.5312229212
C        4.6080697102   -1.3885671373   -0.6006473915
C        1.6348293416   -2.5397476704    0.9135368001
N        3.2908609146   -0.8407005867   -0.4134767824
O        2.3056611995   -2.9488594982   -1.6112645915
O        0.8569121320   -0.9183337263   -1.0532284567
S        1.9427584972   -1.8461704659   -0.7179471343
H        8.1704389309   -2.8813093838   -0.9894012300
H        6.8970395524   -2.1565990891   -2.9994911994
H        7.1568071658   -2.6530947883    1.2718390666
H        4.5987478838   -1.2339639825   -2.7503873945
H        4.8733560305   -1.6674469194    1.5122635220
H        0.7843297870   -3.2162019870    0.8118315058
H        1.4087976300   -1.7208345608    1.5957006408
H        2.5228763474   -3.0901799816    1.2266308722
H        3.1129274241    0.0480977766   -0.8798415964
20   
torsion grid (-120,)
C        7.2899366815   -2.3422629737   -0.9546818422
C        6.7509469805   -1.4702279267   -1.9047948862
C        6.4681890823   -2.8393593322    0.0623927640
C        5.4038638643   -1.1064611192   -1.8447569919
C        5.1264126074   -2.4639522785    0.1439094727
C        4.5875936038   -1.5948196496   -0.8147291340
C        1.4950884012   -1.9212856464    1.2139902123
N        3.2379041372   -1.1441447010   -0.7353598006
O        2.3554270941   -3.5997168834   -0.6407171821
O        0.8479678371   -1.6492174667   -1.3410842614
S        1.9187416999   -2.2107030762   -0.5119214843
H        8.3351031261   -2.6335365407   -1.0072957081
H        7.3741277613   -1.0795934329   -2.7047984429
H        6.8738820024   -3.5217775189    0.8044601205
H        4.9852034739   -0.4421838496   -2.5979250427
H        4.5047840581   -2.8607738246    0.9392108097
H        0.6356215212   -2.5567618248    1.4355346634
H        1.2435902526   -0.8677020024    1.3332538658
H        2.3461559362   -2.1969381678    1.8370434736
H        2.9759287396   -0.4903392881   -1.4705754200
20   
torsion grid (-105,)
C        7.3477197383   -2.3764513775   -1.0564051621
C        6.7530062674   -1.4992007885   -1.9675346330
C        6.5959165102   -2.8680970623    0.0168028089
C        5.4148399844   -1.1266562052   -1.8159596235
C        5.2673189121   -2.4795308309    0.1915949366
C        4.6713047715   -1.6088180378   -0.7304244747
C        1.3272356472   -1.9047390996    1.1452280080
N        3.3278558578   -1.1615350402   -0.5469200845
O        2.5317193604   -3.6286333030   -0.4704619139
O        1.0443937218   -1.7986508843   -1.4780145468
S        2.0145553704   -2.2621269823   -0.4802374630
H        8.3846678141   -2.6755016433   -1.1811935783
H        7.3238181018   -1.1136264278   -2.8080479858
H        7.0487154507   -3.5518532877    0.7298263528
H        4.9469325630   -0.4638822839   -2.5407820757
H        4.6930350415   -2.8587746462    1.0302103960
H        0.4557938348   -2.5508073137    1.2668335292
H        1.0372126545   -0.8543734683    1.1737408706
H        2.0828528309   -2.1264164462    1.8991493849
H        3.0592328815   -0.4011477827   -1.1683392790
20   
torsion grid (-90,)
C        7.3014239615   -2.4008195762   -1.2130997014
C        6.6288659324   -1.4937579882   -2.0368434825
C        6.6621985818   -2.9069336233   -0.0751469153
C        5.3213864955   -1.1042413148   -1.7331752157
C        5.3669472100   -2.5025461956    0.2498651143
C        4.6931392995   -1.6008899108   -0.5838112993
C        1.0986437182   -1.7602752085    1.0930629745
N        3.3788473974   -1.1469736495   -0.2325219924
O        2.5894262695   -3.6032176085   -0.1140811362
O        1.2778415586   -1.9318161353   -1.5386103150
S        2.0634525033   -2.2591302473   -0.3426805840
H        8.3140467653   -2.7115900143   -1.4551367281
H        7.1137350799   -1.0979277657   -2.9251659168
H        7.1784135485   -3.6130812829    0.5696911008
H        4.7881529906   -0.4195611592   -2.3892579044
H        4.8727460417   -2.8859296806    1.1358830855
H        0.2067625761   -2.3894688024    1.1012576536
H        0.8231685532   -0.7107740167    0.9835396515
H        1.7011042834   -1.9211810408    1.9866263476
H        3.1099158036   -0.3206675140   -0.7661907251
20   
torsion grid (-75,)
C        7.2871168656   -2.3896790304   -1.3223103695
C        6.5649925070   -1.4455378396   -2.0580354902
C        6.7243233371   -2.9488750560   -0.1689606827
C        5.2817967210   -1.0708912210   -1.6500262397
C        5.4542093803   -2.5607963646    0.2599638085
C        4.7310076833   -1.6209070048   -0.4855698025
C        0.9901019990   -1.6321489131    1.0020964291
N        3.4397141057   -1.1933580635   -0.0223562824
O        2.6116469207   -3.6134945887    0.2451775990
O        1.5234992607   -2.1520777174   -1.5380524884
S        2.1344267665   -2.3097430875   -0.2121946055
H        8.2808038430   -2.6883151663   -1.6449344853
H        6.9915126157   -1.0095125966   -2.9573936310
H        7.2808521682   -3.6837188804    0.4065648214
H        4.7066436898   -0.3585383989   -2.2374956105
H        5.0149290291   -2.9822691401    1.1571714637
H        0.0936946416   -2.2529742602    0.9560758843
H        0.7488630901   -0.6039173006    0.7286706811
H        1.4558889755   -1.6857193677    1.9854809933
H        3.1553682436   -0.3247661353   -0.4767103545
20   
torsion grid (-60,)
C        7.3000464859   -2.3442421341   -1.3863593686
C        6.5642965873   -1.3555421419   -2.0465024195
C        6.7628623031   -2.9705523849   -0.2557061871
C        5.2927505392   -1.0027263310   -1.5862631112
C        5.5050500015   -2.6053912897    0.2272692987
C        4.7687532149   -1.6200452012   -0.4436090212
C        0.9268329809   -1.5025270815    0.8160758187
N        3.4886142219   -1.2249972315    0.0749070417
O        2.5887516391   -3.5838905492    0.5300855174
O        1.7542308404   -2.3742190592   -1.5436480451
S        2.1969988939   -2.3466760657   -0.1441260785
H        8.2844603515   -2.6255042445   -1.7504020117
H        6.9708454696   -0.8681667684   -2.9285735400
H        7.3302390605   -3.7398734724    0.2611792558
H        4.7054381842   -0.2566538299   -2.1169631179
H        5.0838232570   -3.0773396333    1.1078522688
H        0.0430024873   -2.1408910612    0.7691789112
H        0.7124818163   -0.5365991200    0.3561693949
H        1.2758160635   -1.3940112751    1.8425882878
H        3.1879411272   -0.3261348614   -0.3031206212
20   
torsion grid (-45,)
C        7.2920064828   -2.3218637367   -1.4411556215
C        6.5644789028   -1.2698635414   -2.0056157920
C        6.7562326701   -3.0332349173   -0.3615123999
C        5.3029992697   -0.9397757203   -1.5032559997
C        5.5101993161   -2.6918546330    0.1674933585
C        4.7810355943   -1.6434543046   -0.4106674734
C        0.8933937859   -1.4252410983    0.6758836753
N        3.5141258815   -1.2740642578    0.1481998582
O        2.5464790992   -3.5231896730    0.9208570026
O        1.9327458305   -2.7075824794   -1.3995253868
S        2.2394111963   -2.4225235060    0.0070457500
H        8.2677758492   -2.5858910166   -1.8395631561
H        6.9690146239   -0.7149054635   -2.8478100187
H        7.3167855896   -3.8515533776    0.0824155745
H        4.7226143527   -0.1423254809   -1.9623570566
H        5.0937893200   -3.2286216168    1.0129299124
H        0.0241747599   -2.0843297531    0.7022370155
H        0.7016073161   -0.5850587159    0.0067903922
H        1.1583357569   -1.0971179263    1.6811193842
H        3.1828338383   -0.3699880896   -0.1861191665
20   
torsion grid (-30,)
C        7.3061549775   -2.2895135705   -1.4888059402
C        6.6008653999   -1.1820406628   -1.9688614088
C        6.7590330839   -3.0652862145   -0.4604420720
C        5.3497821562   -0.8602477334   -1.4361390142
C        5.5250334167   -2.7336226342    0.1011158581
C        4.8163159475   -1.6296552577   -0.3944450525
C        0.9108206734   -1.3517644397    0.5416752106
N        3.5651582823   -1.2713187327    0.1927441420
O        2.5319165593   -3.3515010110    1.2976799040
O        2.1110807163   -2.9885076935   -1.1704042185
S        2.3038715064   -2.4397554780    0.1761062440
H        8.2731983312   -2.5462772746   -1.9121850867
H        7.0143483031   -0.5757211811   -2.7703859112
H        7.3020376666   -3.9264800097   -0.0803634424
H        4.7875180593   -0.0166235314   -1.8313231258
H        5.1067660203   -3.3177697121    0.9145169953
H        0.0508326188   -2.0114058380    0.6675468224
H        0.7472058113   -0.6837440238   -0.3051086583
H        1.1093752032   -0.8080323493    1.4661721593
H        3.2133833799   -0.3623621595   -0.0995478669
20   
torsion grid (-15,)
C        7.2648749307   -2.2831966978   -1.5552111437
C        6.5802009622   -1.1263991584   -1.9387053884
C        6.7158539423   -3.1150188823   -0.5726063015
C        5.3490086470   -0.8115063639   -1.3576562651
C        5.5028526130   -2.7932298340    0.0373883340
C        4.8136042996   -1.6394596565   -0.3625701089
C        0.9034451789   -1.3488016746    0.4003142652
N        3.5874588388   -1.2909530938    0.2712789217
O        2.4377170637   -3.1747821721    1.6106503873
O        2.2700524870   -3.2202595644   -0.9113449687
S        2.3263661437   -2.4586790326    0.3398201142
H        8.2159975257   -2.5341064642   -2.0163527954
H        6.9942680707   -0.4740507226   -2.7029551577
H        7.2422602434   -4.0147992637   -0.2657450737
H        4.8045401534    0.0746993640   -1.6779220937
H        5.0919108902   -3.4228431115    0.8208048802
H        0.0376533729   -1.9927613359    0.5627062826
H        0.8132527048   -0.8303186503   -0.5550559280
H        1.0165657383   -0.6590992897    1.2385592436
H        3.2317781890   -0.3683143241    0.0371932984
20   
torsion grid (0,)
C        7.2181971424   -2.2597012209   -1.6882129534
C        6.5153842046   -1.0797895343   -1.9479738169
C        6.7294765120   -3.1557954197   -0.7304638745
C        5.3252507022   -0.8053225889   -1.2690804147
C        5.5587262066   -2.8759898985   -0.0253750449
C        4.8491594094   -1.6988095312   -0.3002945290
C        0.9675949734   -1.4702244478    0.1928372016
N        3.6720622765   -1.3855840420    0.4376534755
O        2.2913288129   -3.0309719665    1.8842356168
O        2.5317036224   -3.4921309683   -0.5942096867
S        2.3882394437   -2.5413985829    0.5100948444
H        8.1371403901   -2.4786814786   -2.2247105141
H        6.8834728188   -0.3760796572   -2.6898509904
H        7.2700179496   -4.0745715621   -0.5196198118
H        4.7695173921    0.1043904431   -1.4897332138
H        5.1964695866   -3.5610684625    0.7347655677
H        0.0862828204   -2.1029498619    0.3107673252
H        1.0270801778   -1.0867512523   -0.8266181683
H        0.9488190509   -0.6701551738    0.9353707576
H        3.3122267543   -0.4543545673    0.2457024912
20   
torsion grid (15,)
C        7.0838612041   -2.2444458723   -1.7705098432
C        6.3820329079   -1.0468127931   -1.9333145177
C        6.6712070933   -3.1593854351   -0.7946751779
C        5.2657457400   -0.7740909599   -1.1379046854
C        5.5750671000   -2.8820288966    0.0224276992
C        4.8637394567   -1.6877539332   -0.1540467336
C        1.1083127995   -1.3667915915   -0.0424023351
N        3.7656245302   -1.3744599254    0.7067516336
O        1.9913540451   -2.6472976268    2.0836253334
O        2.6626781585   -3.5489049013   -0.1969034342
S        2.3801834290   -2.4235356324    0.6930398140
H        7.9456704055   -2.4621316690   -2.3952366030
H        6.6935615119   -0.3277167029   -2.6862151474
H        7.2134884982   -4.0912548820   -0.6593128865
H        4.7123580236    0.1533414575   -1.2779779326
H        5.2676317444   -3.5833463211    0.7907567822
H        0.1883569889   -1.9541451309   -0.0477096439
H        1.4000968824   -1.1057656848   -1.0609920024
H        0.9799877974   -0.4842426639    0.5868515498
H        3.4560191423   -0.4165116101    0.5509824834
20   
torsion grid (30,)
C        6.9569743994   -2.2141551797   -1.8440710900
C        6.2554363267   -1.0072923705   -1.9123109268
C        6.6070443389   -3.1642241292   -0.8770654773
C        5.2002996344   -0.7604908763   -1.0293197675
C        5.5717670185   -2.9143704582    0.0242405941
C        4.8592452520   -1.7107305083   -0.0568653202
C        1.2805532908   -1.3980202626   -0.2494406326
N        3.8206766441   -1.4295892306    0.8920412852
O        1.7877554717   -2.3676370137    2.1399250799
O        2.7093642612   -3.6372993776    0.1288060207
S        2.3752795771   -2.3849331298    0.8023858106
H        7.7721047300   -2.4115182807   -2.5347960559
H        6.5205090505   -0.2606042034   -2.6560594411
H        7.1516857302   -4.1024873493   -0.8153888724
H        4.6487065778    0.1766356516   -1.0915954210
H        5.3085900825   -3.6423871239    0.7833694947
H        0.3473440847   -1.9568023204   -0.3407684961
H        1.7450011706   -1.2678140702   -1.2285766599
H        1.0960808737   -0.4429832857    0.2449698483
H        3.5511694005   -0.4491529726    0.8090848373
20   
torsion grid (45,)
C        6.8469005978   -2.1924622677   -1.8946533457
C        6.1808794591   -0.9637172426   -1.8842128036
C        6.5053166797   -3.1735182923   -0.9560047074
C        5.1683782393   -0.7250900349   -0.9504463247
C        5.5127278482   -2.9338507680   -0.0047946956
C        4.8349328527   -1.7073365429   -0.0072055357
C        1.4170250919   -1.4690736492   -0.4008131207
N        3.8382406565   -1.4382658366    0.9904116845
O        1.6635251424   -2.0585914598    2.1530012427
O        2.6788788525   -3.6696422071    0.4473861574
S        2.3574496121   -2.3169033363    0.8932003866
H        7.6293337261   -2.3826761033   -2.6241084413
H        6.4409989112   -0.1929355930   -2.6047521805
H        7.0239617556   -4.1284133357   -0.9550770384
H        4.6445335680    0.2297446646   -0.9497909452
H        5.2539978469   -3.6852862365    0.7322067032
H        0.4859858097   -2.0240392218   -0.5297700939
H        1.9969573665   -1.4772825936   -1.3254278987
H        1.2059994118   -0.4535580621   -0.0628919150
H        3.6085443959   -0.4440339094    0.9836613227
20   
torsion grid (60,)
C        6.7657707713   -2.1673911824   -1.9517153892
C        6.1648464547   -0.9088173525   -1.8570575302
C        6.3930100216   -3.1799199272   -1.0598561286
C        5.1862372602   -0.6709323994   -0.8879819408
C        5.4352530634   -2.9441755339   -0.0719112403
C        4.8221620575   -1.6860722038    0.0085154609
C        1.5232411833   -1.5991746981   -0.4854044381
N        3.8591017460   -1.4199003183    1.0365729171
O        1.6203819343   -1.7722765191    2.1501421620
O        2.6494412479   -3.6622165736    0.7636702439
S        2.3600757900   -2.2477981905    0.9822732961
H        7.5214890991   -2.3561487430   -2.7091566376
H        6.4491002198   -0.1131746778   -2.5404916241
H        6.8615350740   -4.1583842348   -1.1227742976
H        4.7111442329    0.3066640358   -0.8233145388
H        5.1528908463   -3.7207285127    0.6292892187
H        0.5892417801   -2.1544538296   -0.5882342242
H        2.1611576010   -1.7611290589   -1.3558105761
H        1.3195051476   -0.5394425527   -0.3266801056
H        3.6647993933   -0.4215280760    1.1104409681
20   
torsion grid (75,)
C        6.7109194164   -2.1292815040   -1.9726598151
C        6.2023711662   -0.8397666748   -1.7901920221
C        6.2622715340   -3.1703739468   -1.1519183405
C        5.2397527488   -0.5973207438   -0.8068374292
C        5.3213183119   -2.9338872798   -0.1474511962
C        4.8003992645   -1.6423235888    0.0192898680
C        1.6049657420   -1.7659214032   -0.5568337091
N        3.8500534129   -1.3745410876    1.0535349964
O        1.5641711346   -1.5087148670    2.0871891665
O        2.6043196380   -3.6104330275    1.0598339384
S        2.3437608383   -2.1733936803    1.0431940257
H        7.4532725339   -2.3200395097   -2.7426307421
H        6.5452868299   -0.0220442822   -2.4184335104
H        6.6589861960   -4.1737607150   -1.2815959282
H        4.8334461843    0.4041534721   -0.6767229206
H        4.9823491160   -3.7335441813    0.5011072503
H        0.6638354847   -2.3151553589   -0.6172674517
H        2.2846946494   -2.0843782392   -1.3483219448
H        1.4240553282   -0.6909020846   -0.5927255670
H        3.6891009640   -0.3800182912    1.2040515568
20   
torsion grid (90,)
C        6.6977377531   -2.0999255346   -1.9923461514
C        6.2793539275   -0.7917254591   -1.7297711780
C        6.1608331350   -3.1567205118   -1.2487777512
C        5.3183744996   -0.5442092953   -0.7464753192
C        5.2217455826   -2.9192692515   -0.2424828750
C        4.7904293421   -1.6064680056    0.0026566666
C        1.6498111058   -1.9468954421   -0.5768455228
N        3.8378632679   -1.3367790889    1.0262194912
O        1.5429962601   -1.3360550927    2.0210412826
O        2.5857010119   -3.5553054450    1.2903413891
S        2.3391167225   -2.1297217707    1.0842919744
H        7.4378653788   -2.2930701658   -2.7637603149
H        6.6903282829    0.0385142136   -2.2979432089
H        6.4879564333   -4.1756518949   -1.4381938685
H        4.9793949572    0.4724292896   -0.5573568568
H        4.8226916505   -3.7330324495    0.3530246200
H        0.7078923022   -2.4978448128   -0.5853764767
H        2.3500411311   -2.3758134852   -1.2943719913
H        1.4789502152   -0.8871140017   -0.7699372697
H        3.7210584236   -0.3587079900    1.2793269842
20   
torsion grid (105,)
C        6.7142152195   -2.0730412444   -1.9914715825
C        6.3704320103   -0.7559215609   -1.6702047139
C        6.0830460944   -3.1289606519   -1.3256266518
C        5.3905992330   -0.4969341366   -0.7094100106
C        5.1240780232   -2.8838263905   -0.3396982619
C        4.7673250281   -1.5599956479   -0.0376682056
C        1.6184463036   -2.0602815115   -0.5570702425
N        3.7908230572   -1.2745919161    0.9509192111
O        1.5283685894   -1.2216849178    1.9888483123
O        2.5763508820   -3.4848577264    1.4320561307
S        2.3188467383   -2.0824424898    1.1075865134
H        7.4687049198   -2.2734446406   -2.7468755998
H        6.8540382689    0.0745812718   -2.1776438737
H        6.3524778473   -4.1560239298   -1.5575138200
H        5.1070603575    0.5277310304   -0.4787944380
H        4.6633562118   -3.7014856147    0.2044401592
H        0.6933893946   -2.6372972082   -0.5121990692
H        2.3274800520   -2.5298121414   -1.2395611026
H        1.4191296599   -1.0257566175   -0.8385960986
H        3.7497246413   -0.3370621127    1.3382668365
20   
torsion grid (120,)
C        6.8416664399   -2.0771086660   -1.9404372175
C        6.5581458462   -0.7532696614   -1.5868892907
C        6.0724781915   -3.1079713896   -1.3943152417
C        5.5068787917   -0.4641908324   -0.7164157203
C        5.0332708024   -2.8363753874   -0.4990663390
C        4.7410915545   -1.5048413118   -0.1651165004
C        1.4596496243   -2.1959740009   -0.4641303432
N        3.6819166788   -1.1541361756    0.7092059400
O        1.5796003527   -1.2020222691    2.0207911620
O        2.7164500511   -3.4248077251    1.4938616553
S        2.3303271190   -2.0666565424    1.1091681356
H        7.6540090737   -2.3004951629   -2.6260691724
H        7.1472092841    0.0613510810   -1.9999203501
H        6.2919976624   -4.1420298889   -1.6470461920
H        5.2717695490    0.5678019685   -0.4658679440
H        4.4802760206   -3.6475334258   -0.0392049970
H        0.6008908767   -2.8478261634   -0.2953973949
H        2.1339475974   -2.6383137374   -1.1988323351
H        1.1423753021   -1.1976593629   -0.7655980639
H        3.7303918402   -0.2863173962    1.2327785517
20   
torsion grid (135,)
C        6.8780460691   -2.1760472752   -1.8757932520
C        6.0337937981   -1.0796781595   -2.0786922221
C        6.6876413237   -3.0096140204   -0.7676028655
C        5.0046884870   -0.8123997910   -1.1710742781
C        5.6512599055   -2.7539682125    0.1328728274
C        4.8140578144   -1.6487551709   -0.0658486104
C        1.3268249648   -1.2259587586   -0.4045376255
N        3.7400472930   -1.3430970576    0.8413887324
O        1.6977168148   -2.1718705923    2.0588373896
O        2.5341876736   -3.5315883403    0.0625764528
S        2.2934018868   -2.2450195401    0.7200983222
H        7.6814052633   -2.3812607465   -2.5783258370
H        6.1821048548   -0.4277532916   -2.9353782274
H        7.3375988441   -3.8665010923   -0.6125302293
H        4.3555151974    0.0494728375   -1.2985505699
H        5.4754832211   -3.4154837612    0.9763167174
H        0.3726168657   -1.7358330383   -0.5488214341
H        1.8648724315   -1.1515698132   -1.3503668647
H        1.1865537879   -0.2484203307    0.0556693519
H        3.9919910187   -1.3123413628    1.8286398228
20   
torsion grid (150,)
C        6.7951086100   -2.1481306068   -1.9073186100
C        5.9885238668   -1.0135272475   -2.0422465072
C        6.6002766544   -3.0212794651   -0.8308406933
C        4.9920909136   -0.7481501157   -1.0983230308
C        5.5964618457   -2.7676529125    0.1064264233
C        4.7968002549   -1.6249391301   -0.0255215259
C        1.4559047558   -1.3167056798   -0.5145836529
N        3.7554145228   -1.3123245853    0.9214109059
O        1.6139304865   -1.9784417621    2.0762996404
O        2.5448699181   -3.5741653824    0.3211358862
S        2.2971368056   -2.2102737126    0.8000876483
H        7.5736193590   -2.3517904347   -2.6376905942
H        6.1415481201   -0.3302526738   -2.8732742431
H        7.2216106240   -3.9068048869   -0.7282960069
H        4.3732655816    0.1418903756   -1.1713137588
H        5.4162270620   -3.4591429173    0.9243042604
H        0.5055579104   -1.8284757376   -0.6756442629
H        2.0705441667   -1.3667606659   -1.4139782389
H        1.3009491900   -0.2888715514   -0.1880403096
H        4.0503170556   -1.3880189939    1.8960246053
20   
torsion grid (165,)
C        6.7155210591   -2.1210653142   -1.9393359889
C        5.9580870303   -0.9466262361   -2.0003516389
C        6.5059351423   -3.0347957441   -0.9001701866
C        4.9960017905   -0.6831928965   -1.0210819093
C        5.5363763892   -2.7814471234    0.0731440012
C        4.7844287794   -1.6006163248    0.0141580832
C        1.5933521533   -1.4277990776   -0.5930583388
N        3.7811883546   -1.2795299096    1.0040295148
O        1.5357378013   -1.7576183496    2.0736348998
O        2.5388138378   -3.5793954977    0.6128981445
S        2.3015885569   -2.1569141137    0.8905871355
H        7.4677297465   -2.3232655307   -2.6971464493
H        6.1233299847   -0.2311455944   -2.8013826189
H        7.0895424971   -3.9502040917   -0.8533708965
H        4.4153027828    0.2348401321   -1.0374200865
H        5.3448860752   -3.5024356666    0.8622962691
H        0.6413346757   -1.9373389583   -0.7507053108
H        2.2662624238   -1.6137704996   -1.4300959421
H        1.4445939860   -0.3621177457   -0.4209691817
H        4.1184717009   -1.4536841346    1.9534946490
20   
torsion grid (180,)
C        6.6277246539   -2.0807159095   -1.9613858164
C        5.9367708293   -0.8642959911   -1.9407504027
C        6.3869219167   -3.0378432024   -0.9692716214
C        5.0093396024   -0.6046860238   -0.9279250985
C        5.4527201565   -2.7872998553    0.0394886453
C        4.7659096961   -1.5659319684    0.0594699119
C        1.7285353165   -1.5710199716   -0.6494706051
N        3.7997668445   -1.2400819508    1.0887383689
O        1.4448001442   -1.5099235089    2.0242335792
O        2.5079126882   -3.5389002493    0.9357664274
S        2.2938325562   -2.0847523816    0.9799033004
H        7.3531547672   -2.2811523335   -2.7453242281
H        6.1266554453   -0.1150148828   -2.7045528899
H        6.9203674381   -3.9844034555   -0.9849522562
H        4.4775899297    0.3414430131   -0.8819161386
H        5.2373275867   -3.5388289082    0.7932354863
H        0.7483560834   -2.0350377512   -0.7718879788
H        2.4229333784   -1.9409905803   -1.4025853946
H        1.6471357421   -0.4843799917   -0.6693471722
H        4.1684192758   -1.4999230796    2.0075633482
