14   
torsion grid (-165,)
C       -0.6911503219   -2.6535160214    0.0668078132
C        0.4650702703   -1.9400484391   -0.1449986304
C        0.7824915315   -0.5273992282    0.2544346525
N       -0.6825789476   -3.9265019201   -0.4484002621
N        0.4045923744   -4.2560924737   -1.0402251382
N        2.4675168572   -0.9652319643    1.9657603819
N        2.1811873554   -0.3965214165    0.6817101921
S        1.5526692098   -2.9490521166   -1.0055488382
H       -1.5734387433   -2.3016396405    0.5894983379
H        0.6426579988    0.1323090032   -0.6110164666
H        0.0615002028   -0.2109310046    1.0288696250
H        1.7011740202   -0.7709555530    2.6213303046
H        2.4872389478   -1.9773134634    1.8485399196
H        2.4095083137    0.5922733167    0.7463265502
14   
torsion grid (-150,)
C       -0.7056441735   -2.6391424095    0.0650917815
C        0.4543135105   -1.9299594163   -0.1395984246
C        0.7714909798   -0.5147807753    0.2529555810
N       -0.6932111073   -3.9169586642   -0.4383310094
N        0.4003285766   -4.2545980191   -1.0133558849
N        2.4381226930   -0.9479946516    1.9821431633
N        2.1590567093   -0.3844798250    0.6993011115
S        1.5504925293   -2.9487457335   -0.9764835841
H       -1.5934456530   -2.2809463773    0.5739930963
H        0.6459375745    0.1395389239   -0.6186233572
H        0.0383995379   -0.1895640882    1.0126507668
H        1.6168649990   -0.9021669686    2.5928034195
H        2.6686784461   -1.9305055219    1.8491242371
H        2.4216409237    0.5965259277    0.7380175472
14   
torsion grid (-135,)
C       -0.7257434088   -2.6313682988    0.0496332610
C        0.4445944673   -1.9333610256   -0.1330378019
C        0.7653880584   -0.5165567840    0.2536317478
N       -0.7114320863   -3.9138532300   -0.4419061465
N        0.3934285080   -4.2653897310   -0.9864310309
N        2.4189263822   -0.9390975264    1.9956782092
N        2.1457021816   -0.3876741662    0.7062971094
S        1.5524620687   -2.9681452960   -0.9328338198
H       -1.6228701179   -2.2617455527    0.5334376746
H        0.6468066687    0.1339377207   -0.6215430131
H        0.0268645807   -0.1834648711    1.0050928885
H        1.5651689312   -1.0538472391    2.5445047593
H        2.8547804136   -1.8494151311    1.8698109173
H        2.4382497484    0.5851513482    0.7185271197
14   
torsion grid (-120,)
C       -0.7460952892   -2.6166599717    0.0396946039
C        0.4368250980   -1.9354748187   -0.1255286662
C        0.7667684753   -0.5172751738    0.2498933701
N       -0.7367626670   -3.9045527289   -0.4377039608
N        0.3756267538   -4.2746142318   -0.9548609059
N        2.3864004679   -0.9261667055    2.0187664332
N        2.1464163644   -0.3943072491    0.7001860440
S        1.5484621187   -2.9918117043   -0.8905202914
H       -1.6488726954   -2.2308774341    0.4998789228
H        0.6546422856    0.1263714285   -0.6307125958
H        0.0298062980   -0.1707766251    0.9967857059
H        1.5245199932   -1.2883000225    2.4241522506
H        3.0483219618   -1.6931424490    1.9256504638
H        2.4307002735    0.5815323423    0.7213534975
14   
torsion grid (-105,)
C       -0.7366222180   -2.6085949988    0.0667350831
C        0.4481477017   -1.9418346027   -0.1409313532
C        0.8007036679   -0.5226635578    0.2086753867
N       -0.7553285636   -3.9016275801   -0.3962213677
N        0.3366580593   -4.2883635469   -0.9438646034
N        2.3024223147   -0.9154765692    2.0541933710
N        2.1823593083   -0.4211900123    0.6769419826
S        1.5247113384   -3.0186835135   -0.9288356214
H       -1.6204680873   -2.2074906008    0.5498967263
H        0.7185849958    0.1017868608   -0.6881730969
H        0.0659812702   -0.1456922388    0.9406404484
H        1.5765473736   -1.6209664082    2.1864039155
H        3.1800753395   -1.4357095737    2.0747205466
H        2.4054735280    0.5706960789    0.7448536542
14   
torsion grid (-90,)
C       -0.7543757748   -2.5962977195    0.0654587235
C        0.4351863526   -1.9399329515   -0.1481006407
C        0.8021153698   -0.5244642632    0.2007318970
N       -0.7881712752   -3.8883864551   -0.3988266606
N        0.2962679790   -4.2847424772   -0.9545238094
N        2.2298272820   -0.9137824612    2.0807765194
N        2.1842777821   -0.4426127674    0.6820290690
S        1.4963427355   -3.0260354096   -0.9457790502
H       -1.6303533875   -2.1877104012    0.5564430559
H        0.7363947988    0.0969059895   -0.6993671475
H        0.0731751221   -0.1385162572    0.9316512622
H        1.7235710118   -1.8026264675    2.0805280760
H        3.2027855775   -1.1950310522    2.2189345289
H        2.3993544350    0.5515233006    0.7575632420
14   
torsion grid (-75,)
C        0.0554203483   -3.1771273197    0.8462275980
C        0.5407135173   -2.0790391301    0.1718768533
C        1.0559754576   -0.8035651990    0.7954881291
N       -0.3501177981   -4.2178790369    0.0491002367
N       -0.2174943366   -4.0000062751   -1.2094041667
N        2.1095735230   -0.0031871285   -1.1721998390
N        2.3254514402   -0.2945233029    0.2575841512
S        0.4546791402   -2.4301247298   -1.5080245183
H       -0.0242833389   -3.2769505520    1.9233489187
H        0.3085153357   -0.0064214596    0.6990060688
H        1.2004802757   -0.9698450084    1.8671483727
H        1.4402560632    0.7716489921   -1.1713126258
H        2.9772590399    0.4422505403   -1.4798896688
H        2.9561777735   -1.0994123762    0.2455871958
14   
torsion grid (-60,)
C        0.0990987464   -3.1986501422    0.8390530663
C        0.5283464660   -2.0719639726    0.1741443988
C        1.0203266992   -0.7918144645    0.8018847279
N       -0.2929209119   -4.2376817424    0.0324394838
N       -0.2036794670   -3.9895557554   -1.2247950318
N        2.0666614158    0.0130482823   -1.1636720636
N        2.2867168326   -0.2678814476    0.2659113208
S        0.4054245849   -2.3925384314   -1.5093882714
H        0.0514610020   -3.3214925515    1.9156807916
H        0.2653844879   -0.0037301596    0.6982759471
H        1.1630063428   -0.9538955332    1.8745415022
H        1.5756658279    0.9108444429   -1.1706296379
H        2.9893214016    0.2407858704   -1.5394455423
H        2.9382449950   -1.0553626862    0.2684411689
14   
torsion grid (-45,)
C        0.1134081374   -3.2176521974    0.8485366839
C        0.4873917059   -2.0663313204    0.1927865023
C        0.9735118678   -0.7864611543    0.8228246512
N       -0.2789075109   -4.2505102416    0.0335166134
N       -0.2426065099   -3.9745239105   -1.2203489643
N        2.0194828809    0.0228682027   -1.1428672552
N        2.2386116872   -0.2605989796    0.2833275906
S        0.3114255405   -2.3543500511   -1.4917308503
H        0.1065955258   -3.3635980550    1.9232848882
H        0.2180076438   -0.0004530657    0.7173061174
H        1.1179172641   -0.9480350384    1.8955712533
H        1.7313314485    1.0034779085   -1.1688620220
H        2.9414345048    0.0209154911   -1.5812347830
H        2.9032657199   -1.0354236170    0.3019027320
14   
torsion grid (-30,)
C        0.1523789909   -3.2364482756    0.8424799597
C        0.4592195125   -2.0587925560    0.1985716475
C        0.9303850258   -0.7754832196    0.8313574538
N       -0.2363757869   -4.2649817830    0.0202356307
N       -0.2611834294   -3.9622186142   -1.2273803483
N        1.9965201196    0.0412629317   -1.1264916706
N        2.1961637425   -0.2427624108    0.2975767136
S        0.2251975005   -2.3168897604   -1.4833064920
H        0.1924289267   -3.4048726973    1.9131717455
H        0.1715553675    0.0049846429    0.7185010842
H        1.0703980872   -0.9361713775    1.9050713125
H        1.9098763791    1.0574131738   -1.1853339168
H        2.8680688048   -0.1749613479   -1.6101606307
H        2.8790540792   -0.9987484824    0.3483280414
14   
torsion grid (-15,)
C        0.2011616736   -3.2532127736    0.8324263177
C        0.4364095034   -2.0518276790    0.2019341665
C        0.8925260477   -0.7637593779    0.8361943293
N       -0.1837970621   -4.2786518645    0.0047911969
N       -0.2727753313   -3.9541820052   -1.2338445284
N        1.9911606816    0.0623971106   -1.1049340176
N        2.1608848261   -0.2269228722    0.3140495451
S        0.1398221025   -2.2848892238   -1.4733033441
H        0.2916055044   -3.4410285239    1.8967690353
H        0.1322262505    0.0120635788    0.7104623638
H        1.0224441330   -0.9221732327    1.9117292455
H        2.1045905576    1.0724589149   -1.1954526794
H        2.7675637382   -0.3462543123   -1.6237292794
H        2.8597564415   -0.9635859797    0.4028967900
14   
torsion grid (0,)
C        0.2542356289   -3.2601395234    0.8112626636
C        0.4101454912   -2.0375020846    0.1965110314
C        0.8520409907   -0.7439900105    0.8315565091
N       -0.1302953993   -4.2832336554   -0.0188646754
N       -0.2920138599   -3.9411846773   -1.2446940582
N        1.9910863163    0.0940963019   -1.0863149122
N        2.1244811594   -0.2055522516    0.3246752541
S        0.0416546710   -2.2502503419   -1.4666171688
H        0.4026096849   -3.4644789326    1.8660046144
H        0.0914601686    0.0282117018    0.6913328510
H        0.9687646772   -0.9003653054    1.9090408136
H        2.2886445987    1.0620729814   -1.2039225946
H        2.6375218096   -0.4731074561   -1.6337132024
H        2.8394131127   -0.9207920749    0.4531509347
14   
torsion grid (15,)
C        0.3151522075   -3.2652224187    0.8072980785
C        0.4034198341   -2.0297054046    0.2044654698
C        0.8333197752   -0.7294321444    0.8375499172
N       -0.0664186722   -4.2900840396   -0.0215450480
N       -0.2892051566   -3.9407813014   -1.2347843577
N        2.0271035831    0.1168601667   -1.0464495375
N        2.1152166053   -0.1985918091    0.3550293299
S       -0.0255216559   -2.2338787474   -1.4449735616
H        0.5122387085   -3.4775856149    1.8524135391
H        0.0781805564    0.0425948548    0.6724696891
H        0.9264436028   -0.8793198483    1.9182630865
H        2.4993157931    1.0090550077   -1.1820530604
H        2.5149890801   -0.5743229801   -1.6167838550
H        2.8410641720   -0.8956548768    0.5218053858
14   
torsion grid (30,)
C        0.3654574124   -3.2600670526    0.7924872709
C        0.3885197226   -2.0146363003    0.2037225685
C        0.8096065665   -0.7085058581    0.8356571509
N       -0.0165691259   -4.2861073205   -0.0341502608
N       -0.2994247380   -3.9321690429   -1.2326651352
N        2.0539481397    0.1495796434   -1.0130921641
N        2.0990922529   -0.1866125653    0.3771494771
S       -0.1013353773   -2.2128518221   -1.4291995192
H        0.6114398772   -3.4785490931    1.8259112014
H        0.0607018385    0.0644498525    0.6486076228
H        0.8798689438   -0.8533576365    1.9187336626
H        2.6738711086    0.9423612586   -1.1618445660
H        2.3643022234   -0.6204649098   -1.6081696755
H        2.8372370460   -0.8630379334    0.5772420751
14   
torsion grid (45,)
C        0.4086365583   -3.2669026092    0.7733565834
C        0.3747555217   -2.0166249006    0.1952243317
C        0.7865659314   -0.7032891974    0.8240401395
N        0.0264308194   -4.2966326869   -0.0481255557
N       -0.3085145578   -3.9447353665   -1.2329119964
N        2.0780539133    0.1633968308   -0.9923538362
N        2.0814914325   -0.1891071278    0.3892808011
S       -0.1684674545   -2.2163993415   -1.4203437810
H        0.6977147864   -3.4861229684    1.7954082310
H        0.0428059648    0.0693012698    0.6150249258
H        0.8340891195   -0.8412605131    1.9091427437
H        2.8197966087    0.8383547535   -1.1548979244
H        2.2043812402   -0.6440205613   -1.6068588877
H        2.8345099101   -0.8388231335    0.6231542889
14   
torsion grid (60,)
C        0.4418415974   -3.2578376025    0.7639418223
C        0.3679585262   -2.0052922426    0.1941940290
C        0.7757365738   -0.6870919190    0.8217390970
N        0.0604349003   -4.2904212578   -0.0536951141
N       -0.3101637280   -3.9418407565   -1.2281319598
N        2.1123308644    0.1951630054   -0.9606869882
N        2.0772173211   -0.1847281547    0.4119881445
S       -0.2119679749   -2.2076844172   -1.4080231120
H        0.7612516918   -3.4764707973    1.7770537300
H        0.0399902869    0.0880711484    0.5924396953
H        0.7993518900   -0.8191883041    1.9081648348
H        2.9608018033    0.7234261577   -1.1366063162
H        2.0437350566   -0.6034575194   -1.5970091694
H        2.8403896828   -0.8132714573    0.6703687338
14   
torsion grid (75,)
C        0.4637267000   -3.2477637724    0.7669582912
C        0.3592106395   -1.9933162426    0.2055239247
C        0.7635633601   -0.6724646143    0.8359425891
N        0.0910512522   -4.2821928273   -0.0514784226
N       -0.3017343637   -3.9368083659   -1.2190657254
N        2.1428575577    0.2376749011   -0.9103934887
N        2.0728635633   -0.1822122504    0.4545927521
S       -0.2391468710   -2.1974207024   -1.3890544109
H        0.8012971931   -3.4660974793    1.7742462703
H        0.0372934305    0.1071868020    0.5891614848
H        0.7610300089   -0.8007020804    1.9227874722
H        3.0842323030    0.5588907280   -1.1106218895
H        1.8654877564   -0.5024823530   -1.5621188543
H        2.8378490818   -0.8038025826    0.7220485401
14   
torsion grid (90,)
C        0.4740488518   -3.2397829387    0.7660006074
C        0.3721035342   -1.9912837576    0.1893823635
C        0.7608087440   -0.6659915228    0.8205887081
N        0.1309277449   -4.2843661052   -0.0512585388
N       -0.2372696731   -3.9568796818   -1.2312795905
N        2.1707289828    0.3026431726   -0.8890365579
N        2.0794442946   -0.1765773122    0.4695514594
S       -0.1883387043   -2.2149942966   -1.4153476231
H        0.7902680711   -3.4453610194    1.7828703666
H        0.0403216418    0.1148653750    0.5583140095
H        0.7317968098   -0.7872190896    1.9074846251
H        3.1481841362    0.3113290239   -1.1651027365
H        1.6446794317   -0.2972930111   -1.5320783583
H        2.8259912154   -0.8347666780    0.6954442405
14   
torsion grid (105,)
C        0.4229711275   -3.2347593165    0.7986413003
C        0.4182185552   -1.9964638998    0.1906595062
C        0.7885980936   -0.6777508194    0.8385117550
N        0.1324295074   -4.2861542955   -0.0302130765
N       -0.1072901926   -3.9766199444   -1.2458432882
N        2.2066735935    0.3717271305   -0.8452809370
N        2.1166211368   -0.1728787498    0.5078596295
S        0.0142075826   -2.2362748882   -1.4580630245
H        0.6295874487   -3.4272267514    1.8457081389
H        0.0642267196    0.1042810211    0.5895045980
H        0.7516251698   -0.8107364392    1.9237277672
H        3.0570941324    0.0140845489   -1.2775907035
H        1.4290287273    0.0253888272   -1.4137880797
H        2.8151310755   -0.9061664423    0.6316990562
14   
torsion grid (120,)
C        0.3775318076   -3.2341826033    0.8069336712
C        0.4662346560   -2.0059467448    0.1856366832
C        0.8134003543   -0.6908910992    0.8449744429
N        0.1305762230   -4.2891106922   -0.0324639900
N        0.0110879771   -3.9903593481   -1.2677564530
N        2.2421885706    0.3606522452   -0.8515247783
N        2.1461903740   -0.1598032677    0.5199171757
S        0.2093723713   -2.2581316269   -1.4919581055
H        0.4837400022   -3.4173118014    1.8704465067
H        0.0758603260    0.0825059398    0.6074092560
H        0.7801688563   -0.8319772420    1.9295401809
H        2.8370288995   -0.2681163176   -1.3960010366
H        1.3261363201    0.2783399843   -1.2974946882
H        2.8022651635   -0.9376869305    0.5965454755
14   
torsion grid (135,)
C        0.3868022621   -3.2339918508    0.7993043858
C        0.4838440172   -2.0062274892    0.1782549521
C        0.8133193584   -0.6887427350    0.8361421736
N        0.1532743111   -4.2900155376   -0.0425918967
N        0.0527815056   -3.9920956102   -1.2799596870
N        2.2904612799    0.3125071311   -0.8619016470
N        2.1525459140   -0.1433644412    0.5240142879
S        0.2550089738   -2.2610763234   -1.5036721363
H        0.4757737737   -3.4158599932    1.8645970612
H        0.0723253059    0.0776840771    0.5872989186
H        0.7716155110   -0.8245966857    1.9212991349
H        2.6378523972   -0.4642959518   -1.4344727066
H        1.3500085783    0.4641196723   -1.2310296390
H        2.7958210128   -0.9286141713    0.6274934468
14   
torsion grid (150,)
C        0.4171926923   -3.2445460151    0.7879555719
C        0.4777548491   -2.0142915784    0.1666914617
C        0.7953496064   -0.6906067670    0.8150501013
N        0.1836056957   -4.3035922298   -0.0496369864
N        0.0488523701   -4.0053064346   -1.2844080194
N        2.3365904247    0.2528258056   -0.8641878514
N        2.1432955471   -0.1447434241    0.5219315523
S        0.2143886855   -2.2725490547   -1.5095999423
H        0.5325418887   -3.4257206866    1.8508724851
H        0.0591395697    0.0717698867    0.5414050884
H        0.7341484098   -0.8135761364    1.9009668129
H        2.4739416876   -0.5828915551   -1.4461582783
H        1.4423729202    0.6198634946   -1.1942218555
H        2.7893968756   -0.9188431946    0.6766100404
14   
torsion grid (165,)
C       -0.6577389513   -2.6757079197    0.0838961624
C        0.4804659933   -1.9437270409   -0.1631151498
C        0.7957030438   -0.5362345190    0.2538056142
N       -0.6587003922   -3.9361700882   -0.4602694530
N        0.4049812349   -4.2375708057   -1.1086039410
N        2.4893984460   -1.0106230127    1.9507618910
N        2.2082523249   -0.4067984083    0.6621239095
S        1.5391241306   -2.9209548705   -1.0937952607
H       -1.5198439559   -2.3452343069    0.6523325541
H        0.6441519295    0.1343103250   -0.6012010125
H        0.0848539309   -0.2347027085    1.0430042764
H        1.9133837392   -0.5453123583    2.6662022830
H        2.0944114159   -1.9519709710    1.9133136232
H        2.3696260319    0.5906311105    0.7895671494
14   
torsion grid (180,)
C       -0.6734070630   -2.6637699253    0.0783480886
C        0.4732325801   -1.9405985611   -0.1534304660
C        0.7898878149   -0.5305574953    0.2542895150
N       -0.6703683158   -3.9303058840   -0.4520344501
N        0.4039473338   -4.2453834510   -1.0750776436
N        2.4794668851   -0.9841486631    1.9582762974
N        2.1963132086   -0.4005335322    0.6717063562
S        1.5448717678   -2.9331703072   -1.0526983636
H       -1.5446371041   -2.3230307614    0.6263774438
H        0.6436544342    0.1343934428   -0.6060744859
H        0.0748467241   -0.2214853488    1.0369312323
H        1.7895734966   -0.6515262733    2.6453263373
H        2.2891604195   -1.9827462454    1.8707650291
H        2.3890150108    0.5938996582    0.7696695730
