
  -OEChem-05262117483D

 42 44  0     0  0  0  0  0  0999 V2000
   -0.4664   -0.1412   -6.1538 C   0  0  0  0  0  0  0  0  0  0  0  0
    1.7242   -1.1061   -5.9471 C   0  0  0  0  0  0  0  0  0  0  0  0
    1.2675   -2.1038   -8.7803 C   0  0  0  0  0  0  0  0  0  0  0  0
    0.1726    0.0179   -9.1222 C   0  0  0  0  0  0  0  0  0  0  0  0
   -0.5082    0.0531   -4.7757 C   0  0  0  0  0  0  0  0  0  0  0  0
    1.6778   -0.9070   -4.5657 C   0  0  0  0  0  0  0  0  0  0  0  0
    1.3165   -2.3130  -10.1599 C   0  0  0  0  0  0  0  0  0  0  0  0
    0.2113   -0.1727  -10.5050 C   0  0  0  0  0  0  0  0  0  0  0  0
    0.6529   -0.7263   -6.7697 C   0  0  0  0  0  0  0  0  0  0  0  0
    0.6983   -0.9389   -8.2361 C   0  0  0  0  0  0  0  0  0  0  0  0
    0.5643   -0.3192   -3.9507 C   0  0  0  0  0  0  0  0  0  0  0  0
    0.7856   -1.3391  -10.9996 C   0  0  0  0  0  0  0  0  0  0  0  0
   -0.5461   -3.3985   -3.1490 C   0  0  0  0  0  0  0  0  0  0  0  0
    0.3368    1.4371   -0.5497 C   0  0  0  0  0  0  0  0  0  0  0  0
    1.5638    0.5048   -0.3415 C   0  0  0  0  0  0  0  0  0  0  0  0
   -0.1203    1.2165   -2.0115 C   0  0  0  0  0  0  0  0  0  0  0  0
    1.8369   -0.1312   -1.7194 C   0  0  0  0  0  0  0  0  0  0  0  0
    0.4699   -0.1518   -2.4427 C   0  0  0  0  0  0  0  0  0  0  0  0
   -0.4373   -1.2774   -1.8704 C   0  0  0  0  0  0  0  0  0  0  0  0
    0.0256   -2.6217   -2.1811 N   0  0  0  0  0  0  0  0  0  0  0  0
   -1.5589   -3.1193   -3.7761 O   0  0  0  0  0  0  0  0  0  0  0  0
    0.8285   -1.5339  -12.3445 F   0  0  0  0  0  0  0  0  0  0  0  0
   -1.3307    0.1277   -6.7553 H   0  0  0  0  0  0  0  0  0  0  0  0
    2.6166   -1.5381   -6.3927 H   0  0  0  0  0  0  0  0  0  0  0  0
    1.6516   -2.8725   -8.1160 H   0  0  0  0  0  0  0  0  0  0  0  0
   -0.2504    0.9374   -8.7279 H   0  0  0  0  0  0  0  0  0  0  0  0
   -1.4053    0.4797   -4.3359 H   0  0  0  0  0  0  0  0  0  0  0  0
    2.5327   -1.2096   -3.9686 H   0  0  0  0  0  0  0  0  0  0  0  0
    1.7447   -3.2162  -10.5841 H   0  0  0  0  0  0  0  0  0  0  0  0
   -0.1849    0.5679  -11.1930 H   0  0  0  0  0  0  0  0  0  0  0  0
    0.0068   -4.3458   -3.2995 H   0  0  0  0  0  0  0  0  0  0  0  0
   -0.4629    1.1878    0.1543 H   0  0  0  0  0  0  0  0  0  0  0  0
    0.5895    2.4864   -0.3741 H   0  0  0  0  0  0  0  0  0  0  0  0
    2.4394    1.0458    0.0280 H   0  0  0  0  0  0  0  0  0  0  0  0
    1.3385   -0.2657    0.4030 H   0  0  0  0  0  0  0  0  0  0  0  0
   -1.2089    1.2562   -2.1166 H   0  0  0  0  0  0  0  0  0  0  0  0
    0.2933    1.9927   -2.6634 H   0  0  0  0  0  0  0  0  0  0  0  0
    2.5266    0.4982   -2.2922 H   0  0  0  0  0  0  0  0  0  0  0  0
    2.3071   -1.1177   -1.6387 H   0  0  0  0  0  0  0  0  0  0  0  0
   -1.4376   -1.1923   -2.2974 H   0  0  0  0  0  0  0  0  0  0  0  0
   -0.5288   -1.1739   -0.7839 H   0  0  0  0  0  0  0  0  0  0  0  0
    0.8955   -2.9457   -1.7795 H   0  0  0  0  0  0  0  0  0  0  0  0
  1  5  1  0  0  0  0
  1  9  2  0  0  0  0
  1 23  1  0  0  0  0
  2  6  2  0  0  0  0
  2  9  1  0  0  0  0
  2 24  1  0  0  0  0
  3  7  2  0  0  0  0
  3 10  1  0  0  0  0
  3 25  1  0  0  0  0
  4  8  1  0  0  0  0
  4 10  2  0  0  0  0
  4 26  1  0  0  0  0
  5 11  2  0  0  0  0
  5 27  1  0  0  0  0
  6 11  1  0  0  0  0
  6 28  1  0  0  0  0
  7 12  1  0  0  0  0
  7 29  1  0  0  0  0
  8 12  2  0  0  0  0
  8 30  1  0  0  0  0
  9 10  1  0  0  0  0
 11 18  1  0  0  0  0
 12 22  1  0  0  0  0
 13 20  1  0  0  0  0
 13 21  2  0  0  0  0
 13 31  1  0  0  0  0
 14 15  1  0  0  0  0
 14 16  1  0  0  0  0
 14 32  1  0  0  0  0
 14 33  1  0  0  0  0
 15 17  1  0  0  0  0
 15 34  1  0  0  0  0
 15 35  1  0  0  0  0
 16 18  1  0  0  0  0
 16 36  1  0  0  0  0
 16 37  1  0  0  0  0
 17 18  1  0  0  0  0
 17 38  1  0  0  0  0
 17 39  1  0  0  0  0
 18 19  1  0  0  0  0
 19 20  1  0  0  0  0
 19 40  1  0  0  0  0
 19 41  1  0  0  0  0
 20 42  1  0  0  0  0
M  END
$$$$
