33
0 1 C14H16O3
C                    -1.094146644927    -3.828372991482     1.723089185324
C                    -0.831736445205    -2.499494617960     1.376813838233
C                     0.879753609586    -3.278460426904    -0.151755546022
C                    -0.387560435416    -4.894844133966     1.152287752529
C                     0.618455459897    -4.596595635198     0.197144890459
C                     0.161348290576    -2.220246602657     0.431037254037
C                     0.325865696465    -7.234676943828     1.252547566609
C                    -0.620112917006    -6.308522102435     1.525710626084
C                    -1.991700320642    -6.171402354494     3.668403974846
C                     1.360353199000    -5.741169936660    -0.456422932604
C                     1.606749056964    -6.880032669734     0.539078153324
C                    -3.179458096630    -6.434046715131     1.433525146055
C                    -0.186502903914     0.141212139900     0.580981278297
C                    -1.902046053964    -6.720430129484     2.234046390705
O                    -3.016860704415    -5.809870854879     4.201236905732
O                    -0.818669255380    -6.166944666215     4.356199292109
O                     0.507901937254    -0.966304611764     0.012379746295
H                    -1.861675886577    -4.009779680727     2.467837940733
H                    -1.399789209857    -1.707890739574     1.851486780473
H                     1.647052706776    -3.038793967358    -0.883394999683
H                     0.167953327058    -8.270549652381     1.548755235254
H                     0.749537428159    -6.125978169030    -1.285587597733
H                     2.302297180204    -5.390748221535    -0.888721141850
H                     2.368321266086    -6.576892208118     1.273774362101
H                     2.007774644636    -7.757081342382     0.021035042837
H                    -3.312980429100    -5.366891738105     1.248352847653
H                    -4.054133912206    -6.792173160484     1.980567146519
H                    -3.127820090103    -6.944496704156     0.467523504119
H                     0.240779578517     1.030927928526     0.116836718838
H                    -0.038273175687     0.189915715915     1.666538599204
H                    -1.259727649383     0.095057875096     0.359735244617
H                    -1.839105573649    -7.807417842850     2.378488882304
H                    -0.098725120792    -6.417740135260     3.745168363106
