
  -OEChem-05262117483D

 40 41  0     1  0  0  0  0  0999 V2000
    3.7421   -0.3936    1.1503 C   0  0  0  0  0  0  0  0  0  0  0  0
    3.1291    0.8510    1.3305 C   0  0  0  0  0  0  0  0  0  0  0  0
    3.1940   -1.3037    0.2416 C   0  0  0  0  0  0  0  0  0  0  0  0
    1.9835    1.1824    0.6049 C   0  0  0  0  0  0  0  0  0  0  0  0
    2.0454   -0.9679   -0.4813 C   0  0  0  0  0  0  0  0  0  0  0  0
   -5.5399    0.9380    0.8584 C   0  0  0  0  0  0  0  0  0  0  0  0
   -4.8938   -1.0339    2.1671 C   0  0  0  0  0  0  0  0  0  0  0  0
   -4.2165    1.3183    0.7840 C   0  0  0  0  0  0  0  0  0  0  0  0
   -3.5714   -0.6492    2.0882 C   0  0  0  0  0  0  0  0  0  0  0  0
    1.4284    0.2791   -0.3112 C   0  0  0  0  0  0  0  0  0  0  0  0
   -5.9720   -0.2714    1.5497 C   0  0  0  0  0  0  0  0  0  0  0  0
   -3.2108    0.5354    1.4014 C   0  0  0  0  0  0  0  0  0  0  0  0
    1.4808    0.6383   -3.2756 C   0  0  0  0  0  0  0  0  0  0  0  0
    3.0083    2.4034   -3.6334 C   0  0  0  0  0  0  0  0  0  0  0  0
    0.2153    0.2258   -2.5569 C   0  0  0  0  0  0  0  0  0  0  0  0
   -1.1105    0.1038   -0.4376 C   0  0  0  0  0  0  0  0  0  0  0  0
    0.1713    0.6621   -1.0747 C   0  0  1  0  0  0  0  0  0  0  0  0
   -7.1824   -0.6274    1.6082 O   0  5  0  0  0  0  0  0  0  0  0  0
    2.1621   -0.0877   -3.9773 O   0  0  0  0  0  0  0  0  0  0  0  0
   -1.3660    2.3736    0.8809 O   0  0  0  0  0  0  0  0  0  0  0  0
   -0.6953    0.2851    2.1968 O   0  0  0  0  0  0  0  0  0  0  0  0
    1.7734    1.9434   -3.0582 O   0  0  0  0  0  0  0  0  0  0  0  0
   -1.5355    0.9224    1.1577 S   0  0  0  0  0  0  0  0  0  0  0  0
    4.6332   -0.6543    1.7171 H   0  0  0  0  0  0  0  0  0  0  0  0
    3.5354    1.5603    2.0478 H   0  0  0  0  0  0  0  0  0  0  0  0
    3.6594   -2.2757    0.0939 H   0  0  0  0  0  0  0  0  0  0  0  0
    1.4897    2.1360    0.7695 H   0  0  0  0  0  0  0  0  0  0  0  0
    1.6370   -1.6883   -1.1855 H   0  0  0  0  0  0  0  0  0  0  0  0
   -6.3160    1.5479    0.4000 H   0  0  0  0  0  0  0  0  0  0  0  0
   -5.1744   -1.9351    2.7088 H   0  0  0  0  0  0  0  0  0  0  0  0
   -3.9291    2.2334    0.2699 H   0  0  0  0  0  0  0  0  0  0  0  0
   -2.7906   -1.2371    2.5661 H   0  0  0  0  0  0  0  0  0  0  0  0
    3.0916    3.4515   -3.3445 H   0  0  0  0  0  0  0  0  0  0  0  0
    2.9881    2.3031   -4.7219 H   0  0  0  0  0  0  0  0  0  0  0  0
    3.8473    1.8280   -3.2344 H   0  0  0  0  0  0  0  0  0  0  0  0
    0.1228   -0.8560   -2.6707 H   0  0  0  0  0  0  0  0  0  0  0  0
   -0.6335    0.6817   -3.0805 H   0  0  0  0  0  0  0  0  0  0  0  0
   -1.9730    0.2858   -1.0854 H   0  0  0  0  0  0  0  0  0  0  0  0
   -1.0439   -0.9669   -0.2272 H   0  0  0  0  0  0  0  0  0  0  0  0
    0.0867    1.7508   -1.0553 H   0  0  0  0  0  0  0  0  0  0  0  0
  1  2  1  0  0  0  0
  1  3  2  0  0  0  0
  1 24  1  0  0  0  0
  2  4  2  0  0  0  0
  2 25  1  0  0  0  0
  3  5  1  0  0  0  0
  3 26  1  0  0  0  0
  4 10  1  0  0  0  0
  4 27  1  0  0  0  0
  5 10  2  0  0  0  0
  5 28  1  0  0  0  0
  6  8  2  0  0  0  0
  6 11  1  0  0  0  0
  6 29  1  0  0  0  0
  7  9  1  0  0  0  0
  7 11  2  0  0  0  0
  7 30  1  0  0  0  0
  8 12  1  0  0  0  0
  8 31  1  0  0  0  0
  9 12  2  0  0  0  0
  9 32  1  0  0  0  0
 10 17  1  0  0  0  0
 11 18  1  0  0  0  0
 12 23  1  0  0  0  0
 13 15  1  0  0  0  0
 13 19  2  0  0  0  0
 13 22  1  0  0  0  0
 14 22  1  0  0  0  0
 14 33  1  0  0  0  0
 14 34  1  0  0  0  0
 14 35  1  0  0  0  0
 15 17  1  0  0  0  0
 15 36  1  0  0  0  0
 15 37  1  0  0  0  0
 16 17  1  0  0  0  0
 16 23  1  0  0  0  0
 16 38  1  0  0  0  0
 16 39  1  0  0  0  0
 17 40  1  0  0  0  0
 20 23  2  0  0  0  0
 21 23  2  0  0  0  0
M  CHG  1  18  -1
M  END
$$$$
