55
-1 1 C26H26NO2
C                     5.182071226129    -2.903714869619     4.562538022758
C                     6.316276723490    -5.967754394710     1.341679683550
C                     3.988640093640    -2.321386332603     4.120059729879
C                     5.218673180809    -4.270587436603     4.864254087493
C                     5.779901628525    -7.239537034334     1.562479430338
C                     5.458727320871    -4.864153665533     1.272894229272
C                    -0.569576006544    -2.350545483899     2.001929813551
C                     0.579837361213    -2.923771178039    -0.012733210213
C                     2.839488229386    -3.103759063806     3.978598109384
C                     4.069478146277    -5.050066753820     4.706762059420
C                     4.397953321403    -7.395918134229     1.718198116784
C                     4.080208579501    -5.026510186866     1.416465017835
C                    -0.156607661826    -3.545871917486     2.578996074799
C                     1.019549173843    -4.120045341551     0.564989415988
C                    -0.169081178323    -1.989898419322     0.706490767109
C                     2.871174635788    -4.481783400199     4.250814264450
C                     3.530770279415    -6.297308974927     1.646858683951
C                     0.716317370948    -4.423608150083     1.904183702349
C                     1.021575811433     0.252451121659     2.227687077661
C                    -1.773883937382     0.628218514846    -0.963939454220
C                    -1.766013685815     0.084020635510     0.491025391193
C                    -0.659773944596    -0.393953001957    -1.321515338311
C                    -0.383861719552    -0.585277017183     0.205277142954
C                     1.658682974095    -5.368933997005     3.996134079043
C                     2.032380321286    -6.527503416407     1.845470824062
C                     0.805105554452     0.289425648845     0.681292681863
N                     1.270523705872    -5.534499263731     2.584282973183
O                     0.061719250440     0.694496288282     2.923005130525
O                     2.121239922546    -0.231341115578     2.622889504054
H                     6.080923666765    -2.298896655698     4.667705431581
H                     7.391184210154    -5.835234233918     1.240559093944
H                     3.906826068889    -1.268919621577     3.860956988269
H                     6.145019954776    -4.735195502381     5.196276998933
H                     6.434891594174    -8.105872006341     1.630350328809
H                     5.861399528102    -3.864515593883     1.133241130104
H                    -1.135428436478    -1.639914492503     2.596589655981
H                     0.897433626573    -2.689760739149    -1.027081492843
H                     1.948151946679    -2.604265016873     3.616315416259
H                     4.115947319147    -6.120712808158     4.899761195690
H                     3.989839161573    -8.386289460945     1.917137521249
H                     3.442468351558    -4.151509064891     1.398372978179
H                    -0.453169916245    -3.753600172237     3.601651629995
H                     1.665068153322    -4.767676034440    -0.018685448396
H                    -1.419951851145     1.662327719176    -1.020875112013
H                    -2.712899605364     0.552356992867    -1.523882943250
H                    -1.767666311535     0.793916298128     1.319220238539
H                    -2.550409969504    -0.665605059408     0.645168172031
H                    -1.072261230187    -1.300084232790    -1.780393060494
H                     0.178119181116    -0.036791437163    -1.931740833141
H                     1.860540367535    -6.372545369283     4.386918304361
H                     0.797390039594    -4.993852676781     4.553098988307
H                     1.549205189345    -6.661842856700     0.871982864501
H                     1.916375786530    -7.486782290514     2.367711304682
H                     0.623459814694     1.328337009360     0.372071460794
H                     1.714013595073    -0.064303069298     0.181370064891
