
  -OEChem-05262117483D

 24 24  0     0  0  0  0  0  0999 V2000
    2.3542   -1.0549   -0.2055 C   0  0  0  0  0  0  0  0  0  0  0  0
    1.2764   -0.5988    0.5617 C   0  0  0  0  0  0  0  0  0  0  0  0
    2.1959   -1.7737    2.4631 C   0  0  0  0  0  0  0  0  0  0  0  0
    3.2570   -2.2617    1.6866 C   0  0  0  0  0  0  0  0  0  0  0  0
    3.3498   -1.8883    0.3230 C   0  0  0  0  0  0  0  0  0  0  0  0
    1.2042   -0.9678    1.9079 C   0  0  0  0  0  0  0  0  0  0  0  0
    4.2553   -3.2141    2.3964 C   0  0  0  0  0  0  0  0  0  0  0  0
    5.0342   -1.2811   -1.5042 C   0  0  0  0  0  0  0  0  0  0  0  0
    4.0381   -3.6125   -1.3764 C   0  0  0  0  0  0  0  0  0  0  0  0
    4.4817   -2.3759   -0.5748 C   0  0  0  0  0  0  0  0  0  0  0  0
    4.6697   -4.1863    1.7016 O   0  5  0  0  0  0  0  0  0  0  0  0
    4.5116   -2.9265    3.5947 O   0  0  0  0  0  0  0  0  0  0  0  0
    0.1621   -0.5402    2.7280 O   0  0  0  0  0  0  0  0  0  0  0  0
    2.4082   -0.7470   -1.2477 H   0  0  0  0  0  0  0  0  0  0  0  0
    0.5120    0.0408    0.1174 H   0  0  0  0  0  0  0  0  0  0  0  0
    2.1679   -2.0291    3.5179 H   0  0  0  0  0  0  0  0  0  0  0  0
    4.3113   -0.9768   -2.2717 H   0  0  0  0  0  0  0  0  0  0  0  0
    5.9243   -1.6492   -2.0301 H   0  0  0  0  0  0  0  0  0  0  0  0
    5.3184   -0.3862   -0.9388 H   0  0  0  0  0  0  0  0  0  0  0  0
    3.1910   -3.3738   -2.0342 H   0  0  0  0  0  0  0  0  0  0  0  0
    3.7456   -4.3994   -0.6776 H   0  0  0  0  0  0  0  0  0  0  0  0
    4.8595   -3.9893   -2.0013 H   0  0  0  0  0  0  0  0  0  0  0  0
    5.2874   -2.7091    0.0804 H   0  0  0  0  0  0  0  0  0  0  0  0
   -0.4245    0.0106    2.1873 H   0  0  0  0  0  0  0  0  0  0  0  0
  1  2  1  0  0  0  0
  1  5  2  0  0  0  0
  1 14  1  0  0  0  0
  2  6  2  0  0  0  0
  2 15  1  0  0  0  0
  3  4  2  0  0  0  0
  3  6  1  0  0  0  0
  3 16  1  0  0  0  0
  4  5  1  0  0  0  0
  4  7  1  0  0  0  0
  5 10  1  0  0  0  0
  6 13  1  0  0  0  0
  7 11  1  0  0  0  0
  7 12  2  0  0  0  0
  8 10  1  0  0  0  0
  8 17  1  0  0  0  0
  8 18  1  0  0  0  0
  8 19  1  0  0  0  0
  9 10  1  0  0  0  0
  9 20  1  0  0  0  0
  9 21  1  0  0  0  0
  9 22  1  0  0  0  0
 10 23  1  0  0  0  0
 13 24  1  0  0  0  0
M  CHG  1  11  -1
M  END
$$$$
