
  -OEChem-05262117483D

 42 44  0     0  0  0  0  0  0999 V2000
   -5.5253   -0.4812   -0.5086 C   0  0  0  0  0  0  0  0  0  0  0  0
   -5.5707   -0.4033   -2.9065 C   0  0  0  0  0  0  0  0  0  0  0  0
   -8.3484    0.7769   -2.5689 C   0  0  0  0  0  0  0  0  0  0  0  0
   -8.5445   -0.7539   -0.7136 C   0  0  0  0  0  0  0  0  0  0  0  0
   -4.1493   -0.6945   -0.5470 C   0  0  0  0  0  0  0  0  0  0  0  0
   -4.1905   -0.6199   -2.9388 C   0  0  0  0  0  0  0  0  0  0  0  0
   -9.7268    0.9969   -2.5471 C   0  0  0  0  0  0  0  0  0  0  0  0
   -9.9246   -0.5469   -0.6759 C   0  0  0  0  0  0  0  0  0  0  0  0
   -6.2690   -0.3290   -1.6923 C   0  0  0  0  0  0  0  0  0  0  0  0
   -7.7331   -0.0998   -1.6576 C   0  0  0  0  0  0  0  0  0  0  0  0
   -3.4440   -0.7679   -1.7621 C   0  0  0  0  0  0  0  0  0  0  0  0
  -10.4921    0.3274   -1.5975 C   0  0  0  0  0  0  0  0  0  0  0  0
   -1.6398   -4.3137   -2.7413 C   0  0  0  0  0  0  0  0  0  0  0  0
   -1.1584    1.2671   -1.9354 C   0  0  0  0  0  0  0  0  0  0  0  0
   -1.0943    0.6302   -3.3535 C   0  0  0  0  0  0  0  0  0  0  0  0
   -1.1983    0.0761   -0.9586 C   0  0  0  0  0  0  0  0  0  0  0  0
   -1.2609   -0.8917   -3.1301 C   0  0  0  0  0  0  0  0  0  0  0  0
   -1.9349   -1.0368   -1.7468 C   0  0  0  0  0  0  0  0  0  0  0  0
   -1.6734   -2.4265   -1.1294 C   0  0  0  0  0  0  0  0  0  0  0  0
   -2.3103   -3.5106   -1.8678 N   0  0  0  0  0  0  0  0  0  0  0  0
   -0.4321   -4.2878   -2.9501 O   0  0  0  0  0  0  0  0  0  0  0  0
  -11.8343    0.5338   -1.5692 F   0  0  0  0  0  0  0  0  0  0  0  0
   -6.0244   -0.4020    0.4536 H   0  0  0  0  0  0  0  0  0  0  0  0
   -6.1145   -0.3192   -3.8438 H   0  0  0  0  0  0  0  0  0  0  0  0
   -7.7397    1.3166   -3.2886 H   0  0  0  0  0  0  0  0  0  0  0  0
   -8.0975   -1.4558   -0.0153 H   0  0  0  0  0  0  0  0  0  0  0  0
   -3.6145   -0.7939    0.3942 H   0  0  0  0  0  0  0  0  0  0  0  0
   -3.7021   -0.6782   -3.9052 H   0  0  0  0  0  0  0  0  0  0  0  0
  -10.2053    1.6804   -3.2418 H   0  0  0  0  0  0  0  0  0  0  0  0
  -10.5573   -1.0575    0.0437 H   0  0  0  0  0  0  0  0  0  0  0  0
   -2.3157   -5.0270   -3.2511 H   0  0  0  0  0  0  0  0  0  0  0  0
   -0.3132    1.9314   -1.7336 H   0  0  0  0  0  0  0  0  0  0  0  0
   -2.0698    1.8632   -1.8281 H   0  0  0  0  0  0  0  0  0  0  0  0
   -1.8897    1.0306   -3.9889 H   0  0  0  0  0  0  0  0  0  0  0  0
   -0.1481    0.8473   -3.8575 H   0  0  0  0  0  0  0  0  0  0  0  0
   -0.1804   -0.2688   -0.7376 H   0  0  0  0  0  0  0  0  0  0  0  0
   -1.6733    0.3244   -0.0057 H   0  0  0  0  0  0  0  0  0  0  0  0
   -1.7933   -1.3972   -3.9385 H   0  0  0  0  0  0  0  0  0  0  0  0
   -0.2802   -1.3730   -3.0734 H   0  0  0  0  0  0  0  0  0  0  0  0
   -2.0256   -2.4570   -0.0931 H   0  0  0  0  0  0  0  0  0  0  0  0
   -0.6017   -2.6334   -1.1260 H   0  0  0  0  0  0  0  0  0  0  0  0
   -3.3219   -3.5605   -1.8621 H   0  0  0  0  0  0  0  0  0  0  0  0
  1  5  1  0  0  0  0
  1  9  2  0  0  0  0
  1 23  1  0  0  0  0
  2  6  2  0  0  0  0
  2  9  1  0  0  0  0
  2 24  1  0  0  0  0
  3  7  2  0  0  0  0
  3 10  1  0  0  0  0
  3 25  1  0  0  0  0
  4  8  1  0  0  0  0
  4 10  2  0  0  0  0
  4 26  1  0  0  0  0
  5 11  2  0  0  0  0
  5 27  1  0  0  0  0
  6 11  1  0  0  0  0
  6 28  1  0  0  0  0
  7 12  1  0  0  0  0
  7 29  1  0  0  0  0
  8 12  2  0  0  0  0
  8 30  1  0  0  0  0
  9 10  1  0  0  0  0
 11 18  1  0  0  0  0
 12 22  1  0  0  0  0
 13 20  1  0  0  0  0
 13 21  2  0  0  0  0
 13 31  1  0  0  0  0
 14 15  1  0  0  0  0
 14 16  1  0  0  0  0
 14 32  1  0  0  0  0
 14 33  1  0  0  0  0
 15 17  1  0  0  0  0
 15 34  1  0  0  0  0
 15 35  1  0  0  0  0
 16 18  1  0  0  0  0
 16 36  1  0  0  0  0
 16 37  1  0  0  0  0
 17 18  1  0  0  0  0
 17 38  1  0  0  0  0
 17 39  1  0  0  0  0
 18 19  1  0  0  0  0
 19 20  1  0  0  0  0
 19 40  1  0  0  0  0
 19 41  1  0  0  0  0
 20 42  1  0  0  0  0
M  END
$$$$
