33
0 1 C14H16O3
C                    -1.043583132726    -2.786339347838     1.277852524484
C                    -1.099072490992    -1.426411734318     0.951013898675
C                     0.688856841456    -1.783867045381    -0.642037781907
C                    -0.135285117010    -3.661884220563     0.669925177487
C                     0.741452780445    -3.131723565798    -0.312773074382
C                    -0.224945707356    -0.919475323219    -0.015909141327
C                     1.070010623635    -5.791864287926     0.682035884797
C                    -0.033497827620    -5.096071891194     1.023156881811
C                    -1.460467214174    -7.134173771733     1.378010276155
C                     1.682345799834    -4.075235208030    -1.026820476184
C                     2.206991327375    -5.156314726632    -0.077934425532
C                    -0.866622442235    -5.648906794583     3.360645399587
C                    -1.092034741013     1.299822242445     0.183650638748
C                    -1.158360320319    -5.721805426900     1.849072848667
O                    -2.324096561313    -7.430150274606     0.576209555094
O                    -0.662243768100    -8.080966460841     1.951177908972
O                    -0.180656453547     0.387749510434    -0.420430717074
H                    -1.728224797236    -3.148023980755     2.038366358018
H                    -1.816576959885    -0.788616778867     1.454520341848
H                     1.353376976455    -1.371329085781    -1.397014024644
H                     1.174655094247    -6.828936133205     0.987747480894
H                     1.129114881387    -4.563543771673    -1.841901322689
H                     2.507274173845    -3.521409923032    -1.485428058693
H                     2.920804906935    -4.715949163184     0.635561981083
H                     2.759843492525    -5.916060401235    -0.640306975545
H                     0.027805034440    -6.224573816034     3.607124687631
H                    -1.705139753635    -6.042081927207     3.945310328074
H                    -0.695398519551    -4.610653883980     3.658053993578
H                    -0.893166214544     2.269414790972    -0.274991700120
H                    -0.928988495396     1.369888490785     1.266362817215
H                    -2.132858791389     1.012610665758    -0.010736719849
H                    -2.081894898419    -5.182653818488     1.629891643295
H                    -0.941331612045    -8.932978087452     1.563309630005
