40
-1 1 C17H17O5S
C                     3.742117481858    -0.393591356959     1.150337004244
C                     3.129105641468     0.851019668054     1.330464111243
C                     3.194011406567    -1.303731623757     0.241551669234
C                     1.983489665251     1.182360724075     0.604876762088
C                     2.045448336628    -0.967874193705    -0.481317227797
C                    -5.539876926591     0.937983470790     0.858357017003
C                    -4.893840030793    -1.033866634789     2.167129836874
C                    -4.216455380840     1.318268449824     0.784026092480
C                    -3.571427043887    -0.649189056273     2.088174649670
C                     1.428355767345     0.279107227706    -0.311246752678
C                    -5.971953114246    -0.271400470730     1.549748617298
C                    -3.210769194679     0.535361847609     1.401437755621
C                     1.480756159479     0.638252593194    -3.275638689972
C                     3.008344078760     2.403417859770    -3.633423784273
C                     0.215314967877     0.225816463164    -2.556878488849
C                    -1.110488600295     0.103763401140    -0.437632638327
C                     0.171308030110     0.662096058865    -1.074740303708
O                    -7.182350684130    -0.627362274368     1.608247009478
O                     2.162100600165    -0.087730109547    -3.977255047040
O                    -1.365960985153     2.373588786001     0.880899198870
O                    -0.695276591830     0.285092285460     2.196816821270
O                     1.773435512613     1.943411217385    -3.058199731773
S                    -1.535471289151     0.922389666163     1.157719253879
H                     4.633173417063    -0.654306300444     1.717148514954
H                     3.535393515492     1.560311777605     2.047762502655
H                     3.659413714421    -2.275696378468     0.093930923433
H                     1.489682183082     2.135957213917     0.769542157675
H                     1.636999604506    -1.688275817866    -1.185482001767
H                    -6.315988713501     1.547897386078     0.400016579025
H                    -5.174400183323    -1.935083455077     2.708789528303
H                    -3.929105731235     2.233370065187     0.269890680522
H                    -2.790637743193    -1.237051675641     2.566053305119
H                     3.091571964474     3.451485949277    -3.344515490819
H                     2.988075157522     2.303100809884    -4.721909307275
H                     3.847256537367     1.827994556176    -3.234357596934
H                     0.122791883371    -0.856046041914    -2.670708666197
H                    -0.633463735233     0.681657152667    -3.080476250806
H                    -1.973041040059     0.285765520583    -1.085406769991
H                    -1.043865454060    -0.966933210789    -0.227230244751
H                     0.086727429860     1.750786563952    -1.055273498702
