51
0 1 C17H26N4O3S
C                     1.196340607003    -5.243237756265    11.887388514861
C                     1.985192054796    -7.284926288811    10.135023219494
C                     4.637542923251    -7.393456131965    12.526438652196
C                     2.389528106305    -5.958972048011    12.156285950926
C                     2.787175855297    -6.993039902435    11.267544324626
C                     0.422556824104    -5.533296322221    10.785350948705
C                     0.827145637107    -6.571115460973     9.884983029207
C                     3.257814133521    -5.727399226900    13.284096997875
C                     3.347928101733    -5.632601378902    16.484794129865
C                     3.506055486424    -3.149228784969    15.951277295644
C                    -1.946670356324    -5.458170737572    10.689415401455
C                    -2.295184419356    -9.727435717991     2.053233004365
C                    -0.667008119864    -7.740197065041     6.749264487683
C                    -0.360699680667    -8.777048555637     5.660936543071
C                     0.383705829237    -7.755345101370     7.849818791284
C                    -1.407430671657    -8.745712776763     4.550424923568
C                     3.731240482423    -4.574093697258    15.442248401434
N                     3.934455384745    -7.720437117027    11.461082697765
N                     4.367976167975    -6.447157773748    13.456205699564
N                     0.280435256126    -9.747406574875     2.514661164908
N                     2.979776923302    -4.750026429266    14.193403090885
O                    -1.294204237880   -11.330565737304     3.982656755712
O                    -0.694980919355    -4.773627235436    10.526577704576
O                     0.009981261171    -6.762492060538     8.811336174953
S                    -1.029300020673   -10.038488130339     3.294983233875
H                     0.852813388294    -4.429655195655    12.520138765753
H                     2.331575158243    -8.074979799680     9.479911193830
H                     5.555321931879    -7.955982053409    12.696030438902
H                     2.291781360090    -5.539061289881    16.764908731060
H                     3.518302541533    -6.635592142730    16.086204302560
H                     3.951759627703    -5.515248865745    17.391347368941
H                     2.448232369587    -2.976336662879    16.188674532183
H                     3.816967640352    -2.411297308437    15.205479086573
H                     4.078953566953    -2.978148226975    16.867364085511
H                    -2.723872893885    -4.719342242167    10.484539835210
H                    -2.051080851232    -5.824528380976    11.718576587195
H                    -2.036951602745    -6.292559223162     9.988149005151
H                    -2.166399318318   -10.499499182821     1.293635070747
H                    -3.271856644572    -9.816778849637     2.530982291861
H                    -2.142772000371    -8.738587241577     1.620726468635
H                    -0.709362595956    -6.734222546093     6.316959907144
H                    -1.648341073363    -7.940486686326     7.194358567015
H                    -0.330936457709    -9.781351546654     6.096975363141
H                     0.627370492490    -8.576800077881     5.229189080299
H                     0.432271956764    -8.740317730432     8.332246317537
H                     1.377169217772    -7.521226345197     7.445949045442
H                    -2.408139872066    -8.963057091618     4.935546973898
H                    -1.411006533740    -7.785607804113     4.025771722956
H                     4.784336432778    -4.706550547289    15.184885816747
H                     1.094552074047   -10.039377957694     3.059126855538
H                     2.056217833713    -4.341038566111    14.165744188732
