37
0 1 C12Cl2H19N3O
C                    -0.572379539780     0.888372128312    -2.487901477713
C                    -1.104996100688    -0.088741435989    -0.702705043927
C                     1.136559145299     2.352357058578     2.688111246157
C                     0.901687264120     1.579758669673     1.392259219236
C                     0.076888252770     1.294485871283     2.618368002295
C                     3.716812777988    -3.484320162217    -0.847654005742
C                     2.188436823880    -3.310416962397     1.131947307699
C                     4.218131068103    -1.825409911801     0.955182952536
C                     1.916981578017     0.590253050415     0.861591850833
C                     1.255603877215    -0.590162793950     0.129758723604
C                     2.226286710716    -1.511979604615    -0.656048452365
C                     3.083412501686    -2.509946873307     0.169078664731
N                    -1.655164014437     0.518253130338    -1.750073386533
N                     0.602242872482     0.551738374124    -1.959429353342
N                     0.241590113959    -0.087348001267    -0.808458394800
O                     3.096529555881    -0.745846115483    -1.482634013604
Cl                    0.337543833155    -0.224741138030     3.521641189348
Cl                   -1.632110430422     1.789526579774     2.614117941987
H                    -0.641615826582     1.412933643680    -3.432149512368
H                    -1.629001487850    -0.521548041657     0.139554344118
H                     2.024106625013     2.114607183637     3.266842796336
H                     0.807624676105     3.384966770489     2.744103026434
H                     0.356073211316     2.127018103762     0.628774537216
H                     4.350268496187    -2.948498586614    -1.558499689624
H                     2.946349772590    -4.019748940159    -1.414614411045
H                     4.329251895175    -4.229309873177    -0.328559293135
H                     1.799508751130    -2.693864704213     1.948955274727
H                     1.337062268421    -3.763593498649     0.609480370983
H                     2.763580838326    -4.123342528332     1.587430606789
H                     3.850923227426    -1.290016350602     1.834928227581
H                     4.763987547571    -1.122153661016     0.321671157429
H                     4.924514925540    -2.581012700355     1.315520358485
H                     2.517036588489     0.196750944484     1.681108631141
H                     2.600744728980     1.103461333316     0.180740306968
H                     0.694188682861    -1.190242453496     0.846987528212
H                     1.570742797071    -2.132207617664    -1.288051822541
H                     2.526435786478    -0.183530414978    -2.043692219720
