
  -OEChem-05262117493D

 66 69  0     1  0  0  0  0  0999 V2000
    0.5819    1.8660    0.5511 C   0  0  0  0  0  0  0  0  0  0  0  0
    0.6004    1.0982    2.8858 C   0  0  0  0  0  0  0  0  0  0  0  0
    0.1961   -0.4253    1.0244 C   0  0  0  0  0  0  0  0  0  0  0  0
    0.3077    0.5901    0.0690 C   0  0  0  0  0  0  0  0  0  0  0  0
   -0.0846   -1.8025    0.8027 C   0  0  0  0  0  0  0  0  0  0  0  0
    0.7319    2.1234    1.9431 C   0  0  0  0  0  0  0  0  0  0  0  0
    0.3278   -0.1941    2.4098 C   0  0  0  0  0  0  0  0  0  0  0  0
   -0.1254   -2.4013    2.0441 C   0  0  0  0  0  0  0  0  0  0  0  0
   -3.0616    2.6932   -3.7760 C   0  0  0  0  0  0  0  0  0  0  0  0
   -0.1739   -2.2907   -0.6088 C   0  0  0  0  0  0  0  0  0  0  0  0
   -0.6549    1.3024   -2.1808 C   0  0  0  0  0  0  0  0  0  0  0  0
   -1.1799   -0.4996   -3.8480 C   0  0  0  0  0  0  0  0  0  0  0  0
    0.0816    0.1916   -1.3823 C   0  0  2  0  0  0  0  0  0  0  0  0
   -0.7131   -1.1524   -1.5065 C   0  0  1  0  0  0  0  0  0  0  0  0
   -1.7176    0.7367   -3.1372 C   0  0  2  0  0  0  0  0  0  0  0  0
    1.0308    3.5366    2.3940 C   0  0  0  0  0  0  0  0  0  0  0  0
    0.8105   -4.1238   -5.2668 C   0  0  0  0  0  0  0  0  0  0  0  0
   -3.6759    5.9536   -3.6033 C   0  0  0  0  0  0  0  0  0  0  0  0
   -3.1031    2.9949   -7.0518 C   0  0  0  0  0  0  0  0  0  0  0  0
    1.2782   -4.7487    2.4794 C   0  0  0  0  0  0  0  0  0  0  0  0
   -0.2258   -3.0963   -4.7982 C   0  0  0  0  0  0  0  0  0  0  0  0
    0.1770   -2.4551   -3.4640 C   0  0  0  0  0  0  0  0  0  0  0  0
   -4.2411    4.7452   -4.3552 C   0  0  0  0  0  0  0  0  0  0  0  0
   -2.5091    3.8594   -5.9320 C   0  0  0  0  0  0  0  0  0  0  0  0
    0.1449   -1.4203    3.0233 N   0  0  0  0  0  0  0  0  0  0  0  0
   -0.8674   -1.5911   -2.9134 N   0  0  2  0  0  0  0  0  0  0  0  0
   -2.1419    1.7147   -4.1366 N   0  0  0  0  0  0  0  0  0  0  0  0
   -3.2178    3.7419   -4.6614 N   0  0  0  0  0  0  0  0  0  0  0  0
   -3.7236    2.6077   -2.7360 O   0  0  0  0  0  0  0  0  0  0  0  0
   -0.4333   -4.0722    2.4921 S   0  0  0  0  0  0  0  0  0  0  0  0
    0.6732    2.7044   -0.1363 H   0  0  0  0  0  0  0  0  0  0  0  0
    0.7044    1.3100    3.9474 H   0  0  0  0  0  0  0  0  0  0  0  0
    0.8322   -2.5828   -0.9315 H   0  0  0  0  0  0  0  0  0  0  0  0
   -0.8163   -3.1716   -0.7044 H   0  0  0  0  0  0  0  0  0  0  0  0
   -1.1472    2.0027   -1.5023 H   0  0  0  0  0  0  0  0  0  0  0  0
    0.0693    1.8798   -2.7693 H   0  0  0  0  0  0  0  0  0  0  0  0
   -1.9093   -0.8377   -4.5919 H   0  0  0  0  0  0  0  0  0  0  0  0
   -0.2708   -0.1949   -4.4072 H   0  0  0  0  0  0  0  0  0  0  0  0
    1.0641    0.0185   -1.8437 H   0  0  0  0  0  0  0  0  0  0  0  0
   -1.7227   -0.9482   -1.1303 H   0  0  0  0  0  0  0  0  0  0  0  0
   -2.6166    0.4785   -2.5773 H   0  0  0  0  0  0  0  0  0  0  0  0
    0.2649    4.2359    2.0397 H   0  0  0  0  0  0  0  0  0  0  0  0
    1.0721    3.6103    3.4844 H   0  0  0  0  0  0  0  0  0  0  0  0
    1.9931    3.8835    1.9991 H   0  0  0  0  0  0  0  0  0  0  0  0
    1.7969   -3.6631   -5.3970 H   0  0  0  0  0  0  0  0  0  0  0  0
    0.9186   -4.9387   -4.5416 H   0  0  0  0  0  0  0  0  0  0  0  0
    0.5229   -4.5681   -6.2254 H   0  0  0  0  0  0  0  0  0  0  0  0
   -3.2611    5.6347   -2.6431 H   0  0  0  0  0  0  0  0  0  0  0  0
   -2.8828    6.4465   -4.1772 H   0  0  0  0  0  0  0  0  0  0  0  0
   -4.4638    6.6910   -3.4120 H   0  0  0  0  0  0  0  0  0  0  0  0
   -3.0746    1.9351   -6.7840 H   0  0  0  0  0  0  0  0  0  0  0  0
   -4.1476    3.2688   -7.2318 H   0  0  0  0  0  0  0  0  0  0  0  0
   -2.5464    3.1347   -7.9853 H   0  0  0  0  0  0  0  0  0  0  0  0
    1.2038   -5.8018    2.7640 H   0  0  0  0  0  0  0  0  0  0  0  0
    1.9096   -4.2233    3.1989 H   0  0  0  0  0  0  0  0  0  0  0  0
    1.7096   -4.6726    1.4792 H   0  0  0  0  0  0  0  0  0  0  0  0
   -1.2039   -3.5748   -4.6687 H   0  0  0  0  0  0  0  0  0  0  0  0
   -0.3487   -2.3316   -5.5726 H   0  0  0  0  0  0  0  0  0  0  0  0
    0.3713   -3.2700   -2.7657 H   0  0  0  0  0  0  0  0  0  0  0  0
    1.1357   -1.9134   -3.6035 H   0  0  0  0  0  0  0  0  0  0  0  0
   -4.6986    5.0599   -5.3003 H   0  0  0  0  0  0  0  0  0  0  0  0
   -5.0147    4.2633   -3.7567 H   0  0  0  0  0  0  0  0  0  0  0  0
   -2.5398    4.9137   -6.2230 H   0  0  0  0  0  0  0  0  0  0  0  0
   -1.4431    3.6358   -5.7986 H   0  0  0  0  0  0  0  0  0  0  0  0
    0.0363   -1.5849    4.0144 H   0  0  0  0  0  0  0  0  0  0  0  0
   -1.4283    1.9694   -4.8072 H   0  0  0  0  0  0  0  0  0  0  0  0
  1  4  1  0  0  0  0
  1  6  2  0  0  0  0
  1 31  1  0  0  0  0
  2  6  1  0  0  0  0
  2  7  2  0  0  0  0
  2 32  1  0  0  0  0
  3  4  2  0  0  0  0
  3  5  1  0  0  0  0
  3  7  1  0  0  0  0
  4 13  1  0  0  0  0
  5  8  2  0  0  0  0
  5 10  1  0  0  0  0
  6 16  1  0  0  0  0
  7 25  1  0  0  0  0
  8 25  1  0  0  0  0
  8 30  1  0  0  0  0
  9 27  1  0  0  0  0
  9 28  1  0  0  0  0
  9 29  2  0  0  0  0
 10 14  1  0  0  0  0
 10 33  1  0  0  0  0
 10 34  1  0  0  0  0
 11 13  1  0  0  0  0
 11 15  1  0  0  0  0
 11 35  1  0  0  0  0
 11 36  1  0  0  0  0
 12 15  1  0  0  0  0
 12 26  1  0  0  0  0
 12 37  1  0  0  0  0
 12 38  1  0  0  0  0
 13 14  1  0  0  0  0
 13 39  1  0  0  0  0
 14 26  1  0  0  0  0
 14 40  1  0  0  0  0
 15 27  1  0  0  0  0
 15 41  1  0  0  0  0
 16 42  1  0  0  0  0
 16 43  1  0  0  0  0
 16 44  1  0  0  0  0
 17 21  1  0  0  0  0
 17 45  1  0  0  0  0
 17 46  1  0  0  0  0
 17 47  1  0  0  0  0
 18 23  1  0  0  0  0
 18 48  1  0  0  0  0
 18 49  1  0  0  0  0
 18 50  1  0  0  0  0
 19 24  1  0  0  0  0
 19 51  1  0  0  0  0
 19 52  1  0  0  0  0
 19 53  1  0  0  0  0
 20 30  1  0  0  0  0
 20 54  1  0  0  0  0
 20 55  1  0  0  0  0
 20 56  1  0  0  0  0
 21 22  1  0  0  0  0
 21 57  1  0  0  0  0
 21 58  1  0  0  0  0
 22 26  1  0  0  0  0
 22 59  1  0  0  0  0
 22 60  1  0  0  0  0
 23 28  1  0  0  0  0
 23 61  1  0  0  0  0
 23 62  1  0  0  0  0
 24 28  1  0  0  0  0
 24 63  1  0  0  0  0
 24 64  1  0  0  0  0
 25 65  1  0  0  0  0
 27 66  1  0  0  0  0
M  END
$$$$
