67
1 1 C24H37N4OS
C                     2.490796754403     1.911834488251     0.639380349207
C                     3.261926284957     2.575031881311    -1.598645951549
C                     1.087056665157     1.534087713000    -1.241877316710
C                     1.289686789619     1.426565857180     0.137997166090
C                    -0.035809120215     1.116759419034    -2.008344758995
C                     3.470384851885     2.490861478067    -0.218289234849
C                     2.051473511306     2.084549129597    -2.110697939911
C                     0.243526886674     1.406471336875    -3.328648122741
C                    -0.591433015051     0.675612393140     4.845924653649
C                    -1.219477441178     0.549967255042    -1.287343550596
C                     0.701333210218    -0.052395460202     2.111454165896
C                    -1.262803618922    -1.599899286606     1.938063955756
C                     0.163906915308     0.781898022203     0.941077765737
C                    -0.390108042678    -0.792684664629     2.895038173150
C                    -0.683823598876    -0.112386592501     0.000171157077
C                     4.750689943404     3.013872789963     0.392609960780
C                    -5.299177110955     0.464110475156     2.031912666218
C                    -0.227595107146     3.343995923467     6.675961913234
C                    -3.840095870105     0.748973166499     5.811066123320
C                     0.073745538109    -0.221114734231    -5.568880669124
C                    -4.152180299724    -0.532521827604     1.816530080076
C                    -0.840410220616     1.959285829899     6.893507696436
C                    -2.791500460799     1.753502100309     5.316891000576
C                    -2.956100196078     0.171578180368     1.179617278911
N                     1.518484780066     1.991598681575    -3.385180113573
N                    -1.220410179513     0.122203618233     3.694181371551
N                    -1.416465785142     1.391215824655     5.663677956194
N                    -1.827964144361    -0.772901072978     0.792553042382
O                     0.611728532736     0.514940443957     5.052320080343
S                    -0.764542888272     1.200201949608    -4.753396018073
H                     2.713052664580     1.860004644402     1.702157787135
H                     4.022344051659     3.008767240609    -2.242760473544
H                    -1.913882499309     1.361127252965    -1.044320546461
H                    -1.765089028016    -0.178245167626    -1.900910582548
H                     1.410997601229    -0.793308252346     1.724178523071
H                     1.252183201641     0.572646155134     2.811016426369
H                    -0.651005547009    -2.373548446822     1.468902447082
H                    -2.098984470059    -2.091631097624     2.436230006020
H                    -0.478715872005     1.578654895972     1.336778513018
H                     0.105600498036    -1.521345951284     3.549803614201
H                    -0.059419483325    -0.960199790623    -0.302367757053
H                     5.270932245585     2.229033584948     0.952295835760
H                     5.435478433422     3.391432977330    -0.370588145322
H                     4.546956378622     3.831082780975     1.093387571969
H                    -4.989399962767     1.286359349777     2.684724295046
H                    -5.640042843466     0.893373085791     1.084756898042
H                    -6.151428968144    -0.032760429761     2.501343642511
H                     0.598149766134     3.284451829493     5.962324369766
H                    -0.967818455469     4.057078428835     6.297110126007
H                     0.161998511782     3.735888833251     7.620810812737
H                    -3.701379208220    -0.244246117880     5.367057370572
H                    -3.782285609386     0.627861701236     6.896393601397
H                    -4.849064479002     1.091584887466     5.559471750148
H                    -0.502920966799    -0.440160263858    -6.470619723817
H                     0.074301676898    -1.095001255538    -4.914666022173
H                     1.095647349162     0.034750781669    -5.853743328716
H                    -4.492313365220    -1.353816765051     1.172241024854
H                    -3.886842506461    -0.977385794226     2.779999847188
H                    -1.640435176420     1.999540297981     7.639519386177
H                    -0.082702349242     1.264854286449     7.258301298384
H                    -2.993267020971     2.732956622880     5.759519563907
H                    -2.863624552309     1.890631786198     4.233672447145
H                    -3.274054317528     0.652598534458     0.255872834421
H                    -2.528591950774     0.920731600500     1.841653376707
H                     1.911084517141     2.390930325369    -4.227610854491
H                    -2.124291798648    -0.276190768053     3.926717665610
H                    -2.249900910361    -1.446948525061     0.145663896102
