
  -OEChem-05262117493D

 42 45  0     1  0  0  0  0  0999 V2000
    0.6354   -2.2362    2.8081 C   0  0  0  0  0  0  0  0  0  0  0  0
   -0.9429    1.7378   -1.9706 C   0  0  0  0  0  0  0  0  0  0  0  0
    0.0444    0.7294   -1.8595 C   0  0  0  0  0  0  0  0  0  0  0  0
   -1.3395    2.5283   -0.8865 C   0  0  0  0  0  0  0  0  0  0  0  0
    0.3079    1.3064    0.4334 C   0  0  0  0  0  0  0  0  0  0  0  0
    0.6791    0.4916   -0.6400 C   0  0  0  0  0  0  0  0  0  0  0  0
    0.7847    1.2639    1.7778 C   0  0  0  0  0  0  0  0  0  0  0  0
   -0.6939    2.2963    0.3348 C   0  0  0  0  0  0  0  0  0  0  0  0
    0.0752    2.2074    2.4864 C   0  0  0  0  0  0  0  0  0  0  0  0
   -0.9612   -2.3166   -1.8300 C   0  0  0  0  0  0  0  0  0  0  0  0
    1.8975    0.3146    2.1032 C   0  0  0  0  0  0  0  0  0  0  0  0
    1.4405   -1.9094   -1.0980 C   0  0  0  0  0  0  0  0  0  0  0  0
   -0.4270   -2.0230    0.6481 C   0  0  0  0  0  0  0  0  0  0  0  0
    1.7088   -0.5944   -0.3475 C   0  0  2  0  0  0  0  0  0  0  0  0
    0.0672   -2.5222   -0.7248 C   0  0  1  0  0  0  0  0  0  0  0  0
    1.8323   -0.9180    1.1705 C   0  0  2  0  0  0  0  0  0  0  0  0
    0.1408    2.6018    3.9260 C   0  0  0  0  0  0  0  0  0  0  0  0
   -3.2457   -1.9711   -2.3249 C   0  0  0  0  0  0  0  0  0  0  0  0
    0.5849   -2.5932    3.9240 N   0  0  0  0  0  0  0  0  0  0  0  0
   -0.8166    2.8395    1.6055 N   0  0  0  0  0  0  0  0  0  0  0  0
    0.7248   -1.8357    1.5449 N   0  0  0  0  0  0  0  0  0  0  0  0
   -0.7060   -2.3136   -3.0198 O   0  0  0  0  0  0  0  0  0  0  0  0
   -2.2134   -2.1884   -1.3400 O   0  0  0  0  0  0  0  0  0  0  0  0
   -1.4180    1.8953   -2.9354 H   0  0  0  0  0  0  0  0  0  0  0  0
    0.2802    0.1351   -2.7364 H   0  0  0  0  0  0  0  0  0  0  0  0
   -2.1156    3.2810   -1.0005 H   0  0  0  0  0  0  0  0  0  0  0  0
    2.8728    0.7953    1.9445 H   0  0  0  0  0  0  0  0  0  0  0  0
    1.8803   -0.0223    3.1445 H   0  0  0  0  0  0  0  0  0  0  0  0
    1.4901   -1.7659   -2.1787 H   0  0  0  0  0  0  0  0  0  0  0  0
    2.2337   -2.6174   -0.8383 H   0  0  0  0  0  0  0  0  0  0  0  0
   -0.9824   -1.0888    0.5471 H   0  0  0  0  0  0  0  0  0  0  0  0
   -1.0934   -2.7523    1.1081 H   0  0  0  0  0  0  0  0  0  0  0  0
    2.6957   -0.2265   -0.6555 H   0  0  0  0  0  0  0  0  0  0  0  0
    0.1919   -3.6104   -0.6667 H   0  0  0  0  0  0  0  0  0  0  0  0
    2.7636   -1.4828    1.2975 H   0  0  0  0  0  0  0  0  0  0  0  0
    0.5022    3.6300    4.0513 H   0  0  0  0  0  0  0  0  0  0  0  0
   -0.8415    2.5323    4.4087 H   0  0  0  0  0  0  0  0  0  0  0  0
    0.8215    1.9391    4.4646 H   0  0  0  0  0  0  0  0  0  0  0  0
   -4.1749   -1.8999   -1.7599 H   0  0  0  0  0  0  0  0  0  0  0  0
   -3.2824   -2.8043   -3.0300 H   0  0  0  0  0  0  0  0  0  0  0  0
   -3.0520   -1.0429   -2.8671 H   0  0  0  0  0  0  0  0  0  0  0  0
   -1.4756    3.5549    1.8782 H   0  0  0  0  0  0  0  0  0  0  0  0
  1 19  3  0  0  0  0
  1 21  1  0  0  0  0
  2  3  1  0  0  0  0
  2  4  2  0  0  0  0
  2 24  1  0  0  0  0
  3  6  2  0  0  0  0
  3 25  1  0  0  0  0
  4  8  1  0  0  0  0
  4 26  1  0  0  0  0
  5  6  1  0  0  0  0
  5  7  1  0  0  0  0
  5  8  2  0  0  0  0
  6 14  1  0  0  0  0
  7  9  2  0  0  0  0
  7 11  1  0  0  0  0
  8 20  1  0  0  0  0
  9 17  1  0  0  0  0
  9 20  1  0  0  0  0
 10 15  1  0  0  0  0
 10 22  2  0  0  0  0
 10 23  1  0  0  0  0
 11 16  1  0  0  0  0
 11 27  1  0  0  0  0
 11 28  1  0  0  0  0
 12 14  1  0  0  0  0
 12 15  1  0  0  0  0
 12 29  1  0  0  0  0
 12 30  1  0  0  0  0
 13 15  1  0  0  0  0
 13 21  1  0  0  0  0
 13 31  1  0  0  0  0
 13 32  1  0  0  0  0
 14 16  1  0  0  0  0
 14 33  1  0  0  0  0
 15 34  1  0  0  0  0
 16 21  1  0  0  0  0
 16 35  1  0  0  0  0
 17 36  1  0  0  0  0
 17 37  1  0  0  0  0
 17 38  1  0  0  0  0
 18 23  1  0  0  0  0
 18 39  1  0  0  0  0
 18 40  1  0  0  0  0
 18 41  1  0  0  0  0
 20 42  1  0  0  0  0
M  END
$$$$
