
  -OEChem-05262117493D

 67 70  0     1  0  0  0  0  0999 V2000
    1.9809    1.5723    1.1444 C   0  0  0  0  0  0  0  0  0  0  0  0
    3.1005    2.2884   -0.9219 C   0  0  0  0  0  0  0  0  0  0  0  0
    1.0387    0.9875   -0.9570 C   0  0  0  0  0  0  0  0  0  0  0  0
    0.9706    0.9300    0.4392 C   0  0  0  0  0  0  0  0  0  0  0  0
    0.1568    0.4094   -1.9103 C   0  0  0  0  0  0  0  0  0  0  0  0
    3.0382    2.2538    0.4742 C   0  0  0  0  0  0  0  0  0  0  0  0
    2.0849    1.6406   -1.6414 C   0  0  0  0  0  0  0  0  0  0  0  0
    0.6626    0.7030   -3.1605 C   0  0  0  0  0  0  0  0  0  0  0  0
   -2.9874   -1.2339    4.2233 C   0  0  0  0  0  0  0  0  0  0  0  0
   -1.0618   -0.3014   -1.4096 C   0  0  0  0  0  0  0  0  0  0  0  0
    0.1916   -0.5786    2.3271 C   0  0  0  0  0  0  0  0  0  0  0  0
   -1.4348   -2.4161    1.8170 C   0  0  0  0  0  0  0  0  0  0  0  0
   -0.2008    0.1470    1.0283 C   0  0  2  0  0  0  0  0  0  0  0  0
   -0.9239   -1.4595    2.8953 C   0  0  2  0  0  0  0  0  0  0  0  0
   -0.7051   -0.8787   -0.0227 C   0  0  1  0  0  0  0  0  0  0  0  0
    4.1011    2.9397    1.3026 C   0  0  0  0  0  0  0  0  0  0  0  0
   -5.6775   -1.1220    1.0011 C   0  0  0  0  0  0  0  0  0  0  0  0
   -6.1695   -1.2136    4.9577 C   0  0  0  0  0  0  0  0  0  0  0  0
   -2.7778    1.6360    5.9610 C   0  0  0  0  0  0  0  0  0  0  0  0
   -0.8407    1.7420   -5.2478 C   0  0  0  0  0  0  0  0  0  0  0  0
   -4.3606   -1.9096    1.0012 C   0  0  0  0  0  0  0  0  0  0  0  0
   -4.8701   -1.0243    5.7425 C   0  0  0  0  0  0  0  0  0  0  0  0
   -3.7242    1.0539    4.9042 C   0  0  0  0  0  0  0  0  0  0  0  0
   -3.2005   -0.9818    0.6462 C   0  0  0  0  0  0  0  0  0  0  0  0
    1.8323    1.4610   -2.9892 N   0  0  0  0  0  0  0  0  0  0  0  0
   -1.9824   -0.6096    3.4567 N   0  0  0  0  0  0  0  0  0  0  0  0
   -3.8060   -0.4087    4.9331 N   0  0  0  0  0  0  0  0  0  0  0  0
   -1.8649   -1.7082    0.5440 N   0  3  2  0  0  0  0  0  0  0  0  0
   -3.1281   -2.4639    4.1863 O   0  0  0  0  0  0  0  0  0  0  0  0
    0.0810    0.2282   -4.7502 S   0  0  0  0  0  0  0  0  0  0  0  0
    1.9960    1.5665    2.2316 H   0  0  0  0  0  0  0  0  0  0  0  0
    3.9187    2.8003   -1.4217 H   0  0  0  0  0  0  0  0  0  0  0  0
   -1.8908    0.4096   -1.3262 H   0  0  0  0  0  0  0  0  0  0  0  0
   -1.3786   -1.1007   -2.0904 H   0  0  0  0  0  0  0  0  0  0  0  0
    1.0690   -1.2041    2.1310 H   0  0  0  0  0  0  0  0  0  0  0  0
    0.5016    0.1493    3.0829 H   0  0  0  0  0  0  0  0  0  0  0  0
   -0.6189   -3.0831    1.5268 H   0  0  0  0  0  0  0  0  0  0  0  0
   -2.2644   -3.0110    2.1856 H   0  0  0  0  0  0  0  0  0  0  0  0
   -1.0194    0.8477    1.2386 H   0  0  0  0  0  0  0  0  0  0  0  0
   -0.5114   -2.1123    3.6754 H   0  0  0  0  0  0  0  0  0  0  0  0
    0.0910   -1.6164   -0.1713 H   0  0  0  0  0  0  0  0  0  0  0  0
    4.5766    2.2382    1.9967 H   0  0  0  0  0  0  0  0  0  0  0  0
    4.8844    3.3703    0.6742 H   0  0  0  0  0  0  0  0  0  0  0  0
    3.6714    3.7500    1.9022 H   0  0  0  0  0  0  0  0  0  0  0  0
   -5.6545   -0.3212    1.7472 H   0  0  0  0  0  0  0  0  0  0  0  0
   -5.8841   -0.6736    0.0236 H   0  0  0  0  0  0  0  0  0  0  0  0
   -6.5123   -1.7813    1.2505 H   0  0  0  0  0  0  0  0  0  0  0  0
   -6.5441   -0.2620    4.5650 H   0  0  0  0  0  0  0  0  0  0  0  0
   -6.0102   -1.8991    4.1211 H   0  0  0  0  0  0  0  0  0  0  0  0
   -6.9440   -1.6381    5.6043 H   0  0  0  0  0  0  0  0  0  0  0  0
   -3.0854    1.3327    6.9657 H   0  0  0  0  0  0  0  0  0  0  0  0
   -1.7462    1.2949    5.8182 H   0  0  0  0  0  0  0  0  0  0  0  0
   -2.7821    2.7297    5.9178 H   0  0  0  0  0  0  0  0  0  0  0  0
   -1.2500    1.5389   -6.2402 H   0  0  0  0  0  0  0  0  0  0  0  0
   -0.1739    2.6039   -5.3047 H   0  0  0  0  0  0  0  0  0  0  0  0
   -1.6570    1.9423   -4.5514 H   0  0  0  0  0  0  0  0  0  0  0  0
   -4.4197   -2.7256    0.2682 H   0  0  0  0  0  0  0  0  0  0  0  0
   -4.2153   -2.3598    1.9847 H   0  0  0  0  0  0  0  0  0  0  0  0
   -4.5048   -1.9854    6.1053 H   0  0  0  0  0  0  0  0  0  0  0  0
   -5.0323   -0.3806    6.6123 H   0  0  0  0  0  0  0  0  0  0  0  0
   -3.4407    1.3841    3.8996 H   0  0  0  0  0  0  0  0  0  0  0  0
   -4.7350    1.4376    5.0679 H   0  0  0  0  0  0  0  0  0  0  0  0
   -3.3753   -0.5339   -0.3313 H   0  0  0  0  0  0  0  0  0  0  0  0
   -3.0780   -0.1962    1.3869 H   0  0  0  0  0  0  0  0  0  0  0  0
    2.4404    1.7236   -3.7541 H   0  0  0  0  0  0  0  0  0  0  0  0
   -1.6155    0.2490    3.8509 H   0  0  0  0  0  0  0  0  0  0  0  0
   -2.0221   -2.4534   -0.1421 H   0  0  0  0  0  0  0  0  0  0  0  0
  1  4  1  0  0  0  0
  1  6  2  0  0  0  0
  1 31  1  0  0  0  0
  2  6  1  0  0  0  0
  2  7  2  0  0  0  0
  2 32  1  0  0  0  0
  3  4  2  0  0  0  0
  3  5  1  0  0  0  0
  3  7  1  0  0  0  0
  4 13  1  0  0  0  0
  5  8  2  0  0  0  0
  5 10  1  0  0  0  0
  6 16  1  0  0  0  0
  7 25  1  0  0  0  0
  8 25  1  0  0  0  0
  8 30  1  0  0  0  0
  9 26  1  0  0  0  0
  9 27  1  0  0  0  0
  9 29  2  0  0  0  0
 10 15  1  0  0  0  0
 10 33  1  0  0  0  0
 10 34  1  0  0  0  0
 11 13  1  0  0  0  0
 11 14  1  0  0  0  0
 11 35  1  0  0  0  0
 11 36  1  0  0  0  0
 12 14  1  0  0  0  0
 12 28  1  0  0  0  0
 12 37  1  0  0  0  0
 12 38  1  0  0  0  0
 13 15  1  0  0  0  0
 13 39  1  0  0  0  0
 14 26  1  0  0  0  0
 14 40  1  0  0  0  0
 15 28  1  0  0  0  0
 15 41  1  0  0  0  0
 16 42  1  0  0  0  0
 16 43  1  0  0  0  0
 16 44  1  0  0  0  0
 17 21  1  0  0  0  0
 17 45  1  0  0  0  0
 17 46  1  0  0  0  0
 17 47  1  0  0  0  0
 18 22  1  0  0  0  0
 18 48  1  0  0  0  0
 18 49  1  0  0  0  0
 18 50  1  0  0  0  0
 19 23  1  0  0  0  0
 19 51  1  0  0  0  0
 19 52  1  0  0  0  0
 19 53  1  0  0  0  0
 20 30  1  0  0  0  0
 20 54  1  0  0  0  0
 20 55  1  0  0  0  0
 20 56  1  0  0  0  0
 21 24  1  0  0  0  0
 21 57  1  0  0  0  0
 21 58  1  0  0  0  0
 22 27  1  0  0  0  0
 22 59  1  0  0  0  0
 22 60  1  0  0  0  0
 23 27  1  0  0  0  0
 23 61  1  0  0  0  0
 23 62  1  0  0  0  0
 24 28  1  0  0  0  0
 24 63  1  0  0  0  0
 24 64  1  0  0  0  0
 25 65  1  0  0  0  0
 26 66  1  0  0  0  0
 28 67  1  0  0  0  0
M  CHG  1  28   1
M  END
$$$$
