37
0 1 C12Cl2H19N3O
C                    -0.651335700670     0.928556363994    -2.643353702267
C                    -1.136346580105     0.057628514806    -0.794360627065
C                     2.910889184361     3.053110512827     0.659932348503
C                     2.552939584741     1.713822514474     0.016805593981
C                     1.923534284165     2.990970365418    -0.467139416716
C                     3.040160974971    -3.296776276769    -2.120812098647
C                     0.596626873498    -2.783658636632    -2.004221018579
C                     1.783164456799    -3.664702549594     0.021875942468
C                     1.797563829085     0.665458540822     0.805401613227
C                     1.224554219167    -0.491569602328    -0.037069710291
C                     2.311028249632    -1.299223483723    -0.807752213105
C                     1.918769159802    -2.751553561096    -1.213718024586
N                    -1.715355757816     0.628990340974    -1.841878255854
N                     0.533072960377     0.572341534273    -2.157204261021
N                     0.205438785425     0.005392956081    -0.963218831279
O                     3.543636408359    -1.281116891694    -0.077215548875
Cl                    0.214323930089     3.338613132880    -0.105772925138
Cl                    2.420429002055     3.614220948734    -2.056755895809
H                    -0.744991436079     1.422580094430    -3.601419109529
H                    -1.636400025560    -0.328066031182     0.085158281844
H                     2.507141472076     3.265225778950     1.645823406948
H                     3.885400863695     3.484109898944     0.454621735090
H                     3.303910723300     1.317564146708    -0.658118995788
H                     4.013142242060    -3.256209001455    -1.624264801470
H                     3.109046845916    -2.712217374228    -3.044772458023
H                     2.835504916725    -4.336799914863    -2.397276943453
H                    -0.270670751232    -2.553260790016    -1.380215447552
H                     0.609081979920    -2.075752891996    -2.837458268563
H                     0.443458715372    -3.787223557734    -2.415591623836
H                     1.034474648821    -3.300147860574     0.734260008002
H                     2.732562285315    -3.794805614101     0.555777991240
H                     1.467085305458    -4.665318725942    -0.289456415208
H                     0.970935314532     1.129501609384     1.351559908916
H                     2.479289123901     0.242524630329     1.548363570034
H                     0.691217326364    -1.155034425674     0.651935099697
H                     2.525545826829    -0.743191085248    -1.721839157625
H                     3.466165663775    -1.890992912602     0.673127154704
