
  -OEChem-05262117483D

 35 36  0     1  0  0  0  0  0999 V2000
   -2.3326   -2.6561    5.4298 C   0  0  0  0  0  0  0  0  0  0  0  0
   -1.9764   -3.9209    4.9780 C   0  0  0  0  0  0  0  0  0  0  0  0
   -2.3909   -1.5538    4.5628 C   0  0  0  0  0  0  0  0  0  0  0  0
   -1.7675   -3.0508    2.6939 C   0  0  0  0  0  0  0  0  0  0  0  0
   -1.6907   -4.1141    3.6199 C   0  0  0  0  0  0  0  0  0  0  0  0
   -2.1190   -1.7923    3.2089 C   0  0  0  0  0  0  0  0  0  0  0  0
   -2.7209   -0.1658    5.1451 C   0  0  0  0  0  0  0  0  0  0  0  0
   -2.4550   -1.9767   -1.4906 C   0  0  0  0  0  0  0  0  0  0  0  0
   -3.8959   -1.4991   -1.6665 C   0  0  0  0  0  0  0  0  0  0  0  0
   -4.0440   -3.7936   -1.4133 C   0  0  0  0  0  0  0  0  0  0  0  0
   -2.6662   -3.3688   -0.8614 C   0  0  2  0  0  0  0  0  0  0  0  0
    0.6659   -5.5575    3.0527 C   0  0  0  0  0  0  0  0  0  0  0  0
   -1.5150   -3.2186    1.2150 C   0  0  0  0  0  0  0  0  0  0  0  0
   -1.7070    0.5465    5.3426 O   0  5  0  0  0  0  0  0  0  0  0  0
   -3.9384    0.0250    5.3716 O   0  0  0  0  0  0  0  0  0  0  0  0
   -1.3650   -6.6567    4.3296 O   0  0  0  0  0  0  0  0  0  0  0  0
   -1.6158   -6.1702    1.8445 O   0  0  0  0  0  0  0  0  0  0  0  0
   -4.6050   -2.6666   -2.1062 O   0  0  0  0  0  0  0  0  0  0  0  0
   -2.7770   -3.3089    0.5557 O   0  0  0  0  0  0  0  0  0  0  0  0
   -1.1330   -5.7637    3.1779 S   0  0  0  0  0  0  0  0  0  0  0  0
   -2.2330   -0.4198    2.0990 Cl  0  0  0  0  0  0  0  0  0  0  0  0
   -2.5719   -2.5008    6.4784 H   0  0  0  0  0  0  0  0  0  0  0  0
   -1.9244   -4.7661    5.6562 H   0  0  0  0  0  0  0  0  0  0  0  0
   -1.9658   -2.0719   -2.4671 H   0  0  0  0  0  0  0  0  0  0  0  0
   -1.8588   -1.3198   -0.8540 H   0  0  0  0  0  0  0  0  0  0  0  0
   -4.2994   -1.1358   -0.7115 H   0  0  0  0  0  0  0  0  0  0  0  0
   -4.0250   -0.7277   -2.4306 H   0  0  0  0  0  0  0  0  0  0  0  0
   -3.9756   -4.6214   -2.1260 H   0  0  0  0  0  0  0  0  0  0  0  0
   -4.6803   -4.0901   -0.5719 H   0  0  0  0  0  0  0  0  0  0  0  0
   -1.8762   -4.0803   -1.1387 H   0  0  0  0  0  0  0  0  0  0  0  0
    1.0727   -6.5396    2.8006 H   0  0  0  0  0  0  0  0  0  0  0  0
    0.8939   -4.8334    2.2693 H   0  0  0  0  0  0  0  0  0  0  0  0
    1.0408   -5.2158    4.0182 H   0  0  0  0  0  0  0  0  0  0  0  0
   -0.9497   -2.3532    0.8493 H   0  0  0  0  0  0  0  0  0  0  0  0
   -0.9405   -4.1231    0.9971 H   0  0  0  0  0  0  0  0  0  0  0  0
  1  2  1  0  0  0  0
  1  3  2  0  0  0  0
  1 22  1  0  0  0  0
  2  5  2  0  0  0  0
  2 23  1  0  0  0  0
  3  6  1  0  0  0  0
  3  7  1  0  0  0  0
  4  5  1  0  0  0  0
  4  6  2  0  0  0  0
  4 13  1  0  0  0  0
  5 20  1  0  0  0  0
  6 21  1  0  0  0  0
  7 14  1  0  0  0  0
  7 15  2  0  0  0  0
  8  9  1  0  0  0  0
  8 11  1  0  0  0  0
  8 24  1  0  0  0  0
  8 25  1  0  0  0  0
  9 18  1  0  0  0  0
  9 26  1  0  0  0  0
  9 27  1  0  0  0  0
 10 11  1  0  0  0  0
 10 18  1  0  0  0  0
 10 28  1  0  0  0  0
 10 29  1  0  0  0  0
 11 19  1  0  0  0  0
 11 30  1  0  0  0  0
 12 20  1  0  0  0  0
 12 31  1  0  0  0  0
 12 32  1  0  0  0  0
 12 33  1  0  0  0  0
 13 19  1  0  0  0  0
 13 34  1  0  0  0  0
 13 35  1  0  0  0  0
 16 20  2  0  0  0  0
 17 20  2  0  0  0  0
M  CHG  1  14  -1
M  END
$$$$
