
  -OEChem-05262117483D

 36 37  0     1  0  0  0  0  0999 V2000
   -2.4025   -2.6361    5.5167 C   0  0  0  0  0  0  0  0  0  0  0  0
   -2.1563   -3.8876    4.9693 C   0  0  0  0  0  0  0  0  0  0  0  0
   -2.3678   -1.4758    4.7290 C   0  0  0  0  0  0  0  0  0  0  0  0
   -1.8704   -2.8797    2.7571 C   0  0  0  0  0  0  0  0  0  0  0  0
   -1.8877   -3.9999    3.6044 C   0  0  0  0  0  0  0  0  0  0  0  0
   -2.1050   -1.6260    3.3554 C   0  0  0  0  0  0  0  0  0  0  0  0
   -2.6421   -0.1950    5.5041 C   0  0  0  0  0  0  0  0  0  0  0  0
   -4.2279   -2.2805   -1.3129 C   0  0  0  0  0  0  0  0  0  0  0  0
   -4.8891   -3.6148   -1.6700 C   0  0  0  0  0  0  0  0  0  0  0  0
   -2.6703   -4.1389   -1.3897 C   0  0  0  0  0  0  0  0  0  0  0  0
   -2.8562   -2.7196   -0.7827 C   0  0  2  0  0  0  0  0  0  0  0  0
    0.2124   -5.7357    2.8010 C   0  0  0  0  0  0  0  0  0  0  0  0
   -1.6627   -2.9693    1.2598 C   0  0  0  0  0  0  0  0  0  0  0  0
   -3.2502   -0.2303    6.5509 O   0  0  0  0  0  0  0  0  0  0  0  0
   -1.8959   -6.5961    4.1475 O   0  0  0  0  0  0  0  0  0  0  0  0
   -2.2130   -5.9104    1.7108 O   0  0  0  0  0  0  0  0  0  0  0  0
   -3.8180   -4.3977   -2.2057 O   0  0  0  0  0  0  0  0  0  0  0  0
   -2.1424    0.9740    5.0522 O   0  0  0  0  0  0  0  0  0  0  0  0
   -2.9231   -2.7474    0.6493 O   0  0  0  0  0  0  0  0  0  0  0  0
   -1.5825   -5.7059    3.0219 S   0  0  0  0  0  0  0  0  0  0  0  0
   -2.0995   -0.2133    2.2918 Cl  0  0  0  0  0  0  0  0  0  0  0  0
   -2.6354   -2.5258    6.5700 H   0  0  0  0  0  0  0  0  0  0  0  0
   -2.1863   -4.7810    5.5836 H   0  0  0  0  0  0  0  0  0  0  0  0
   -4.1022   -1.6740   -2.2144 H   0  0  0  0  0  0  0  0  0  0  0  0
   -4.7675   -1.6976   -0.5632 H   0  0  0  0  0  0  0  0  0  0  0  0
   -5.3107   -4.0972   -0.7762 H   0  0  0  0  0  0  0  0  0  0  0  0
   -5.6629   -3.5411   -2.4373 H   0  0  0  0  0  0  0  0  0  0  0  0
   -1.7874   -4.2260   -2.0298 H   0  0  0  0  0  0  0  0  0  0  0  0
   -2.6077   -4.8737   -0.5771 H   0  0  0  0  0  0  0  0  0  0  0  0
   -2.0560   -2.0296   -1.0829 H   0  0  0  0  0  0  0  0  0  0  0  0
    0.4560   -6.7503    2.4782 H   0  0  0  0  0  0  0  0  0  0  0  0
    0.5019   -5.0131    2.0372 H   0  0  0  0  0  0  0  0  0  0  0  0
    0.6846   -5.5134    3.7587 H   0  0  0  0  0  0  0  0  0  0  0  0
   -0.9424   -2.2018    0.9396 H   0  0  0  0  0  0  0  0  0  0  0  0
   -1.2639   -3.9445    0.9760 H   0  0  0  0  0  0  0  0  0  0  0  0
   -1.7456    0.8727    4.1672 H   0  0  0  0  0  0  0  0  0  0  0  0
  1  2  1  0  0  0  0
  1  3  2  0  0  0  0
  1 22  1  0  0  0  0
  2  5  2  0  0  0  0
  2 23  1  0  0  0  0
  3  6  1  0  0  0  0
  3  7  1  0  0  0  0
  4  5  1  0  0  0  0
  4  6  2  0  0  0  0
  4 13  1  0  0  0  0
  5 20  1  0  0  0  0
  6 21  1  0  0  0  0
  7 14  2  0  0  0  0
  7 18  1  0  0  0  0
  8  9  1  0  0  0  0
  8 11  1  0  0  0  0
  8 24  1  0  0  0  0
  8 25  1  0  0  0  0
  9 17  1  0  0  0  0
  9 26  1  0  0  0  0
  9 27  1  0  0  0  0
 10 11  1  0  0  0  0
 10 17  1  0  0  0  0
 10 28  1  0  0  0  0
 10 29  1  0  0  0  0
 11 19  1  0  0  0  0
 11 30  1  0  0  0  0
 12 20  1  0  0  0  0
 12 31  1  0  0  0  0
 12 32  1  0  0  0  0
 12 33  1  0  0  0  0
 13 19  1  0  0  0  0
 13 34  1  0  0  0  0
 13 35  1  0  0  0  0
 15 20  2  0  0  0  0
 16 20  2  0  0  0  0
 18 36  1  0  0  0  0
M  END
$$$$
