35
-1 1 C13ClH14O6S
C                    -2.214699301459    -3.264994184544     5.522235613625
C                    -1.968067832633    -4.412180113126     4.777742990568
C                    -2.439448901032    -2.023866415602     4.907697874872
C                    -2.108478120889    -3.101820100296     2.706319038036
C                    -1.923060633519    -4.330419053723     3.380242043514
C                    -2.359192197187    -1.976748614350     3.507659729472
C                    -2.779710138541    -0.810641769388     5.793620246081
C                     1.227460968418    -2.763061117512    -0.566690085708
C                     1.228949020027    -1.306513238474    -1.028874249981
C                    -0.875244495865    -2.163000047962    -1.552608264486
C                    -0.271336233908    -3.048716135310    -0.438594185070
C                    -3.412223900137    -6.304597374984     2.021230583916
C                    -2.009789026481    -2.974296213764     1.203746669613
O                    -1.793547241762    -0.293068816978     6.367892853831
O                    -4.007545325207    -0.555763470617     5.837433679617
O                    -0.921356786332    -5.757726907313     1.292554575552
O                    -1.327032635162    -6.919499023612     3.518032258981
O                     0.131671365839    -1.215855704722    -1.952577381607
O                    -0.662395022822    -2.637449455165     0.867659613693
S                    -1.717914980518    -5.897066733572     2.528236364856
Cl                   -2.570204414581    -0.404117326692     2.730382006414
H                    -2.237065373151    -3.314984190358     6.607590296702
H                    -1.801397839687    -5.369745051041     5.259717498795
H                     1.666414904031    -3.407222418772    -1.336070717331
H                     1.737279649031    -2.933450485401     0.383428990179
H                     1.069804741949    -0.628760032469    -0.179476536537
H                     2.134749488645    -1.007022840169    -1.564461929256
H                    -1.154920901287    -2.751004941915    -2.435731764509
H                    -1.760880259405    -1.629039895532    -1.188945127938
H                    -0.512842806661    -4.109706054955    -0.567785662454
H                    -3.358497601584    -7.265118143336     1.503680454919
H                    -4.029159716546    -6.377852799744     2.917707040042
H                    -3.788448539476    -5.527397107594     1.354650838295
H                    -2.279638859814    -3.911360900622     0.709756970564
H                    -2.695258488193    -2.195173583153     0.854687167755
