
  -OEChem-05262117483D

 34 34  0     0  0  0  0  0  0999 V2000
   -0.6557    0.3584   -0.4179 C   0  0  0  0  0  0  0  0  0  0  0  0
   -1.5203    0.8994   -1.0828 C   0  0  0  0  0  0  0  0  0  0  0  0
    1.4528   -0.9162   -0.2493 C   0  0  0  0  0  0  0  0  0  0  0  0
    0.2863   -0.2995    1.7680 C   0  0  0  0  0  0  0  0  0  0  0  0
    0.3613   -0.2767    0.3643 C   0  0  0  0  0  0  0  0  0  0  0  0
    2.4506   -1.5404    0.5014 C   0  0  0  0  0  0  0  0  0  0  0  0
    1.2703   -0.9165    2.5427 C   0  0  0  0  0  0  0  0  0  0  0  0
    2.3892   -1.5221    1.9176 C   0  0  0  0  0  0  0  0  0  0  0  0
    3.1149   -3.7209    3.0090 C   0  0  0  0  0  0  0  0  0  0  0  0
   -2.5640    1.5448   -1.8845 C   0  0  0  0  0  0  0  0  0  0  0  0
    4.7889   -1.2783   -0.4621 C   0  0  0  0  0  0  0  0  0  0  0  0
    1.7975    0.3030    4.7106 C   0  0  0  0  0  0  0  0  0  0  0  0
    3.4588   -2.1895    2.7399 C   0  0  0  0  0  0  0  0  0  0  0  0
    3.5930   -2.2203   -0.2297 C   0  0  0  0  0  0  0  0  0  0  0  0
    1.1171   -0.9115    4.0520 C   0  0  0  0  0  0  0  0  0  0  0  0
    2.4443   -3.9381    4.0520 O   0  5  0  0  0  0  0  0  0  0  0  0
    3.5507   -4.5224    2.1415 O   0  0  0  0  0  0  0  0  0  0  0  0
    1.5104   -0.9324   -1.3359 H   0  0  0  0  0  0  0  0  0  0  0  0
   -0.5672    0.1660    2.2571 H   0  0  0  0  0  0  0  0  0  0  0  0
   -2.8814    2.4938   -1.4356 H   0  0  0  0  0  0  0  0  0  0  0  0
   -2.2060    1.7610   -2.8981 H   0  0  0  0  0  0  0  0  0  0  0  0
   -3.4525    0.9076   -1.9759 H   0  0  0  0  0  0  0  0  0  0  0  0
    4.4957   -0.4096   -1.0644 H   0  0  0  0  0  0  0  0  0  0  0  0
    5.6032   -1.7977   -0.9829 H   0  0  0  0  0  0  0  0  0  0  0  0
    5.1842   -0.9018    0.4873 H   0  0  0  0  0  0  0  0  0  0  0  0
    2.8707    0.3195    4.4926 H   0  0  0  0  0  0  0  0  0  0  0  0
    1.6764    0.2782    5.8009 H   0  0  0  0  0  0  0  0  0  0  0  0
    1.3715    1.2432    4.3395 H   0  0  0  0  0  0  0  0  0  0  0  0
    4.4208   -2.1428    2.2275 H   0  0  0  0  0  0  0  0  0  0  0  0
    3.5667   -1.6915    3.7045 H   0  0  0  0  0  0  0  0  0  0  0  0
    3.9009   -3.1108    0.3263 H   0  0  0  0  0  0  0  0  0  0  0  0
    3.2269   -2.5677   -1.2039 H   0  0  0  0  0  0  0  0  0  0  0  0
    0.0473   -0.8872    4.2947 H   0  0  0  0  0  0  0  0  0  0  0  0
    1.5109   -1.8472    4.4599 H   0  0  0  0  0  0  0  0  0  0  0  0
  1  2  3  0  0  0  0
  1  5  1  0  0  0  0
  2 10  1  0  0  0  0
  3  5  1  0  0  0  0
  3  6  2  0  0  0  0
  3 18  1  0  0  0  0
  4  5  2  0  0  0  0
  4  7  1  0  0  0  0
  4 19  1  0  0  0  0
  6  8  1  0  0  0  0
  6 14  1  0  0  0  0
  7  8  2  0  0  0  0
  7 15  1  0  0  0  0
  8 13  1  0  0  0  0
  9 13  1  0  0  0  0
  9 16  1  0  0  0  0
  9 17  2  0  0  0  0
 10 20  1  0  0  0  0
 10 21  1  0  0  0  0
 10 22  1  0  0  0  0
 11 14  1  0  0  0  0
 11 23  1  0  0  0  0
 11 24  1  0  0  0  0
 11 25  1  0  0  0  0
 12 15  1  0  0  0  0
 12 26  1  0  0  0  0
 12 27  1  0  0  0  0
 12 28  1  0  0  0  0
 13 29  1  0  0  0  0
 13 30  1  0  0  0  0
 14 31  1  0  0  0  0
 14 32  1  0  0  0  0
 15 33  1  0  0  0  0
 15 34  1  0  0  0  0
M  CHG  1  16  -1
M  END
$$$$
