
  -OEChem-05262117483D

 30 31  0     1  0  0  0  0  0999 V2000
   -1.8819    1.3771   -1.4903 C   0  0  0  0  0  0  0  0  0  0  0  0
   -1.7276    2.1489   -0.3334 C   0  0  0  0  0  0  0  0  0  0  0  0
   -1.1721    0.1848   -1.6148 C   0  0  0  0  0  0  0  0  0  0  0  0
   -0.8468    1.7262    0.6568 C   0  0  0  0  0  0  0  0  0  0  0  0
   -0.3035   -0.2891   -0.6138 C   0  0  0  0  0  0  0  0  0  0  0  0
   -0.1269    0.5237    0.5261 C   0  0  0  0  0  0  0  0  0  0  0  0
    1.1391   -2.1758    0.4067 C   0  0  0  0  0  0  0  0  0  0  0  0
    2.0108   -1.1280    1.0848 C   0  0  0  0  0  0  0  0  0  0  0  0
    0.4096   -1.6282   -0.8311 C   0  0  1  0  0  0  0  0  0  0  0  0
   -0.5224   -2.7093   -1.4323 C   0  0  0  0  0  0  0  0  0  0  0  0
   -1.8087   -2.9669   -0.6467 C   0  0  1  0  0  0  0  0  0  0  0  0
   -2.8544   -3.6692   -1.5186 C   0  0  0  0  0  0  0  0  0  0  0  0
   -1.5166   -3.7764    0.4853 O   0  0  0  0  0  0  0  0  0  0  0  0
   -3.2779   -2.8590   -2.5216 F   0  0  0  0  0  0  0  0  0  0  0  0
   -3.9490   -3.9950   -0.7778 F   0  0  0  0  0  0  0  0  0  0  0  0
   -2.3995   -4.8096   -2.0798 F   0  0  0  0  0  0  0  0  0  0  0  0
    0.9801    0.1554    1.8710 S   0  0  0  0  0  0  0  0  0  0  0  0
   -2.5472    1.6994   -2.2865 H   0  0  0  0  0  0  0  0  0  0  0  0
   -2.2736    3.0807   -0.2114 H   0  0  0  0  0  0  0  0  0  0  0  0
   -1.3073   -0.4015   -2.5190 H   0  0  0  0  0  0  0  0  0  0  0  0
   -0.6941    2.3389    1.5422 H   0  0  0  0  0  0  0  0  0  0  0  0
    1.7658   -3.0166    0.0845 H   0  0  0  0  0  0  0  0  0  0  0  0
    0.4223   -2.5746    1.1268 H   0  0  0  0  0  0  0  0  0  0  0  0
    2.5987   -1.5656    1.8960 H   0  0  0  0  0  0  0  0  0  0  0  0
    2.7011   -0.6549    0.3785 H   0  0  0  0  0  0  0  0  0  0  0  0
    1.1787   -1.4500   -1.5961 H   0  0  0  0  0  0  0  0  0  0  0  0
   -0.7917   -2.4359   -2.4547 H   0  0  0  0  0  0  0  0  0  0  0  0
    0.0238   -3.6555   -1.5004 H   0  0  0  0  0  0  0  0  0  0  0  0
   -2.2657   -2.0158   -0.3471 H   0  0  0  0  0  0  0  0  0  0  0  0
   -2.3070   -3.8193    1.0477 H   0  0  0  0  0  0  0  0  0  0  0  0
  1  2  1  0  0  0  0
  1  3  2  0  0  0  0
  1 18  1  0  0  0  0
  2  4  2  0  0  0  0
  2 19  1  0  0  0  0
  3  5  1  0  0  0  0
  3 20  1  0  0  0  0
  4  6  1  0  0  0  0
  4 21  1  0  0  0  0
  5  6  2  0  0  0  0
  5  9  1  0  0  0  0
  6 17  1  0  0  0  0
  7  8  1  0  0  0  0
  7  9  1  0  0  0  0
  7 22  1  0  0  0  0
  7 23  1  0  0  0  0
  8 17  1  0  0  0  0
  8 24  1  0  0  0  0
  8 25  1  0  0  0  0
  9 10  1  0  0  0  0
  9 26  1  0  0  0  0
 10 11  1  0  0  0  0
 10 27  1  0  0  0  0
 10 28  1  0  0  0  0
 11 12  1  0  0  0  0
 11 13  1  0  0  0  0
 11 29  1  0  0  0  0
 12 14  1  0  0  0  0
 12 15  1  0  0  0  0
 12 16  1  0  0  0  0
 13 30  1  0  0  0  0
M  END
$$$$
