35
-1 1 C13ClH14O6S
C                    -2.290806298162    -3.129081791451     5.496536767985
C                    -2.102514161430    -4.335008364249     4.832748797283
C                    -2.241168750828    -1.900739483680     4.819349014288
C                    -1.851755845918    -3.131762767246     2.709232513129
C                    -1.878295093761    -4.334253106659     3.449615715304
C                    -2.037934993922    -1.942186939449     3.432726156775
C                    -2.387881412661    -0.600431488306     5.632189890703
C                    -4.248903294415    -2.354113307780    -1.318251304483
C                    -4.852442936819    -3.691600336165    -1.750542041746
C                    -2.600099074573    -4.118138006964    -1.539046309843
C                    -2.859413238355    -2.768048829686    -0.811196521733
C                     0.271603849407    -5.931276923678     2.559776109794
C                    -1.657900739051    -3.084991375979     1.212566122218
O                    -1.290559921433    -0.062021839261     5.915817662357
O                    -3.569585766491    -0.301948881541     5.923515476238
O                    -1.849291668735    -6.978982955429     3.730653672522
O                    -2.094443595122    -6.069428233798     1.368225636069
O                    -3.756776844200    -4.391836355646    -2.350065573086
O                    -2.936158819657    -2.921282992086     0.600739056685
S                    -1.535137283080    -5.942771218914     2.728272669010
Cl                   -2.021111603712    -0.404903572900     2.562080898801
H                    -2.479291976167    -3.121361185908     6.566814065183
H                    -2.134399289750    -5.280006962693     5.364619879796
H                    -4.152863356376    -1.691321100419    -2.184197341824
H                    -4.805805792519    -1.841091506928    -0.531451736032
H                    -5.235672231394    -4.245977441867    -0.881686900315
H                    -5.642721157499    -3.608105612843    -2.501855547377
H                    -1.734730427779    -4.091621349695    -2.209227497973
H                    -2.465307791028    -4.909364761919    -0.792533314655
H                    -2.094351375410    -2.016544142912    -1.052758673968
H                     0.549257533151    -6.900967380572     2.140313173170
H                     0.567909897388    -5.122409236764     1.890574936691
H                     0.707450355895    -5.794817789984     3.550304237009
H                    -1.017141465160    -2.231905345002     0.952337296794
H                    -1.182519292026    -3.996531745133     0.841931689765
