
  -OEChem-05262117483D

 30 31  0     1  0  0  0  0  0999 V2000
   -1.9596    1.7218    0.8894 C   0  0  0  0  0  0  0  0  0  0  0  0
   -1.3657    2.3930   -0.1860 C   0  0  0  0  0  0  0  0  0  0  0  0
   -1.4993    0.4519    1.2359 C   0  0  0  0  0  0  0  0  0  0  0  0
   -0.3304    1.7891   -0.8962 C   0  0  0  0  0  0  0  0  0  0  0  0
   -0.4508   -0.1711    0.5431 C   0  0  0  0  0  0  0  0  0  0  0  0
    0.1374    0.5125   -0.5369 C   0  0  0  0  0  0  0  0  0  0  0  0
    0.4864   -2.3891   -0.2011 C   0  0  0  0  0  0  0  0  0  0  0  0
    1.7171   -1.8283   -0.9061 C   0  0  0  0  0  0  0  0  0  0  0  0
    0.0330   -1.5356    0.9935 C   0  0  1  0  0  0  0  0  0  0  0  0
    1.1191   -1.3531    2.0781 C   0  0  0  0  0  0  0  0  0  0  0  0
    1.6438   -2.6716    2.6383 C   0  0  1  0  0  0  0  0  0  0  0  0
    2.7088   -2.4396    3.7148 C   0  0  0  0  0  0  0  0  0  0  0  0
    0.5516   -3.3984    3.1801 O   0  0  0  0  0  0  0  0  0  0  0  0
    3.8218   -1.8797    3.1825 F   0  0  0  0  0  0  0  0  0  0  0  0
    3.0822   -3.6295    4.2686 F   0  0  0  0  0  0  0  0  0  0  0  0
    2.2886   -1.6494    4.7217 F   0  0  0  0  0  0  0  0  0  0  0  0
    1.4692   -0.1210   -1.5380 S   0  0  0  0  0  0  0  0  0  0  0  0
   -2.7724    2.1810    1.4453 H   0  0  0  0  0  0  0  0  0  0  0  0
   -1.7111    3.3818   -0.4766 H   0  0  0  0  0  0  0  0  0  0  0  0
   -1.9584   -0.0806    2.0671 H   0  0  0  0  0  0  0  0  0  0  0  0
    0.1222    2.3078   -1.7383 H   0  0  0  0  0  0  0  0  0  0  0  0
   -0.3417   -2.4612   -0.9140 H   0  0  0  0  0  0  0  0  0  0  0  0
    0.7061   -3.4109    0.1282 H   0  0  0  0  0  0  0  0  0  0  0  0
    2.5887   -1.8313   -0.2462 H   0  0  0  0  0  0  0  0  0  0  0  0
    1.9651   -2.4291   -1.7849 H   0  0  0  0  0  0  0  0  0  0  0  0
   -0.8076   -2.0528    1.4640 H   0  0  0  0  0  0  0  0  0  0  0  0
    1.9569   -0.7700    1.6850 H   0  0  0  0  0  0  0  0  0  0  0  0
    0.6900   -0.7742    2.9010 H   0  0  0  0  0  0  0  0  0  0  0  0
    2.1535   -3.2496    1.8550 H   0  0  0  0  0  0  0  0  0  0  0  0
    0.8734   -4.2572    3.4995 H   0  0  0  0  0  0  0  0  0  0  0  0
  1  2  1  0  0  0  0
  1  3  2  0  0  0  0
  1 18  1  0  0  0  0
  2  4  2  0  0  0  0
  2 19  1  0  0  0  0
  3  5  1  0  0  0  0
  3 20  1  0  0  0  0
  4  6  1  0  0  0  0
  4 21  1  0  0  0  0
  5  6  2  0  0  0  0
  5  9  1  0  0  0  0
  6 17  1  0  0  0  0
  7  8  1  0  0  0  0
  7  9  1  0  0  0  0
  7 22  1  0  0  0  0
  7 23  1  0  0  0  0
  8 17  1  0  0  0  0
  8 24  1  0  0  0  0
  8 25  1  0  0  0  0
  9 10  1  0  0  0  0
  9 26  1  0  0  0  0
 10 11  1  0  0  0  0
 10 27  1  0  0  0  0
 10 28  1  0  0  0  0
 11 12  1  0  0  0  0
 11 13  1  0  0  0  0
 11 29  1  0  0  0  0
 12 14  1  0  0  0  0
 12 15  1  0  0  0  0
 12 16  1  0  0  0  0
 13 30  1  0  0  0  0
M  END
$$$$
