36
0 1 C13ClH15O6S
C                    -2.136105177157    -2.332574604657     5.291917916189
C                    -1.958364251912    -3.611145571873     4.779291685885
C                    -2.222728433192    -1.221057797167     4.441915490779
C                    -1.922517538948    -2.704371046763     2.502347459929
C                    -1.851542169452    -3.783797320507     3.398905848563
C                    -2.111033390637    -1.418269787296     3.051425374459
C                    -2.481365530608     0.119150546191     5.060944801027
C                    -2.914939496148    -1.679227464367    -1.679844701957
C                    -4.230262154027    -0.898437867333    -1.672821165678
C                    -4.804807991846    -3.099672207041    -1.215633434418
C                    -3.305597417449    -2.944348339711    -0.896229383287
C                     0.162458885372    -5.560280407011     2.481105699306
C                    -1.861814615675    -2.871988886054     0.999597420257
O                    -3.051609496378     1.055381583147     4.543138709013
O                    -1.809102321201    -6.355226034191     4.053483421120
O                    -2.354737927392    -5.777495586751     1.629482970319
O                    -5.237316850664    -1.897136416597    -1.869693418746
O                    -2.017624923864     0.171570126291     6.342214138092
O                    -3.191544160156    -2.757922394039     0.519659080102
S                    -1.605413096178    -5.514614646858     2.864938721577
Cl                   -2.158096776596    -0.053987235836     1.961842628969
H                    -2.220439371331    -2.182897153417     6.361952680888
H                    -1.914788805242    -4.475541421618     5.432630142377
H                    -2.638712405371    -1.946563219106    -2.705539618214
H                    -2.083819219595    -1.135961185635    -1.223509300555
H                    -4.372711822459    -0.388262801744    -0.709480078588
H                    -4.322144669520    -0.169739802863    -2.481996119339
H                    -4.999579506639    -3.938293157797    -1.890671559157
H                    -5.354647270672    -3.253991008094    -0.280549367899
H                    -2.726262806338    -3.829030938675    -1.188536624298
H                     0.375512557317    -6.587412139939     2.177077394749
H                     0.381185347599    -4.868317512291     1.667176384746
H                     0.720231890571    -5.302442176679     3.382205539679
H                    -1.213512582118    -2.095395484380     0.574679936616
H                    -1.454703585333    -3.846144931843     0.718998389077
H                    -2.268094017572     1.053331540049     6.679278123936
