
  -OEChem-05262117483D

 30 31  0     1  0  0  0  0  0999 V2000
   -1.6834    1.3977    1.1957 C   0  0  0  0  0  0  0  0  0  0  0  0
   -1.1420    2.3650    0.3416 C   0  0  0  0  0  0  0  0  0  0  0  0
   -1.2514    0.0752    1.0869 C   0  0  0  0  0  0  0  0  0  0  0  0
   -0.1977    1.9978   -0.6160 C   0  0  0  0  0  0  0  0  0  0  0  0
   -0.2728   -0.3075    0.1603 C   0  0  0  0  0  0  0  0  0  0  0  0
    0.2430    0.6676   -0.7118 C   0  0  0  0  0  0  0  0  0  0  0  0
    0.3321   -2.1940   -1.3709 C   0  0  0  0  0  0  0  0  0  0  0  0
    1.4663   -1.4991   -2.1212 C   0  0  0  0  0  0  0  0  0  0  0  0
    0.2021   -1.7423    0.0953 C   0  0  1  0  0  0  0  0  0  0  0  0
    1.5161   -1.9832    0.8726 C   0  0  0  0  0  0  0  0  0  0  0  0
    1.4489   -1.5368    2.3341 C   0  0  1  0  0  0  0  0  0  0  0  0
    2.3815   -2.3681    3.2214 C   0  0  0  0  0  0  0  0  0  0  0  0
    1.8180   -0.1711    2.4017 O   0  0  0  0  0  0  0  0  0  0  0  0
    1.9641   -3.6604    3.2840 F   0  0  0  0  0  0  0  0  0  0  0  0
    2.3859   -1.8888    4.4937 F   0  0  0  0  0  0  0  0  0  0  0  0
    3.6585   -2.3732    2.7880 F   0  0  0  0  0  0  0  0  0  0  0  0
    1.4695    0.3387   -1.9588 S   0  0  0  0  0  0  0  0  0  0  0  0
   -2.4396    1.6690    1.9274 H   0  0  0  0  0  0  0  0  0  0  0  0
   -1.4684    3.3999    0.4050 H   0  0  0  0  0  0  0  0  0  0  0  0
   -1.6817   -0.6847    1.7374 H   0  0  0  0  0  0  0  0  0  0  0  0
    0.1986    2.7443   -1.3002 H   0  0  0  0  0  0  0  0  0  0  0  0
   -0.6187   -2.0043   -1.8794 H   0  0  0  0  0  0  0  0  0  0  0  0
    0.5144   -3.2749   -1.4139 H   0  0  0  0  0  0  0  0  0  0  0  0
    2.4384   -1.8583   -1.7761 H   0  0  0  0  0  0  0  0  0  0  0  0
    1.3945   -1.7099   -3.1911 H   0  0  0  0  0  0  0  0  0  0  0  0
   -0.5689   -2.3670    0.5620 H   0  0  0  0  0  0  0  0  0  0  0  0
    1.7559   -3.0504    0.8191 H   0  0  0  0  0  0  0  0  0  0  0  0
    2.3462   -1.4351    0.4204 H   0  0  0  0  0  0  0  0  0  0  0  0
    0.4421   -1.7024    2.7413 H   0  0  0  0  0  0  0  0  0  0  0  0
    1.5093    0.2025    3.2419 H   0  0  0  0  0  0  0  0  0  0  0  0
  1  2  1  0  0  0  0
  1  3  2  0  0  0  0
  1 18  1  0  0  0  0
  2  4  2  0  0  0  0
  2 19  1  0  0  0  0
  3  5  1  0  0  0  0
  3 20  1  0  0  0  0
  4  6  1  0  0  0  0
  4 21  1  0  0  0  0
  5  6  2  0  0  0  0
  5  9  1  0  0  0  0
  6 17  1  0  0  0  0
  7  8  1  0  0  0  0
  7  9  1  0  0  0  0
  7 22  1  0  0  0  0
  7 23  1  0  0  0  0
  8 17  1  0  0  0  0
  8 24  1  0  0  0  0
  8 25  1  0  0  0  0
  9 10  1  0  0  0  0
  9 26  1  0  0  0  0
 10 11  1  0  0  0  0
 10 27  1  0  0  0  0
 10 28  1  0  0  0  0
 11 12  1  0  0  0  0
 11 13  1  0  0  0  0
 11 29  1  0  0  0  0
 12 14  1  0  0  0  0
 12 15  1  0  0  0  0
 12 16  1  0  0  0  0
 13 30  1  0  0  0  0
M  END
$$$$
