
  -OEChem-05262117483D

 35 36  0     1  0  0  0  0  0999 V2000
   -1.4851   -3.2165    5.5048 C   0  0  0  0  0  0  0  0  0  0  0  0
   -1.7807   -4.3877    4.8183 C   0  0  0  0  0  0  0  0  0  0  0  0
   -1.3381   -1.9901    4.8385 C   0  0  0  0  0  0  0  0  0  0  0  0
   -1.7482   -3.1561    2.6957 C   0  0  0  0  0  0  0  0  0  0  0  0
   -1.9184   -4.3546    3.4243 C   0  0  0  0  0  0  0  0  0  0  0  0
   -1.4564   -2.0023    3.4411 C   0  0  0  0  0  0  0  0  0  0  0  0
   -1.0841   -0.7200    5.6720 C   0  0  0  0  0  0  0  0  0  0  0  0
   -0.8100   -4.4509   -1.4119 C   0  0  0  0  0  0  0  0  0  0  0  0
    0.5790   -5.0841   -1.4641 C   0  0  0  0  0  0  0  0  0  0  0  0
    0.9605   -2.8190   -1.1944 C   0  0  0  0  0  0  0  0  0  0  0  0
   -0.5010   -3.0825   -0.7709 C   0  0  2  0  0  0  0  0  0  0  0  0
   -4.2006   -5.6641    2.4025 C   0  0  0  0  0  0  0  0  0  0  0  0
   -1.8476   -3.0854    1.1907 C   0  0  0  0  0  0  0  0  0  0  0  0
    0.1034   -0.5710    6.0429 O   0  5  0  0  0  0  0  0  0  0  0  0
   -2.1231   -0.0504    5.8883 O   0  0  0  0  0  0  0  0  0  0  0  0
   -1.8099   -6.0994    1.3401 O   0  0  0  0  0  0  0  0  0  0  0  0
   -2.2970   -6.9756    3.6763 O   0  0  0  0  0  0  0  0  0  0  0  0
    1.4514   -4.0059   -1.8372 O   0  0  0  0  0  0  0  0  0  0  0  0
   -0.5280   -3.1298    0.6517 O   0  0  0  0  0  0  0  0  0  0  0  0
   -2.4219   -5.9041    2.6699 S   0  0  0  0  0  0  0  0  0  0  0  0
   -1.2181   -0.4743    2.5873 Cl  0  0  0  0  0  0  0  0  0  0  0  0
   -1.3643   -3.2352    6.5847 H   0  0  0  0  0  0  0  0  0  0  0  0
   -1.8998   -5.3305    5.3415 H   0  0  0  0  0  0  0  0  0  0  0  0
   -1.2008   -4.3117   -2.4269 H   0  0  0  0  0  0  0  0  0  0  0  0
   -1.5173   -5.0367   -0.8231 H   0  0  0  0  0  0  0  0  0  0  0  0
    0.8530   -5.4835   -0.4785 H   0  0  0  0  0  0  0  0  0  0  0  0
    0.6882   -5.8707   -2.2157 H   0  0  0  0  0  0  0  0  0  0  0  0
    1.0508   -1.9933   -1.9074 H   0  0  0  0  0  0  0  0  0  0  0  0
    1.5475   -2.5892   -0.2977 H   0  0  0  0  0  0  0  0  0  0  0  0
   -1.1793   -2.2926   -1.1240 H   0  0  0  0  0  0  0  0  0  0  0  0
   -4.5747   -6.5903    1.9604 H   0  0  0  0  0  0  0  0  0  0  0  0
   -4.6695   -5.4754    3.3690 H   0  0  0  0  0  0  0  0  0  0  0  0
   -4.3554   -4.8229    1.7255 H   0  0  0  0  0  0  0  0  0  0  0  0
   -2.4401   -3.9128    0.7935 H   0  0  0  0  0  0  0  0  0  0  0  0
   -2.3315   -2.1451    0.8962 H   0  0  0  0  0  0  0  0  0  0  0  0
  1  2  1  0  0  0  0
  1  3  2  0  0  0  0
  1 22  1  0  0  0  0
  2  5  2  0  0  0  0
  2 23  1  0  0  0  0
  3  6  1  0  0  0  0
  3  7  1  0  0  0  0
  4  5  1  0  0  0  0
  4  6  2  0  0  0  0
  4 13  1  0  0  0  0
  5 20  1  0  0  0  0
  6 21  1  0  0  0  0
  7 14  1  0  0  0  0
  7 15  2  0  0  0  0
  8  9  1  0  0  0  0
  8 11  1  0  0  0  0
  8 24  1  0  0  0  0
  8 25  1  0  0  0  0
  9 18  1  0  0  0  0
  9 26  1  0  0  0  0
  9 27  1  0  0  0  0
 10 11  1  0  0  0  0
 10 18  1  0  0  0  0
 10 28  1  0  0  0  0
 10 29  1  0  0  0  0
 11 19  1  0  0  0  0
 11 30  1  0  0  0  0
 12 20  1  0  0  0  0
 12 31  1  0  0  0  0
 12 32  1  0  0  0  0
 12 33  1  0  0  0  0
 13 19  1  0  0  0  0
 13 34  1  0  0  0  0
 13 35  1  0  0  0  0
 16 20  2  0  0  0  0
 17 20  2  0  0  0  0
M  CHG  1  14  -1
M  END
$$$$
