
  -OEChem-05262117483D

 49 52  0     1  0  0  0  0  0999 V2000
    4.8593   -5.5632    3.6467 C   0  0  0  0  0  0  0  0  0  0  0  0
    3.4687   -5.6832    3.6681 C   0  0  0  0  0  0  0  0  0  0  0  0
    5.4827   -4.7300    2.7148 C   0  0  0  0  0  0  0  0  0  0  0  0
    7.1056    0.1300    3.2568 C   0  0  0  0  0  0  0  0  0  0  0  0
    3.3236   -4.1459    1.8147 C   0  0  0  0  0  0  0  0  0  0  0  0
    5.2835    1.9651    4.3774 C   0  0  0  0  0  0  0  0  0  0  0  0
    0.2653   -4.1515    2.2275 C   0  0  0  0  0  0  0  0  0  0  0  0
    0.4214   -6.0878    3.2939 C   0  0  0  0  0  0  0  0  0  0  0  0
    5.7287    0.0424    2.9267 C   0  0  0  0  0  0  0  0  0  0  0  0
    2.6775   -4.9756    2.7470 C   0  0  0  0  0  0  0  0  0  0  0  0
    1.2121   -5.0750    2.7589 C   0  0  0  0  0  0  0  0  0  0  0  0
    4.7128   -4.0126    1.7884 C   0  0  0  0  0  0  0  0  0  0  0  0
    4.8089    0.9695    3.4823 C   0  0  0  0  0  0  0  0  0  0  0  0
    7.5504    1.0999    4.1263 C   0  0  0  0  0  0  0  0  0  0  0  0
    6.6233    2.0261    4.6945 C   0  0  0  0  0  0  0  0  0  0  0  0
    5.1544   -0.9409    2.0457 C   0  0  0  0  0  0  0  0  0  0  0  0
    3.0740    0.0041    2.3491 C   0  0  0  0  0  0  0  0  0  0  0  0
    1.6074   -0.0760    2.0158 C   0  0  0  0  0  0  0  0  0  0  0  0
    6.4401   -3.7371   -0.0667 C   0  0  0  0  0  0  0  0  0  0  0  0
    6.3715    3.9079    6.1573 C   0  0  0  0  0  0  0  0  0  0  0  0
    5.3612   -3.0653    0.7861 C   0  0  2  0  0  0  0  0  0  0  0  0
   -0.9933   -4.5505    2.4172 N   0  0  0  0  0  0  0  0  0  0  0  0
    3.4709    0.9438    3.1873 N   0  0  0  0  0  0  0  0  0  0  0  0
    3.8571   -0.9428    1.7637 N   0  0  0  0  0  0  0  0  0  0  0  0
   -0.8722   -5.7320    3.0662 N   0  0  0  0  0  0  0  0  0  0  0  0
    5.9455   -1.8894    1.4479 N   0  0  0  0  0  0  0  0  0  0  0  0
    8.8770    1.1888    4.4487 O   0  0  0  0  0  0  0  0  0  0  0  0
    7.2126    2.9312    5.5405 O   0  0  0  0  0  0  0  0  0  0  0  0
    5.4584   -6.1130    4.3684 H   0  0  0  0  0  0  0  0  0  0  0  0
    2.9956   -6.3097    4.4201 H   0  0  0  0  0  0  0  0  0  0  0  0
    6.5669   -4.6405    2.7183 H   0  0  0  0  0  0  0  0  0  0  0  0
    7.8488   -0.5388    2.8330 H   0  0  0  0  0  0  0  0  0  0  0  0
    2.7340   -3.5785    1.1013 H   0  0  0  0  0  0  0  0  0  0  0  0
    4.5554    2.6557    4.7865 H   0  0  0  0  0  0  0  0  0  0  0  0
    0.4546   -3.2075    1.7324 H   0  0  0  0  0  0  0  0  0  0  0  0
    0.6786   -7.0160    3.7857 H   0  0  0  0  0  0  0  0  0  0  0  0
    1.4652   -0.1800    0.9359 H   0  0  0  0  0  0  0  0  0  0  0  0
    1.1688   -0.9616    2.4904 H   0  0  0  0  0  0  0  0  0  0  0  0
    1.0838    0.8100    2.3774 H   0  0  0  0  0  0  0  0  0  0  0  0
    7.2807   -4.0868    0.5437 H   0  0  0  0  0  0  0  0  0  0  0  0
    6.0245   -4.6071   -0.5820 H   0  0  0  0  0  0  0  0  0  0  0  0
    6.8273   -3.0351   -0.8113 H   0  0  0  0  0  0  0  0  0  0  0  0
    7.0264    4.5186    6.7793 H   0  0  0  0  0  0  0  0  0  0  0  0
    5.6106    3.4268    6.7818 H   0  0  0  0  0  0  0  0  0  0  0  0
    5.8867    4.5362    5.4020 H   0  0  0  0  0  0  0  0  0  0  0  0
    4.5777   -2.6847    0.1293 H   0  0  0  0  0  0  0  0  0  0  0  0
   -1.7085   -6.2429    3.3140 H   0  0  0  0  0  0  0  0  0  0  0  0
    6.8483   -2.0445    1.8767 H   0  0  0  0  0  0  0  0  0  0  0  0
    8.9768    1.9365    5.0647 H   0  0  0  0  0  0  0  0  0  0  0  0
  1  2  1  0  0  0  0
  1  3  2  0  0  0  0
  1 29  1  0  0  0  0
  2 10  2  0  0  0  0
  2 30  1  0  0  0  0
  3 12  1  0  0  0  0
  3 31  1  0  0  0  0
  4  9  1  0  0  0  0
  4 14  2  0  0  0  0
  4 32  1  0  0  0  0
  5 10  1  0  0  0  0
  5 12  2  0  0  0  0
  5 33  1  0  0  0  0
  6 13  1  0  0  0  0
  6 15  2  0  0  0  0
  6 34  1  0  0  0  0
  7 11  1  0  0  0  0
  7 22  2  0  0  0  0
  7 35  1  0  0  0  0
  8 11  2  0  0  0  0
  8 25  1  0  0  0  0
  8 36  1  0  0  0  0
  9 13  2  0  0  0  0
  9 16  1  0  0  0  0
 10 11  1  0  0  0  0
 12 21  1  0  0  0  0
 13 23  1  0  0  0  0
 14 15  1  0  0  0  0
 14 27  1  0  0  0  0
 15 28  1  0  0  0  0
 16 24  2  0  0  0  0
 16 26  1  0  0  0  0
 17 18  1  0  0  0  0
 17 23  2  0  0  0  0
 17 24  1  0  0  0  0
 18 37  1  0  0  0  0
 18 38  1  0  0  0  0
 18 39  1  0  0  0  0
 19 21  1  0  0  0  0
 19 40  1  0  0  0  0
 19 41  1  0  0  0  0
 19 42  1  0  0  0  0
 20 28  1  0  0  0  0
 20 43  1  0  0  0  0
 20 44  1  0  0  0  0
 20 45  1  0  0  0  0
 21 26  1  0  0  0  0
 21 46  1  0  0  0  0
 22 25  1  0  0  0  0
 25 47  1  0  0  0  0
 26 48  1  0  0  0  0
 27 49  1  0  0  0  0
M  END
$$$$
