41
1 1 C14H16N5O4S2
C                     9.170125716393    -0.519053240989    -0.264946175668
C                     3.603160779899     4.873594737316    -2.778386174202
C                     4.051739496455     5.241187739626    -1.504667767299
C                     3.165086225683     3.565277126265    -3.024997624254
C                     4.092330129651     4.313293640911    -0.454042333670
C                     7.088223070819     2.417359578438    -0.276813731341
C                     8.186162524610     0.491291906003    -0.125429450758
C                     3.209933486277     2.629527709364    -1.994965804416
C                     3.688723215546     3.008368076947    -0.736163479596
C                     6.349888890430     1.569318352564     0.518062441330
C                     2.717029690615     1.201445807101    -1.958944960399
C                     3.344333803116     0.641046416028    -0.667261907963
C                    10.757592582404     4.028649362169    -0.099001012623
C                    11.802330670851     1.776317649832    -0.593517258872
N                     9.986709399717    -1.344155587300    -0.350557994132
N                     8.220000613177     1.732679262825    -0.658423510814
N                     7.046393321558     0.384479581571     0.591429580691
N                     3.639798808589     1.868563202059     0.150587651918
N                    10.818015242842     2.823218580792    -0.955125695562
O                     4.593714371122     0.378227945506     1.946274383601
O                     4.803573601334     2.931445591703     2.137918593374
O                     9.816688376209     1.299846722183    -2.700691127273
O                     8.833273099802     3.643460847181    -2.277056046393
S                     4.742606422837     1.708059393643     1.363752591067
S                     9.559102981456     2.459348906379    -1.883604275798
H                     3.575238331620     5.611579099818    -3.574379667511
H                     4.357544852170     6.266075194960    -1.315183463105
H                     2.789416703822     3.286008314298    -4.005801575171
H                     4.398791755068     4.611187421611     0.542045768538
H                     6.884277348311     3.424915247140    -0.610590923444
H                     1.624152488899     1.184260819518    -1.894846179963
H                     3.008778395664     0.616028124032    -2.833985648954
H                     2.692809344935    -0.020759664309    -0.099946218373
H                     4.278043141326     0.111995742213    -0.894412109369
H                    10.145830743254     4.793909132100    -0.573029729235
H                    11.777088351683     4.405117772282    -0.001216398487
H                    10.363718597188     3.780219997895     0.891887235560
H                    11.786038844440     0.974239417658    -1.328295225527
H                    11.592718778068     1.380683388376     0.404440055997
H                    12.787925903361     2.245318637891    -0.602762222872
H                     6.729469259425    -0.422590855491     1.133354908496
