50
0 1 C23ClH19N6O
C                    -0.720016203232     4.180118565110     4.329063492213
C                     1.456248528783    -2.133066202397     0.247321759330
C                    -1.396432294844     3.407753934946     3.381724342966
C                     0.359205278932    -1.408940758204     0.710925796020
C                    -0.616793007356     3.749142658587     5.655172141630
C                     5.009838146629    -2.052509640285    -0.310588440353
C                     1.815213524218    -0.339103381896     2.318830957019
C                     3.820404514041    -4.107414791717    -0.017067108067
C                    -1.880104080764     1.750513810142     5.075935650557
C                     6.018900478102    -2.797558269836    -0.919714738864
C                     2.743404073299    -1.983197040837     0.782240447484
C                     3.873277286796    -2.720342980258     0.163183461268
C                     2.907174460886    -1.079425839819     1.854397323925
C                    -1.984760992332     2.187126925072     3.746834276467
C                     0.540745685967    -0.487101743263     1.754760446674
C                    -1.202842967231     2.532893076683     6.012253874750
C                     4.884721026844    -4.775281792653    -0.636895698158
C                     4.189592842763    -0.922807234608     2.560808269943
C                    -1.821585145925     0.340708011244     1.938757791747
C                    -4.093369618905     0.861544246051     2.972996416948
C                    -3.832974155578     1.908899502104     1.933310891341
C                    -2.663067003310     1.328460646323     2.720863695925
C                     4.873036873409    -6.272072513750    -0.824780643609
N                     5.973971597215    -4.125496448916    -1.085606105754
N                     5.049418696949    -1.948017847882     2.850522590248
N                     4.624641577563     0.242377000471     3.055847496738
N                     6.041960211157    -1.429846179083     3.530563328791
N                     5.762836758878    -0.131774650647     3.638121745464
N                    -0.492046962506     0.309025033910     2.288477405133
O                    -2.316398017167    -0.369322670940     1.064434752159
Cl                   -1.085696917855     1.974992306939     7.673094182622
H                    -0.269040536166     5.125275265829     4.039293364879
H                     1.316494023385    -2.816907433457    -0.585235143390
H                    -1.472900841293     3.747685537387     2.352397530051
H                    -0.619980977252    -1.539167375005     0.271866189010
H                    -0.096038948478     4.344086065917     6.398630191489
H                     5.103632515883    -0.974138376562    -0.219998604242
H                     1.964652602292     0.345159846823     3.150435605349
H                     2.966096713428    -4.670858835622     0.347948526055
H                    -2.325762511716     0.806416326403     5.374535216070
H                     6.910203385602    -2.299467981873    -1.299799773581
H                    -4.544035182833     1.170289800309     3.911077849024
H                    -4.338721320273    -0.137013944249     2.628081081748
H                    -3.903761783583     1.610971753519     0.892881755334
H                    -4.104156875177     2.935192261607     2.160300418671
H                     5.040365755483    -6.521711905218    -1.877014860627
H                     5.686164415702    -6.728743519339    -0.250840210978
H                     3.927605307463    -6.715476686827    -0.501435386448
H                     6.376834080695     0.517501936829     4.117833555439
H                    -0.211247325537     0.944266862780     3.025575893234
