
  -OEChem-05262117483D

 57 60  0     1  0  0  0  0  0999 V2000
    3.8810    4.1804    8.7197 C   0  0  0  0  0  0  0  0  0  0  0  0
    3.9126    6.1185    7.2710 C   0  0  0  0  0  0  0  0  0  0  0  0
    0.9928    0.8058   -2.4738 C   0  0  0  0  0  0  0  0  0  0  0  0
    3.5334    3.3798    7.6430 C   0  0  0  0  0  0  0  0  0  0  0  0
    3.5625    5.3194    6.1806 C   0  0  0  0  0  0  0  0  0  0  0  0
    1.2715    0.7610   -1.1104 C   0  0  0  0  0  0  0  0  0  0  0  0
    1.3849    4.2926   -3.3902 C   0  0  0  0  0  0  0  0  0  0  0  0
    1.6992    3.1691   -1.0443 C   0  0  0  0  0  0  0  0  0  0  0  0
    1.0376    3.7269   -4.6061 C   0  0  0  0  0  0  0  0  0  0  0  0
    4.9527    8.2167   10.7573 C   0  0  0  0  0  0  0  0  0  0  0  0
    1.4163    3.2330   -2.4275 C   0  0  0  0  0  0  0  0  0  0  0  0
    4.0761    5.5662    8.5491 C   0  0  0  0  0  0  0  0  0  0  0  0
    1.0707    2.0398   -3.1330 C   0  0  0  0  0  0  0  0  0  0  0  0
    3.3698    3.9405    6.3615 C   0  0  0  0  0  0  0  0  0  0  0  0
    1.6229    1.9344   -0.4054 C   0  0  0  0  0  0  0  0  0  0  0  0
    4.9508    7.1747   11.6337 C   0  0  0  0  0  0  0  0  0  0  0  0
    4.4402    6.3864    9.6959 C   0  0  0  0  0  0  0  0  0  0  0  0
    0.7685    1.7170   -6.9721 C   0  0  0  0  0  0  0  0  0  0  0  0
    6.4766    6.2892   13.4386 C   0  0  0  0  0  0  0  0  0  0  0  0
   -1.1501    1.2746   -5.3821 C   0  0  0  0  0  0  0  0  0  0  0  0
    5.2508    7.1540   13.1007 C   0  0  0  0  0  0  0  0  0  0  0  0
    2.4554    2.4179    3.1478 C   0  0  0  0  0  0  0  0  0  0  0  0
    2.8389    3.5824    4.0462 C   0  0  0  0  0  0  0  0  0  0  0  0
    2.2323    2.8787    1.7115 C   0  0  0  0  0  0  0  0  0  0  0  0
    0.3777    1.4089   -5.4759 C   0  0  2  0  0  0  0  0  0  0  0  0
    4.6224    6.0124   10.9363 N   0  0  0  0  0  0  0  0  0  0  0  0
    0.8585    2.3686   -4.4620 N   0  0  0  0  0  0  0  0  0  0  0  0
    0.8206    2.9281   -7.3211 O   0  5  0  0  0  0  0  0  0  0  0  0
    0.9091    0.6734   -7.6576 O   0  0  0  0  0  0  0  0  0  0  0  0
    4.6262    7.7306    9.5077 O   0  0  0  0  0  0  0  0  0  0  0  0
    3.0273    3.0702    5.3739 O   0  0  0  0  0  0  0  0  0  0  0  0
    1.8760    1.7412    0.9514 O   0  0  0  0  0  0  0  0  0  0  0  0
    4.0068    3.7499    9.7083 H   0  0  0  0  0  0  0  0  0  0  0  0
    4.0598    7.1841    7.1245 H   0  0  0  0  0  0  0  0  0  0  0  0
    0.7220   -0.1017   -3.0055 H   0  0  0  0  0  0  0  0  0  0  0  0
    3.3801    2.3113    7.7622 H   0  0  0  0  0  0  0  0  0  0  0  0
    3.4440    5.7770    5.2056 H   0  0  0  0  0  0  0  0  0  0  0  0
    1.2246   -0.1752   -0.5613 H   0  0  0  0  0  0  0  0  0  0  0  0
    1.6039    5.3399   -3.2206 H   0  0  0  0  0  0  0  0  0  0  0  0
    1.9669    4.0748   -0.5097 H   0  0  0  0  0  0  0  0  0  0  0  0
    0.9216    4.1449   -5.5968 H   0  0  0  0  0  0  0  0  0  0  0  0
    5.1415    9.2771   10.8302 H   0  0  0  0  0  0  0  0  0  0  0  0
    6.3299    5.2649   13.0848 H   0  0  0  0  0  0  0  0  0  0  0  0
    6.6470    6.2613   14.5202 H   0  0  0  0  0  0  0  0  0  0  0  0
    7.3779    6.6853   12.9589 H   0  0  0  0  0  0  0  0  0  0  0  0
   -1.6228    2.2221   -5.6616 H   0  0  0  0  0  0  0  0  0  0  0  0
   -1.4727    1.0104   -4.3673 H   0  0  0  0  0  0  0  0  0  0  0  0
   -1.4863    0.4999   -6.0777 H   0  0  0  0  0  0  0  0  0  0  0  0
    5.4039    8.1811   13.4498 H   0  0  0  0  0  0  0  0  0  0  0  0
    4.3747    6.7637   13.6326 H   0  0  0  0  0  0  0  0  0  0  0  0
    3.2465    1.6617    3.1692 H   0  0  0  0  0  0  0  0  0  0  0  0
    1.5413    1.9493    3.5256 H   0  0  0  0  0  0  0  0  0  0  0  0
    3.7685    4.0549    3.7016 H   0  0  0  0  0  0  0  0  0  0  0  0
    2.0489    4.3452    4.0579 H   0  0  0  0  0  0  0  0  0  0  0  0
    3.1469    3.3403    1.3077 H   0  0  0  0  0  0  0  0  0  0  0  0
    1.4333    3.6354    1.6692 H   0  0  0  0  0  0  0  0  0  0  0  0
    0.8409    0.4506   -5.2325 H   0  0  0  0  0  0  0  0  0  0  0  0
  1  4  1  0  0  0  0
  1 12  2  0  0  0  0
  1 33  1  0  0  0  0
  2  5  2  0  0  0  0
  2 12  1  0  0  0  0
  2 34  1  0  0  0  0
  3  6  2  0  0  0  0
  3 13  1  0  0  0  0
  3 35  1  0  0  0  0
  4 14  2  0  0  0  0
  4 36  1  0  0  0  0
  5 14  1  0  0  0  0
  5 37  1  0  0  0  0
  6 15  1  0  0  0  0
  6 38  1  0  0  0  0
  7  9  2  0  0  0  0
  7 11  1  0  0  0  0
  7 39  1  0  0  0  0
  8 11  1  0  0  0  0
  8 15  2  0  0  0  0
  8 40  1  0  0  0  0
  9 27  1  0  0  0  0
  9 41  1  0  0  0  0
 10 16  2  0  0  0  0
 10 30  1  0  0  0  0
 10 42  1  0  0  0  0
 11 13  2  0  0  0  0
 12 17  1  0  0  0  0
 13 27  1  0  0  0  0
 14 31  1  0  0  0  0
 15 32  1  0  0  0  0
 16 21  1  0  0  0  0
 16 26  1  0  0  0  0
 17 26  2  0  0  0  0
 17 30  1  0  0  0  0
 18 25  1  0  0  0  0
 18 28  1  0  0  0  0
 18 29  2  0  0  0  0
 19 21  1  0  0  0  0
 19 43  1  0  0  0  0
 19 44  1  0  0  0  0
 19 45  1  0  0  0  0
 20 25  1  0  0  0  0
 20 46  1  0  0  0  0
 20 47  1  0  0  0  0
 20 48  1  0  0  0  0
 21 49  1  0  0  0  0
 21 50  1  0  0  0  0
 22 23  1  0  0  0  0
 22 24  1  0  0  0  0
 22 51  1  0  0  0  0
 22 52  1  0  0  0  0
 23 31  1  0  0  0  0
 23 53  1  0  0  0  0
 23 54  1  0  0  0  0
 24 32  1  0  0  0  0
 24 55  1  0  0  0  0
 24 56  1  0  0  0  0
 25 27  1  0  0  0  0
 25 57  1  0  0  0  0
M  CHG  1  28  -1
M  END
$$$$
