
  -OEChem-05262117483D

 49 52  0     1  0  0  0  0  0999 V2000
    4.0844   -5.9050    3.2783 C   0  0  0  0  0  0  0  0  0  0  0  0
    2.6890   -5.9060    3.3343 C   0  0  0  0  0  0  0  0  0  0  0  0
    4.7519   -5.2237    2.2583 C   0  0  0  0  0  0  0  0  0  0  0  0
    6.7051   -0.4172    2.2319 C   0  0  0  0  0  0  0  0  0  0  0  0
    2.6269   -4.5543    1.3373 C   0  0  0  0  0  0  0  0  0  0  0  0
    5.0338    1.6756    3.1083 C   0  0  0  0  0  0  0  0  0  0  0  0
   -0.4061   -6.1047    3.0900 C   0  0  0  0  0  0  0  0  0  0  0  0
   -0.3928   -4.2829    1.8295 C   0  0  0  0  0  0  0  0  0  0  0  0
    5.3229   -0.4435    1.9143 C   0  0  0  0  0  0  0  0  0  0  0  0
    1.9371   -5.2263    2.3613 C   0  0  0  0  0  0  0  0  0  0  0  0
    0.4697   -5.2028    2.4197 C   0  0  0  0  0  0  0  0  0  0  0  0
    4.0207   -4.5405    1.2753 C   0  0  0  0  0  0  0  0  0  0  0  0
    4.4794    0.6126    2.3468 C   0  0  0  0  0  0  0  0  0  0  0  0
    7.2279    0.6195    2.9713 C   0  0  0  0  0  0  0  0  0  0  0  0
    6.3772    1.6769    3.4166 C   0  0  0  0  0  0  0  0  0  0  0  0
    4.6710   -1.4853    1.1635 C   0  0  0  0  0  0  0  0  0  0  0  0
    2.6698   -0.3573    1.3434 C   0  0  0  0  0  0  0  0  0  0  0  0
    1.1973   -0.3700    1.0237 C   0  0  0  0  0  0  0  0  0  0  0  0
    5.7405   -4.5894   -0.6085 C   0  0  0  0  0  0  0  0  0  0  0  0
    6.2780    3.7421    4.6293 C   0  0  0  0  0  0  0  0  0  0  0  0
    4.7179   -3.7577    0.1694 C   0  0  2  0  0  0  0  0  0  0  0  0
   -1.6898   -5.7784    2.9304 N   0  0  0  0  0  0  0  0  0  0  0  0
    3.1403    0.6491    2.0559 N   0  0  0  0  0  0  0  0  0  0  0  0
    3.3740   -1.4260    0.8824 N   0  0  0  0  0  0  0  0  0  0  0  0
   -1.6554   -4.6652    2.1616 N   0  0  0  0  0  0  0  0  0  0  0  0
    5.3858   -2.5558    0.6914 N   0  0  0  0  0  0  0  0  0  0  0  0
    8.5599    0.6493    3.2805 O   0  0  0  0  0  0  0  0  0  0  0  0
    7.0389    2.6353    4.1409 O   0  0  0  0  0  0  0  0  0  0  0  0
    4.6534   -6.4316    4.0405 H   0  0  0  0  0  0  0  0  0  0  0  0
    2.1840   -6.4172    4.1494 H   0  0  0  0  0  0  0  0  0  0  0  0
    5.8394   -5.2284    2.2342 H   0  0  0  0  0  0  0  0  0  0  0  0
    7.3934   -1.1878    1.8978 H   0  0  0  0  0  0  0  0  0  0  0  0
    2.0693   -4.0173    0.5757 H   0  0  0  0  0  0  0  0  0  0  0  0
    4.3622    2.4647    3.4257 H   0  0  0  0  0  0  0  0  0  0  0  0
   -0.1514   -6.9866    3.6646 H   0  0  0  0  0  0  0  0  0  0  0  0
   -0.2009   -3.4011    1.2337 H   0  0  0  0  0  0  0  0  0  0  0  0
    1.0372   -0.5945   -0.0353 H   0  0  0  0  0  0  0  0  0  0  0  0
    0.7033   -1.1567    1.6066 H   0  0  0  0  0  0  0  0  0  0  0  0
    0.7430    0.5894    1.2750 H   0  0  0  0  0  0  0  0  0  0  0  0
    6.5669   -4.9195    0.0314 H   0  0  0  0  0  0  0  0  0  0  0  0
    5.2643   -5.4846   -1.0172 H   0  0  0  0  0  0  0  0  0  0  0  0
    6.1597   -4.0028   -1.4315 H   0  0  0  0  0  0  0  0  0  0  0  0
    6.9822    4.3757    5.1691 H   0  0  0  0  0  0  0  0  0  0  0  0
    5.4896    3.4016    5.3094 H   0  0  0  0  0  0  0  0  0  0  0  0
    5.8342    4.3045    3.8004 H   0  0  0  0  0  0  0  0  0  0  0  0
    3.9532   -3.4015   -0.5224 H   0  0  0  0  0  0  0  0  0  0  0  0
   -2.5252   -4.2158    1.9099 H   0  0  0  0  0  0  0  0  0  0  0  0
    6.2791   -2.7213    1.1358 H   0  0  0  0  0  0  0  0  0  0  0  0
    8.7207    1.4587    3.7975 H   0  0  0  0  0  0  0  0  0  0  0  0
  1  2  1  0  0  0  0
  1  3  2  0  0  0  0
  1 29  1  0  0  0  0
  2 10  2  0  0  0  0
  2 30  1  0  0  0  0
  3 12  1  0  0  0  0
  3 31  1  0  0  0  0
  4  9  1  0  0  0  0
  4 14  2  0  0  0  0
  4 32  1  0  0  0  0
  5 10  1  0  0  0  0
  5 12  2  0  0  0  0
  5 33  1  0  0  0  0
  6 13  1  0  0  0  0
  6 15  2  0  0  0  0
  6 34  1  0  0  0  0
  7 11  1  0  0  0  0
  7 22  2  0  0  0  0
  7 35  1  0  0  0  0
  8 11  2  0  0  0  0
  8 25  1  0  0  0  0
  8 36  1  0  0  0  0
  9 13  2  0  0  0  0
  9 16  1  0  0  0  0
 10 11  1  0  0  0  0
 12 21  1  0  0  0  0
 13 23  1  0  0  0  0
 14 15  1  0  0  0  0
 14 27  1  0  0  0  0
 15 28  1  0  0  0  0
 16 24  2  0  0  0  0
 16 26  1  0  0  0  0
 17 18  1  0  0  0  0
 17 23  2  0  0  0  0
 17 24  1  0  0  0  0
 18 37  1  0  0  0  0
 18 38  1  0  0  0  0
 18 39  1  0  0  0  0
 19 21  1  0  0  0  0
 19 40  1  0  0  0  0
 19 41  1  0  0  0  0
 19 42  1  0  0  0  0
 20 28  1  0  0  0  0
 20 43  1  0  0  0  0
 20 44  1  0  0  0  0
 20 45  1  0  0  0  0
 21 26  1  0  0  0  0
 21 46  1  0  0  0  0
 22 25  1  0  0  0  0
 25 47  1  0  0  0  0
 26 48  1  0  0  0  0
 27 49  1  0  0  0  0
M  END
$$$$
