
  -OEChem-05262117483D

 41 43  0     1  0  0  0  0  0999 V2000
    8.5552    3.0043    2.8320 C   0  0  0  0  0  0  0  0  0  0  0  0
    6.0131   -2.2975    7.1766 C   0  0  0  0  0  0  0  0  0  0  0  0
    4.7177   -1.7681    7.0969 C   0  0  0  0  0  0  0  0  0  0  0  0
    6.7626   -2.5329    6.0146 C   0  0  0  0  0  0  0  0  0  0  0  0
    4.1393   -1.4637    5.8570 C   0  0  0  0  0  0  0  0  0  0  0  0
    6.1250    1.3016    4.8716 C   0  0  0  0  0  0  0  0  0  0  0  0
    7.4740    2.2920    3.4080 C   0  0  0  0  0  0  0  0  0  0  0  0
    6.2066   -2.2167    4.7764 C   0  0  0  0  0  0  0  0  0  0  0  0
    4.9115   -1.6863    4.7192 C   0  0  0  0  0  0  0  0  0  0  0  0
    5.5994    1.1127    3.6136 C   0  0  0  0  0  0  0  0  0  0  0  0
    6.7853   -2.3359    3.3824 C   0  0  0  0  0  0  0  0  0  0  0  0
    5.5488   -2.1164    2.4828 C   0  0  0  0  0  0  0  0  0  0  0  0
    9.3415    0.1665    6.7070 C   0  0  0  0  0  0  0  0  0  0  0  0
   10.7561    1.7453    5.3271 C   0  0  0  0  0  0  0  0  0  0  0  0
    9.4591    3.5495    2.3412 N   0  0  0  0  0  0  0  0  0  0  0  0
    7.2838    2.0276    4.7201 N   0  0  0  0  0  0  0  0  0  0  0  0
    6.4524    1.7285    2.7257 N   0  3  0  0  0  0  0  0  0  0  0  0
    4.5451   -1.4130    3.3501 N   0  0  2  0  0  0  0  0  0  0  0  0
    9.6040    1.5426    6.2346 N   0  0  0  0  0  0  0  0  0  0  0  0
    3.0502    0.5708    3.8372 O   0  0  0  0  0  0  0  0  0  0  0  0
    4.2362    0.3778    1.5625 O   0  0  0  0  0  0  0  0  0  0  0  0
    8.8141    3.8941    5.7635 O   0  0  0  0  0  0  0  0  0  0  0  0
    7.4439    2.3207    7.2769 O   0  0  0  0  0  0  0  0  0  0  0  0
    4.1691    0.1774    3.0062 S   0  0  0  0  0  0  0  0  0  0  0  0
    8.3871    2.5965    6.2207 S   0  0  0  0  0  0  0  0  0  0  0  0
    6.4287   -2.5523    8.1474 H   0  0  0  0  0  0  0  0  0  0  0  0
    4.1421   -1.6122    8.0044 H   0  0  0  0  0  0  0  0  0  0  0  0
    7.7540   -2.9750    6.0807 H   0  0  0  0  0  0  0  0  0  0  0  0
    3.1332   -1.0657    5.7827 H   0  0  0  0  0  0  0  0  0  0  0  0
    5.7588    0.9968    5.8416 H   0  0  0  0  0  0  0  0  0  0  0  0
    7.5578   -1.5742    3.2102 H   0  0  0  0  0  0  0  0  0  0  0  0
    7.2435   -3.3099    3.1958 H   0  0  0  0  0  0  0  0  0  0  0  0
    5.7325   -1.5478    1.5721 H   0  0  0  0  0  0  0  0  0  0  0  0
    5.0919   -3.0672    2.2020 H   0  0  0  0  0  0  0  0  0  0  0  0
    8.5883    0.1769    7.4925 H   0  0  0  0  0  0  0  0  0  0  0  0
   10.2765   -0.2174    7.1183 H   0  0  0  0  0  0  0  0  0  0  0  0
    9.0130   -0.4725    5.8805 H   0  0  0  0  0  0  0  0  0  0  0  0
   10.8755    2.8030    5.1016 H   0  0  0  0  0  0  0  0  0  0  0  0
   10.6266    1.1734    4.4028 H   0  0  0  0  0  0  0  0  0  0  0  0
   11.6457    1.3935    5.8526 H   0  0  0  0  0  0  0  0  0  0  0  0
    6.2862    1.7766    1.7183 H   0  0  0  0  0  0  0  0  0  0  0  0
  1  7  1  0  0  0  0
  1 15  3  0  0  0  0
  2  3  1  0  0  0  0
  2  4  2  0  0  0  0
  2 26  1  0  0  0  0
  3  5  2  0  0  0  0
  3 27  1  0  0  0  0
  4  8  1  0  0  0  0
  4 28  1  0  0  0  0
  5  9  1  0  0  0  0
  5 29  1  0  0  0  0
  6 10  2  0  0  0  0
  6 16  1  0  0  0  0
  6 30  1  0  0  0  0
  7 16  1  0  0  0  0
  7 17  2  0  0  0  0
  8  9  2  0  0  0  0
  8 11  1  0  0  0  0
  9 18  1  0  0  0  0
 10 17  1  0  0  0  0
 10 24  1  0  0  0  0
 11 12  1  0  0  0  0
 11 31  1  0  0  0  0
 11 32  1  0  0  0  0
 12 18  1  0  0  0  0
 12 33  1  0  0  0  0
 12 34  1  0  0  0  0
 13 19  1  0  0  0  0
 13 35  1  0  0  0  0
 13 36  1  0  0  0  0
 13 37  1  0  0  0  0
 14 19  1  0  0  0  0
 14 38  1  0  0  0  0
 14 39  1  0  0  0  0
 14 40  1  0  0  0  0
 16 25  1  0  0  0  0
 17 41  1  0  0  0  0
 18 24  1  0  0  0  0
 19 25  1  0  0  0  0
 20 24  2  0  0  0  0
 21 24  2  0  0  0  0
 22 25  2  0  0  0  0
 23 25  2  0  0  0  0
M  CHG  1  17   1
M  END
$$$$
