
  -OEChem-05262117483D

 40 40  0     1  0  0  0  0  0999 V2000
    8.9231   -1.7353   -1.2945 C   0  0  0  0  0  0  0  0  0  0  0  0
    7.3133   -1.3552    0.3934 C   0  0  0  0  0  0  0  0  0  0  0  0
   10.0222   -1.7189   -2.3303 C   0  0  0  0  0  0  0  0  0  0  0  0
    7.3687   -1.6279    8.1574 C   0  0  0  0  0  0  0  0  0  0  0  0
   11.1907    2.0574   -3.7912 C   0  0  0  0  0  0  0  0  0  0  0  0
   12.7486    0.4099   -2.6558 C   0  0  0  0  0  0  0  0  0  0  0  0
    6.6024   -1.0970    6.9411 C   0  0  0  0  0  0  0  0  0  0  0  0
    7.2300   -1.5265    5.6095 C   0  0  0  0  0  0  0  0  0  0  0  0
    6.4647   -0.9902    4.3919 C   0  0  0  0  0  0  0  0  0  0  0  0
   10.9497   -0.4355   -4.2406 C   0  0  0  0  0  0  0  0  0  0  0  0
    7.1143   -1.4273    3.0819 C   0  0  0  0  0  0  0  0  0  0  0  0
   11.9214    0.7129   -3.9118 C   0  0  0  0  0  0  0  0  0  0  0  0
    8.3188   -2.8338   -0.9236 N   0  0  0  0  0  0  0  0  0  0  0  0
    7.3773   -2.6064    0.0473 N   0  0  0  0  0  0  0  0  0  0  0  0
    9.9519   -0.6656   -3.1964 N   0  0  0  0  0  0  0  0  0  0  0  0
   10.8937   -2.5780   -2.3420 O   0  0  0  0  0  0  0  0  0  0  0  0
    6.4595    0.8022    1.6759 O   0  0  0  0  0  0  0  0  0  0  0  0
    8.3970   -0.2879   -0.4553 S   0  0  0  0  0  0  0  0  0  0  0  0
    6.1894   -0.6905    1.6590 S   0  0  1  0  0  0  0  0  0  0  0  0
    7.4000   -2.7235    8.1581 H   0  0  0  0  0  0  0  0  0  0  0  0
    8.4036   -1.2669    8.1611 H   0  0  0  0  0  0  0  0  0  0  0  0
    6.9004   -1.3070    9.0938 H   0  0  0  0  0  0  0  0  0  0  0  0
   10.5119    2.0635   -2.9297 H   0  0  0  0  0  0  0  0  0  0  0  0
   11.9019    2.8768   -3.6455 H   0  0  0  0  0  0  0  0  0  0  0  0
   10.6034    2.2813   -4.6896 H   0  0  0  0  0  0  0  0  0  0  0  0
   12.1073    0.3484   -1.7697 H   0  0  0  0  0  0  0  0  0  0  0  0
   13.4848    1.2006   -2.4775 H   0  0  0  0  0  0  0  0  0  0  0  0
   13.2796   -0.5424   -2.7457 H   0  0  0  0  0  0  0  0  0  0  0  0
    6.5594   -0.0011    6.9825 H   0  0  0  0  0  0  0  0  0  0  0  0
    5.5626   -1.4466    6.9805 H   0  0  0  0  0  0  0  0  0  0  0  0
    7.2735   -2.6229    5.5636 H   0  0  0  0  0  0  0  0  0  0  0  0
    8.2695   -1.1748    5.5681 H   0  0  0  0  0  0  0  0  0  0  0  0
    6.4327    0.1042    4.4290 H   0  0  0  0  0  0  0  0  0  0  0  0
    5.4264   -1.3438    4.4260 H   0  0  0  0  0  0  0  0  0  0  0  0
   10.4215   -0.2254   -5.1773 H   0  0  0  0  0  0  0  0  0  0  0  0
   11.4965   -1.3723   -4.3641 H   0  0  0  0  0  0  0  0  0  0  0  0
    7.0883   -2.5116    2.9346 H   0  0  0  0  0  0  0  0  0  0  0  0
    8.1453   -1.0701    2.9979 H   0  0  0  0  0  0  0  0  0  0  0  0
   12.6054    0.7726   -4.7694 H   0  0  0  0  0  0  0  0  0  0  0  0
    9.1364   -0.0681   -3.1675 H   0  0  0  0  0  0  0  0  0  0  0  0
  1  3  1  0  0  0  0
  1 13  2  0  0  0  0
  1 18  1  0  0  0  0
  2 14  2  0  0  0  0
  2 18  1  0  0  0  0
  2 19  1  0  0  0  0
  3 15  1  0  0  0  0
  3 16  2  0  0  0  0
  4  7  1  0  0  0  0
  4 20  1  0  0  0  0
  4 21  1  0  0  0  0
  4 22  1  0  0  0  0
  5 12  1  0  0  0  0
  5 23  1  0  0  0  0
  5 24  1  0  0  0  0
  5 25  1  0  0  0  0
  6 12  1  0  0  0  0
  6 26  1  0  0  0  0
  6 27  1  0  0  0  0
  6 28  1  0  0  0  0
  7  8  1  0  0  0  0
  7 29  1  0  0  0  0
  7 30  1  0  0  0  0
  8  9  1  0  0  0  0
  8 31  1  0  0  0  0
  8 32  1  0  0  0  0
  9 11  1  0  0  0  0
  9 33  1  0  0  0  0
  9 34  1  0  0  0  0
 10 12  1  0  0  0  0
 10 15  1  0  0  0  0
 10 35  1  0  0  0  0
 10 36  1  0  0  0  0
 11 19  1  0  0  0  0
 11 37  1  0  0  0  0
 11 38  1  0  0  0  0
 12 39  1  0  0  0  0
 13 14  1  0  0  0  0
 15 40  1  0  0  0  0
 17 19  2  0  0  0  0
M  END
$$$$
