
  -OEChem-05262117483D

 22 23  0     0  0  0  0  0  0999 V2000
   -2.8513   -2.7929    4.0008 C   0  0  0  0  0  0  0  0  0  0  0  0
   -1.5859   -3.1109    3.5048 C   0  0  0  0  0  0  0  0  0  0  0  0
   -3.3644   -1.5046    3.8448 C   0  0  0  0  0  0  0  0  0  0  0  0
   -1.3352   -0.8361    2.6392 C   0  0  0  0  0  0  0  0  0  0  0  0
   -0.8317   -2.1353    2.8533 C   0  0  0  0  0  0  0  0  0  0  0  0
   -2.6113   -0.5509    3.1621 C   0  0  0  0  0  0  0  0  0  0  0  0
   -0.2104    0.0985    0.6609 C   0  0  0  0  0  0  0  0  0  0  0  0
    0.5286    0.5481   -1.3555 C   0  0  0  0  0  0  0  0  0  0  0  0
    0.0421   -0.9214   -1.3089 C   0  0  0  0  0  0  0  0  0  0  0  0
    0.4439    1.0065    0.0406 N   0  0  0  0  0  0  0  0  0  0  0  0
   -0.5784    0.1552    1.9893 N   0  0  0  0  0  0  0  0  0  0  0  0
   -0.6119   -1.0198   -0.0124 O   0  0  0  0  0  0  0  0  0  0  0  0
    0.7906   -2.5391    2.3415 Cl  0  0  0  0  0  0  0  0  0  0  0  0
   -3.2773    1.0602    2.9505 Cl  0  0  0  0  0  0  0  0  0  0  0  0
   -3.4345   -3.5482    4.5191 H   0  0  0  0  0  0  0  0  0  0  0  0
   -1.1680   -4.1028    3.6414 H   0  0  0  0  0  0  0  0  0  0  0  0
   -4.3428   -1.2403    4.2318 H   0  0  0  0  0  0  0  0  0  0  0  0
    1.5548    0.6291   -1.7262 H   0  0  0  0  0  0  0  0  0  0  0  0
   -0.1074    1.1735   -1.9948 H   0  0  0  0  0  0  0  0  0  0  0  0
   -0.6922   -1.1855   -2.0717 H   0  0  0  0  0  0  0  0  0  0  0  0
    0.8641   -1.6439   -1.3201 H   0  0  0  0  0  0  0  0  0  0  0  0
   -0.6565    1.1022    2.3392 H   0  0  0  0  0  0  0  0  0  0  0  0
  1  2  1  0  0  0  0
  1  3  2  0  0  0  0
  1 15  1  0  0  0  0
  2  5  2  0  0  0  0
  2 16  1  0  0  0  0
  3  6  1  0  0  0  0
  3 17  1  0  0  0  0
  4  5  1  0  0  0  0
  4  6  2  0  0  0  0
  4 11  1  0  0  0  0
  5 13  1  0  0  0  0
  6 14  1  0  0  0  0
  7 10  2  0  0  0  0
  7 11  1  0  0  0  0
  7 12  1  0  0  0  0
  8  9  1  0  0  0  0
  8 10  1  0  0  0  0
  8 18  1  0  0  0  0
  8 19  1  0  0  0  0
  9 12  1  0  0  0  0
  9 20  1  0  0  0  0
  9 21  1  0  0  0  0
 11 22  1  0  0  0  0
M  END
$$$$
