
  -OEChem-05262117483D

 75 79  0     1  0  0  0  0  0999 V2000
    3.3930   -0.2024   -4.5862 C   0  0  0  0  0  0  0  0  0  0  0  0
    5.9319  -18.7066   -1.1823 C   0  0  0  0  0  0  0  0  0  0  0  0
    3.8616   -0.7555   -3.3888 C   0  0  0  0  0  0  0  0  0  0  0  0
    2.1408    0.4203   -4.6102 C   0  0  0  0  0  0  0  0  0  0  0  0
    7.0028  -17.8448   -0.9242 C   0  0  0  0  0  0  0  0  0  0  0  0
    4.6189  -18.2462   -1.0324 C   0  0  0  0  0  0  0  0  0  0  0  0
    3.0826   -0.6949   -2.2332 C   0  0  0  0  0  0  0  0  0  0  0  0
    1.3672    0.4885   -3.4488 C   0  0  0  0  0  0  0  0  0  0  0  0
    1.6923   -3.3436    0.3374 C   0  0  0  0  0  0  0  0  0  0  0  0
    0.8116   -2.9870   -1.8698 C   0  0  0  0  0  0  0  0  0  0  0  0
   -0.9251   -1.7549    1.5277 C   0  0  0  0  0  0  0  0  0  0  0  0
    6.7587  -16.5303   -0.5162 C   0  0  0  0  0  0  0  0  0  0  0  0
    4.3747  -16.9340   -0.6211 C   0  0  0  0  0  0  0  0  0  0  0  0
    2.0345   -4.6584    0.0033 C   0  0  0  0  0  0  0  0  0  0  0  0
    1.1359   -4.2920   -2.2164 C   0  0  0  0  0  0  0  0  0  0  0  0
   -1.5668   -1.5990    2.7558 C   0  0  0  0  0  0  0  0  0  0  0  0
   -0.1216    0.2852    3.2358 C   0  0  0  0  0  0  0  0  0  0  0  0
    1.0943   -2.4770   -0.5875 C   0  0  0  0  0  0  0  0  0  0  0  0
    1.8172   -0.0794   -2.2434 C   0  0  0  0  0  0  0  0  0  0  0  0
    0.1056   -0.8944    1.1192 C   0  0  0  0  0  0  0  0  0  0  0  0
    0.5182    0.1341    2.0032 C   0  0  0  0  0  0  0  0  0  0  0  0
    5.4453  -16.0650   -0.3547 C   0  0  0  0  0  0  0  0  0  0  0  0
    1.7587   -5.1381   -1.2842 C   0  0  0  0  0  0  0  0  0  0  0  0
   -1.1631   -0.5685    3.6129 C   0  0  0  0  0  0  0  0  0  0  0  0
    0.7556   -1.0803   -0.2064 C   0  0  0  0  0  0  0  0  0  0  0  0
    0.9974   -0.0054   -1.0070 C   0  0  0  0  0  0  0  0  0  0  0  0
    1.6644    1.0439    1.6242 C   0  0  0  0  0  0  0  0  0  0  0  0
    0.4678    1.3605   -0.6083 C   0  0  0  0  0  0  0  0  0  0  0  0
    1.3139    2.0318    0.4923 C   0  0  0  0  0  0  0  0  0  0  0  0
    5.1804  -14.6463    0.0548 C   0  0  0  0  0  0  0  0  0  0  0  0
    3.5739   -9.6714   -0.6551 C   0  0  0  0  0  0  0  0  0  0  0  0
    2.8955   -8.6233   -1.5444 C   0  0  0  0  0  0  0  0  0  0  0  0
    3.7992  -11.0001   -1.3883 C   0  0  0  0  0  0  0  0  0  0  0  0
    2.6778   -7.3064   -0.8141 C   0  0  0  0  0  0  0  0  0  0  0  0
    4.4656  -12.0449   -0.4959 C   0  0  0  0  0  0  0  0  0  0  0  0
    3.1848  -14.0894   -1.6912 O   0  0  0  0  0  0  0  0  0  0  0  0
   -1.7449   -0.3550    4.8410 O   0  0  0  0  0  0  0  0  0  0  0  0
    2.0450   -6.4035   -1.7225 O   0  0  0  0  0  0  0  0  0  0  0  0
    4.6127  -13.6423   -1.4111 S   0  0  2  0  0  0  0  0  0  0  0  0
    3.9977   -0.2531   -5.4881 H   0  0  0  0  0  0  0  0  0  0  0  0
    6.1191  -19.7294   -1.4990 H   0  0  0  0  0  0  0  0  0  0  0  0
    4.8368   -1.2350   -3.3559 H   0  0  0  0  0  0  0  0  0  0  0  0
    1.7646    0.8517   -5.5347 H   0  0  0  0  0  0  0  0  0  0  0  0
    8.0254  -18.1951   -1.0389 H   0  0  0  0  0  0  0  0  0  0  0  0
    3.7833  -18.9097   -1.2396 H   0  0  0  0  0  0  0  0  0  0  0  0
    3.4495   -1.1320   -1.3095 H   0  0  0  0  0  0  0  0  0  0  0  0
    0.3900    0.9638   -3.4860 H   0  0  0  0  0  0  0  0  0  0  0  0
    1.9032   -2.9847    1.3413 H   0  0  0  0  0  0  0  0  0  0  0  0
    0.3307   -2.3471   -2.6027 H   0  0  0  0  0  0  0  0  0  0  0  0
   -1.2326   -2.5599    0.8663 H   0  0  0  0  0  0  0  0  0  0  0  0
    7.5951  -15.8632   -0.3172 H   0  0  0  0  0  0  0  0  0  0  0  0
    3.3565  -16.5679   -0.5271 H   0  0  0  0  0  0  0  0  0  0  0  0
    2.5058   -5.2886    0.7490 H   0  0  0  0  0  0  0  0  0  0  0  0
    0.9135   -4.6820   -3.2055 H   0  0  0  0  0  0  0  0  0  0  0  0
   -2.3716   -2.2737    3.0443 H   0  0  0  0  0  0  0  0  0  0  0  0
    0.1875    1.0644    3.9275 H   0  0  0  0  0  0  0  0  0  0  0  0
    2.0118    1.5956    2.5032 H   0  0  0  0  0  0  0  0  0  0  0  0
    2.5004    0.4213    1.2861 H   0  0  0  0  0  0  0  0  0  0  0  0
    0.4295    2.0222   -1.4778 H   0  0  0  0  0  0  0  0  0  0  0  0
   -0.5571    1.2537   -0.2373 H   0  0  0  0  0  0  0  0  0  0  0  0
    0.7508    2.8835    0.8926 H   0  0  0  0  0  0  0  0  0  0  0  0
    2.2445    2.4291    0.0704 H   0  0  0  0  0  0  0  0  0  0  0  0
    4.3614  -14.5700    0.7765 H   0  0  0  0  0  0  0  0  0  0  0  0
    6.0748  -14.1622    0.4582 H   0  0  0  0  0  0  0  0  0  0  0  0
    4.5357   -9.2823   -0.2941 H   0  0  0  0  0  0  0  0  0  0  0  0
    2.9584   -9.8512    0.2365 H   0  0  0  0  0  0  0  0  0  0  0  0
    3.5040   -8.4347   -2.4364 H   0  0  0  0  0  0  0  0  0  0  0  0
    1.9271   -8.9982   -1.8944 H   0  0  0  0  0  0  0  0  0  0  0  0
    2.8412  -11.3987   -1.7383 H   0  0  0  0  0  0  0  0  0  0  0  0
    4.4163  -10.8273   -2.2790 H   0  0  0  0  0  0  0  0  0  0  0  0
    3.6365   -6.8867   -0.4779 H   0  0  0  0  0  0  0  0  0  0  0  0
    2.0419   -7.4536    0.0702 H   0  0  0  0  0  0  0  0  0  0  0  0
    5.4757  -11.7432   -0.1950 H   0  0  0  0  0  0  0  0  0  0  0  0
    3.8644  -12.2421    0.3986 H   0  0  0  0  0  0  0  0  0  0  0  0
   -2.4486   -1.0098    4.9730 H   0  0  0  0  0  0  0  0  0  0  0  0
  1  3  1  0  0  0  0
  1  4  2  0  0  0  0
  1 40  1  0  0  0  0
  2  5  1  0  0  0  0
  2  6  2  0  0  0  0
  2 41  1  0  0  0  0
  3  7  2  0  0  0  0
  3 42  1  0  0  0  0
  4  8  1  0  0  0  0
  4 43  1  0  0  0  0
  5 12  2  0  0  0  0
  5 44  1  0  0  0  0
  6 13  1  0  0  0  0
  6 45  1  0  0  0  0
  7 19  1  0  0  0  0
  7 46  1  0  0  0  0
  8 19  2  0  0  0  0
  8 47  1  0  0  0  0
  9 14  2  0  0  0  0
  9 18  1  0  0  0  0
  9 48  1  0  0  0  0
 10 15  1  0  0  0  0
 10 18  2  0  0  0  0
 10 49  1  0  0  0  0
 11 16  2  0  0  0  0
 11 20  1  0  0  0  0
 11 50  1  0  0  0  0
 12 22  1  0  0  0  0
 12 51  1  0  0  0  0
 13 22  2  0  0  0  0
 13 52  1  0  0  0  0
 14 23  1  0  0  0  0
 14 53  1  0  0  0  0
 15 23  2  0  0  0  0
 15 54  1  0  0  0  0
 16 24  1  0  0  0  0
 16 55  1  0  0  0  0
 17 21  1  0  0  0  0
 17 24  2  0  0  0  0
 17 56  1  0  0  0  0
 18 25  1  0  0  0  0
 19 26  1  0  0  0  0
 20 21  2  0  0  0  0
 20 25  1  0  0  0  0
 21 27  1  0  0  0  0
 22 30  1  0  0  0  0
 23 38  1  0  0  0  0
 24 37  1  0  0  0  0
 25 26  2  0  0  0  0
 26 28  1  0  0  0  0
 27 29  1  0  0  0  0
 27 57  1  0  0  0  0
 27 58  1  0  0  0  0
 28 29  1  0  0  0  0
 28 59  1  0  0  0  0
 28 60  1  0  0  0  0
 29 61  1  0  0  0  0
 29 62  1  0  0  0  0
 30 39  1  0  0  0  0
 30 63  1  0  0  0  0
 30 64  1  0  0  0  0
 31 32  1  0  0  0  0
 31 33  1  0  0  0  0
 31 65  1  0  0  0  0
 31 66  1  0  0  0  0
 32 34  1  0  0  0  0
 32 67  1  0  0  0  0
 32 68  1  0  0  0  0
 33 35  1  0  0  0  0
 33 69  1  0  0  0  0
 33 70  1  0  0  0  0
 34 38  1  0  0  0  0
 34 71  1  0  0  0  0
 34 72  1  0  0  0  0
 35 39  1  0  0  0  0
 35 73  1  0  0  0  0
 35 74  1  0  0  0  0
 36 39  2  0  0  0  0
 37 75  1  0  0  0  0
M  END
$$$$
