41
0 1 C12F3H22NO2S
C                     1.364842870749    -0.227419975948    -0.155492219767
C                     1.110256947679    -1.584528604257     0.556644333710
C                     1.205716431236    -0.546524925536    -1.654576881739
C                     0.869179156637    -2.598075368625    -0.585198392033
C                     1.403984436823    -4.004420988870    -0.316633326882
C                     0.680430202386    -4.702040846182     0.842151605230
C                     1.137135122942   -10.767319050040     3.762004056687
C                     0.497580065880    -9.377145767992     3.657441481540
C                     0.489205280885   -11.597526321276     4.875722849928
C                     1.234264964948    -6.108409131087     1.070733347410
C                     1.146140729507    -8.554141519361     2.544371321974
C                     1.083143823026   -12.982503638751     5.002107449676
N                     1.558621453300    -1.971495419262    -1.724513375826
O                    -1.051874921567    -7.131539998546     2.013676013014
O                     0.639378174288    -6.188958030713     3.680801215740
F                     0.490523276105   -13.688736352593     5.997188458859
F                     2.413429119998   -12.944996425910     5.278944041472
F                     0.938843082127   -13.706493539494     3.860590818806
S                     0.347261304778    -6.921830726572     2.433814529016
H                     0.671190614827     0.553863168795     0.166479975993
H                     2.378479457657     0.126171330749     0.050195675829
H                     1.986192797695    -1.881799199415     1.142168439608
H                     0.258780255727    -1.545910579657     1.240723636306
H                     0.165073206005    -0.353926275871    -1.970233146403
H                     1.867698309534     0.049069412097    -2.290934004498
H                    -0.220544815667    -2.666304620612    -0.766629248801
H                     1.299568269135    -4.609051762932    -1.228010391949
H                     2.478461273781    -3.929637734252    -0.109448780547
H                    -0.391431144458    -4.768947276853     0.628470514325
H                     0.792351859790    -4.121092847840     1.762327045774
H                     2.210326355618   -10.669610891428     3.958920982895
H                     1.033555727302   -11.295784919536     2.808028607169
H                    -0.574080743969    -9.471875913058     3.454501957747
H                     0.602505180334    -8.842000798371     4.606756477948
H                     0.605719905430   -11.107434742648     5.847035277307
H                    -0.582847437606   -11.722939917885     4.696280170149
H                     1.102444778603    -6.743973964435     0.189775251116
H                     2.291309138223    -6.086055447433     1.352497177008
H                     2.207797258975    -8.374771162232     2.738449048402
H                     1.026511754199    -9.030744683103     1.566828314491
H                     1.264776539733    -2.386448109727    -2.606668280467
