
  -OEChem-05262117483D

 41 41  0     1  0  0  0  0  0999 V2000
    0.6889   -2.5870   -2.8469 C   0  0  0  0  0  0  0  0  0  0  0  0
    1.8185   -2.3442   -1.8322 C   0  0  0  0  0  0  0  0  0  0  0  0
   -0.5603   -2.4401   -1.9760 C   0  0  0  0  0  0  0  0  0  0  0  0
    1.2908   -2.9771   -0.5210 C   0  0  2  0  0  0  0  0  0  0  0  0
    1.9355   -4.3389   -0.2250 C   0  0  0  0  0  0  0  0  0  0  0  0
    1.3418   -5.0106    1.0174 C   0  0  0  0  0  0  0  0  0  0  0  0
   -2.4107   -8.6031    3.5186 C   0  0  0  0  0  0  0  0  0  0  0  0
   -0.9268   -8.2737    3.7239 C   0  0  0  0  0  0  0  0  0  0  0  0
   -2.9871   -9.3456    4.7296 C   0  0  0  0  0  0  0  0  0  0  0  0
    1.9719   -6.3770    1.2719 C   0  0  0  0  0  0  0  0  0  0  0  0
   -0.3496   -7.5372    2.5148 C   0  0  0  0  0  0  0  0  0  0  0  0
   -4.4504   -9.6923    4.5717 C   0  0  0  0  0  0  0  0  0  0  0  0
   -0.1750   -3.1265   -0.7288 N   0  0  0  0  0  0  0  0  0  0  0  0
    1.4842   -6.1759    3.8997 O   0  0  0  0  0  0  0  0  0  0  0  0
    2.1187   -8.4565    2.9346 O   0  0  0  0  0  0  0  0  0  0  0  0
   -4.9256  -10.3495    5.6595 F   0  0  0  0  0  0  0  0  0  0  0  0
   -4.6736  -10.4921    3.4956 F   0  0  0  0  0  0  0  0  0  0  0  0
   -5.2234   -8.5862    4.4071 F   0  0  0  0  0  0  0  0  0  0  0  0
    1.4107   -7.1681    2.8092 S   0  0  0  0  0  0  0  0  0  0  0  0
    0.7061   -1.8871   -3.6868 H   0  0  0  0  0  0  0  0  0  0  0  0
    0.7441   -3.6041   -3.2497 H   0  0  0  0  0  0  0  0  0  0  0  0
    2.7754   -2.7732   -2.1435 H   0  0  0  0  0  0  0  0  0  0  0  0
    1.9689   -1.2678   -1.6970 H   0  0  0  0  0  0  0  0  0  0  0  0
   -0.7849   -1.3710   -1.8258 H   0  0  0  0  0  0  0  0  0  0  0  0
   -1.4454   -2.9114   -2.4166 H   0  0  0  0  0  0  0  0  0  0  0  0
    1.4988   -2.3105    0.3281 H   0  0  0  0  0  0  0  0  0  0  0  0
    1.7950   -4.9875   -1.0994 H   0  0  0  0  0  0  0  0  0  0  0  0
    3.0167   -4.2010   -0.0913 H   0  0  0  0  0  0  0  0  0  0  0  0
    0.2622   -5.1101    0.8673 H   0  0  0  0  0  0  0  0  0  0  0  0
    1.4971   -4.3787    1.8985 H   0  0  0  0  0  0  0  0  0  0  0  0
   -2.5342   -9.2195    2.6215 H   0  0  0  0  0  0  0  0  0  0  0  0
   -2.9777   -7.6804    3.3535 H   0  0  0  0  0  0  0  0  0  0  0  0
   -0.8015   -7.6502    4.6152 H   0  0  0  0  0  0  0  0  0  0  0  0
   -0.3567   -9.1934    3.8890 H   0  0  0  0  0  0  0  0  0  0  0  0
   -2.4516  -10.2839    4.9031 H   0  0  0  0  0  0  0  0  0  0  0  0
   -2.8961   -8.7419    5.6376 H   0  0  0  0  0  0  0  0  0  0  0  0
    1.7782   -7.0946    0.4688 H   0  0  0  0  0  0  0  0  0  0  0  0
    3.0559   -6.3101    1.4125 H   0  0  0  0  0  0  0  0  0  0  0  0
   -0.3976   -8.1456    1.6067 H   0  0  0  0  0  0  0  0  0  0  0  0
   -0.8544   -6.5829    2.3443 H   0  0  0  0  0  0  0  0  0  0  0  0
   -0.6994   -2.7743    0.0657 H   0  0  0  0  0  0  0  0  0  0  0  0
  1  2  1  0  0  0  0
  1  3  1  0  0  0  0
  1 20  1  0  0  0  0
  1 21  1  0  0  0  0
  2  4  1  0  0  0  0
  2 22  1  0  0  0  0
  2 23  1  0  0  0  0
  3 13  1  0  0  0  0
  3 24  1  0  0  0  0
  3 25  1  0  0  0  0
  4  5  1  0  0  0  0
  4 13  1  0  0  0  0
  4 26  1  0  0  0  0
  5  6  1  0  0  0  0
  5 27  1  0  0  0  0
  5 28  1  0  0  0  0
  6 10  1  0  0  0  0
  6 29  1  0  0  0  0
  6 30  1  0  0  0  0
  7  8  1  0  0  0  0
  7  9  1  0  0  0  0
  7 31  1  0  0  0  0
  7 32  1  0  0  0  0
  8 11  1  0  0  0  0
  8 33  1  0  0  0  0
  8 34  1  0  0  0  0
  9 12  1  0  0  0  0
  9 35  1  0  0  0  0
  9 36  1  0  0  0  0
 10 19  1  0  0  0  0
 10 37  1  0  0  0  0
 10 38  1  0  0  0  0
 11 19  1  0  0  0  0
 11 39  1  0  0  0  0
 11 40  1  0  0  0  0
 12 16  1  0  0  0  0
 12 17  1  0  0  0  0
 12 18  1  0  0  0  0
 13 41  1  0  0  0  0
 14 19  2  0  0  0  0
 15 19  2  0  0  0  0
M  END
$$$$
