
  -OEChem-05262117483D

 38 41  0     1  0  0  0  0  0999 V2000
    5.5476   -4.9149   -1.4354 C   0  0  0  0  0  0  0  0  0  0  0  0
    6.0064   -3.6008   -1.7153 C   0  0  0  0  0  0  0  0  0  0  0  0
    4.4184   -5.1070   -0.6670 C   0  0  0  0  0  0  0  0  0  0  0  0
    5.3273   -2.5061   -1.2226 C   0  0  0  0  0  0  0  0  0  0  0  0
    2.5370   -4.1533    0.6606 C   0  0  0  0  0  0  0  0  0  0  0  0
    1.8600   -3.0549    1.1426 C   0  0  0  0  0  0  0  0  0  0  0  0
    3.4347   -1.5636    0.0887 C   0  0  0  0  0  0  0  0  0  0  0  0
    3.6963   -3.9978   -0.1473 C   0  0  0  0  0  0  0  0  0  0  0  0
    4.1574   -2.6719   -0.4304 C   0  0  0  0  0  0  0  0  0  0  0  0
    2.2914   -1.7286    0.8485 C   0  0  0  0  0  0  0  0  0  0  0  0
   -0.3691    1.0621    1.0979 C   0  0  0  0  0  0  0  0  0  0  0  0
    0.1529   -0.5853   -2.0056 C   0  0  0  0  0  0  0  0  0  0  0  0
   -1.1786   -0.9054   -1.3116 C   0  0  0  0  0  0  0  0  0  0  0  0
    0.8608    0.3593   -1.0165 C   0  0  0  0  0  0  0  0  0  0  0  0
   -1.8167   -0.7418    1.2030 C   0  0  0  0  0  0  0  0  0  0  0  0
   -0.7641   -1.1135    0.1564 C   0  0  2  0  0  0  0  0  0  0  0  0
    0.3658   -0.0811    0.3920 C   0  0  2  0  0  0  0  0  0  0  0  0
    1.5008   -0.5440    1.3510 C   0  0  0  0  0  0  0  0  0  0  0  0
    0.0405    2.1821    1.2983 O   0  0  0  0  0  0  0  0  0  0  0  0
   -1.6054    0.6578    1.5111 O   0  0  0  0  0  0  0  0  0  0  0  0
    6.0924   -5.7690   -1.8290 H   0  0  0  0  0  0  0  0  0  0  0  0
    6.8982   -3.4617   -2.3208 H   0  0  0  0  0  0  0  0  0  0  0  0
    4.0668   -6.1131   -0.4490 H   0  0  0  0  0  0  0  0  0  0  0  0
    5.6797   -1.4996   -1.4367 H   0  0  0  0  0  0  0  0  0  0  0  0
    2.1940   -5.1566    0.9034 H   0  0  0  0  0  0  0  0  0  0  0  0
    0.9903   -3.1979    1.7801 H   0  0  0  0  0  0  0  0  0  0  0  0
    3.8081   -0.5625   -0.1157 H   0  0  0  0  0  0  0  0  0  0  0  0
    0.7378   -1.5050   -2.1234 H   0  0  0  0  0  0  0  0  0  0  0  0
    0.0259   -0.1422   -2.9979 H   0  0  0  0  0  0  0  0  0  0  0  0
   -1.8587   -0.0473   -1.3914 H   0  0  0  0  0  0  0  0  0  0  0  0
   -1.6939   -1.7762   -1.7287 H   0  0  0  0  0  0  0  0  0  0  0  0
    1.9467    0.3050   -1.1028 H   0  0  0  0  0  0  0  0  0  0  0  0
    0.5795    1.4006   -1.1969 H   0  0  0  0  0  0  0  0  0  0  0  0
   -2.8445   -0.8444    0.8469 H   0  0  0  0  0  0  0  0  0  0  0  0
   -1.7047   -1.3098    2.1329 H   0  0  0  0  0  0  0  0  0  0  0  0
   -0.4186   -2.1397    0.2936 H   0  0  0  0  0  0  0  0  0  0  0  0
    1.0620   -0.7872    2.3263 H   0  0  0  0  0  0  0  0  0  0  0  0
    2.1598    0.3146    1.5106 H   0  0  0  0  0  0  0  0  0  0  0  0
  1  2  1  0  0  0  0
  1  3  2  0  0  0  0
  1 21  1  0  0  0  0
  2  4  2  0  0  0  0
  2 22  1  0  0  0  0
  3  8  1  0  0  0  0
  3 23  1  0  0  0  0
  4  9  1  0  0  0  0
  4 24  1  0  0  0  0
  5  6  2  0  0  0  0
  5  8  1  0  0  0  0
  5 25  1  0  0  0  0
  6 10  1  0  0  0  0
  6 26  1  0  0  0  0
  7  9  1  0  0  0  0
  7 10  2  0  0  0  0
  7 27  1  0  0  0  0
  8  9  2  0  0  0  0
 10 18  1  0  0  0  0
 11 17  1  0  0  0  0
 11 19  2  0  0  0  0
 11 20  1  0  0  0  0
 12 13  1  0  0  0  0
 12 14  1  0  0  0  0
 12 28  1  0  0  0  0
 12 29  1  0  0  0  0
 13 16  1  0  0  0  0
 13 30  1  0  0  0  0
 13 31  1  0  0  0  0
 14 17  1  0  0  0  0
 14 32  1  0  0  0  0
 14 33  1  0  0  0  0
 15 16  1  0  0  0  0
 15 20  1  0  0  0  0
 15 34  1  0  0  0  0
 15 35  1  0  0  0  0
 16 17  1  0  0  0  0
 16 36  1  0  0  0  0
 17 18  1  0  0  0  0
 18 37  1  0  0  0  0
 18 38  1  0  0  0  0
M  END
$$$$
