
  -OEChem-05262117483D

 28 29  0     1  0  0  0  0  0999 V2000
    3.8153   -8.3823    6.0275 C   0  0  0  0  0  0  0  0  0  0  0  0
    4.5059   -5.2448    2.1176 C   0  0  0  0  0  0  0  0  0  0  0  0
    3.1972   -8.2414    4.8031 C   0  0  0  0  0  0  0  0  0  0  0  0
    5.1482   -5.3727    3.3333 C   0  0  0  0  0  0  0  0  0  0  0  0
    4.8938   -7.5360    6.3915 C   0  0  0  0  0  0  0  0  0  0  0  0
    3.4360   -6.0882    1.7396 C   0  0  0  0  0  0  0  0  0  0  0  0
    4.7157   -6.3763    4.2407 C   0  0  0  0  0  0  0  0  0  0  0  0
    3.6329   -7.2432    3.8895 C   0  0  0  0  0  0  0  0  0  0  0  0
    5.3270   -6.5595    5.5163 C   0  0  0  0  0  0  0  0  0  0  0  0
    3.0012   -7.0827    2.6080 C   0  0  0  0  0  0  0  0  0  0  0  0
    0.5674   -6.6200    0.7407 C   0  0  0  0  0  0  0  0  0  0  0  0
    0.4913   -9.1483    0.9744 C   0  0  0  0  0  0  0  0  0  0  0  0
    1.3970   -7.9276    1.0205 C   0  0  2  0  0  0  0  0  0  0  0  0
   -0.2113   -6.2642    1.6573 O   0  5  0  0  0  0  0  0  0  0  0  0
    0.7751   -6.1239   -0.4029 O   0  0  0  0  0  0  0  0  0  0  0  0
    6.3747   -5.7091    5.8300 O   0  0  0  0  0  0  0  0  0  0  0  0
    2.0151   -7.9619    2.3394 O   0  0  0  0  0  0  0  0  0  0  0  0
    3.4789   -9.1429    6.7283 H   0  0  0  0  0  0  0  0  0  0  0  0
    4.8195   -4.4691    1.4219 H   0  0  0  0  0  0  0  0  0  0  0  0
    2.3666   -8.8759    4.5161 H   0  0  0  0  0  0  0  0  0  0  0  0
    5.9673   -4.7184    3.6112 H   0  0  0  0  0  0  0  0  0  0  0  0
    5.3776   -7.6543    7.3617 H   0  0  0  0  0  0  0  0  0  0  0  0
    2.9375   -5.9329    0.7887 H   0  0  0  0  0  0  0  0  0  0  0  0
   -0.2972   -9.0374    1.7246 H   0  0  0  0  0  0  0  0  0  0  0  0
    0.0251   -9.2140   -0.0141 H   0  0  0  0  0  0  0  0  0  0  0  0
    1.0500  -10.0729    1.1673 H   0  0  0  0  0  0  0  0  0  0  0  0
    2.1992   -8.0089    0.2777 H   0  0  0  0  0  0  0  0  0  0  0  0
    6.6765   -5.9320    6.7242 H   0  0  0  0  0  0  0  0  0  0  0  0
  1  3  1  0  0  0  0
  1  5  2  0  0  0  0
  1 18  1  0  0  0  0
  2  4  2  0  0  0  0
  2  6  1  0  0  0  0
  2 19  1  0  0  0  0
  3  8  2  0  0  0  0
  3 20  1  0  0  0  0
  4  7  1  0  0  0  0
  4 21  1  0  0  0  0
  5  9  1  0  0  0  0
  5 22  1  0  0  0  0
  6 10  2  0  0  0  0
  6 23  1  0  0  0  0
  7  8  1  0  0  0  0
  7  9  2  0  0  0  0
  8 10  1  0  0  0  0
  9 16  1  0  0  0  0
 10 17  1  0  0  0  0
 11 13  1  0  0  0  0
 11 14  1  0  0  0  0
 11 15  2  0  0  0  0
 12 13  1  0  0  0  0
 12 24  1  0  0  0  0
 12 25  1  0  0  0  0
 12 26  1  0  0  0  0
 13 17  1  0  0  0  0
 13 27  1  0  0  0  0
 16 28  1  0  0  0  0
M  CHG  1  14  -1
M  END
$$$$
