
  -OEChem-05262117483D

 41 41  0     1  0  0  0  0  0999 V2000
    0.9058   -1.2312   -2.8157 C   0  0  0  0  0  0  0  0  0  0  0  0
    1.9523   -2.0917   -2.0571 C   0  0  0  0  0  0  0  0  0  0  0  0
   -0.3614   -1.3269   -1.9474 C   0  0  0  0  0  0  0  0  0  0  0  0
    1.1830   -2.7142   -0.8680 C   0  0  2  0  0  0  0  0  0  0  0  0
    1.6134   -4.1432   -0.5386 C   0  0  0  0  0  0  0  0  0  0  0  0
    0.8473   -4.7428    0.6472 C   0  0  0  0  0  0  0  0  0  0  0  0
    0.9995  -10.6041    3.9896 C   0  0  0  0  0  0  0  0  0  0  0  0
    0.4418   -9.1899    3.7850 C   0  0  0  0  0  0  0  0  0  0  0  0
    0.3220  -11.3033    5.1737 C   0  0  0  0  0  0  0  0  0  0  0  0
    1.3359   -6.1553    0.9692 C   0  0  0  0  0  0  0  0  0  0  0  0
    1.1149   -8.4943    2.6015 C   0  0  0  0  0  0  0  0  0  0  0  0
    0.8450  -12.7017    5.4146 C   0  0  0  0  0  0  0  0  0  0  0  0
   -0.2204   -2.6434   -1.3092 N   0  0  0  0  0  0  0  0  0  0  0  0
   -0.9937   -6.9616    2.0143 O   0  0  0  0  0  0  0  0  0  0  0  0
    0.7923   -6.0315    3.5860 O   0  0  0  0  0  0  0  0  0  0  0  0
    0.2223  -13.2908    6.4662 F   0  0  0  0  0  0  0  0  0  0  0  0
    2.1770  -12.7096    5.6861 F   0  0  0  0  0  0  0  0  0  0  0  0
    0.6579  -13.5103    4.3381 F   0  0  0  0  0  0  0  0  0  0  0  0
    0.4250   -6.8218    2.3950 S   0  0  0  0  0  0  0  0  0  0  0  0
    1.2276   -0.1952   -2.9522 H   0  0  0  0  0  0  0  0  0  0  0  0
    0.7139   -1.6517   -3.8064 H   0  0  0  0  0  0  0  0  0  0  0  0
    2.3478   -2.8798   -2.7051 H   0  0  0  0  0  0  0  0  0  0  0  0
    2.8034   -1.5027   -1.7041 H   0  0  0  0  0  0  0  0  0  0  0  0
   -0.3764   -0.5020   -1.2131 H   0  0  0  0  0  0  0  0  0  0  0  0
   -1.2858   -1.2764   -2.5311 H   0  0  0  0  0  0  0  0  0  0  0  0
    1.3506   -2.0843    0.0263 H   0  0  0  0  0  0  0  0  0  0  0  0
    1.4610   -4.7618   -1.4316 H   0  0  0  0  0  0  0  0  0  0  0  0
    2.6894   -4.1435   -0.3190 H   0  0  0  0  0  0  0  0  0  0  0  0
   -0.2213   -4.7861    0.4175 H   0  0  0  0  0  0  0  0  0  0  0  0
    0.9730   -4.1092    1.5319 H   0  0  0  0  0  0  0  0  0  0  0  0
    2.0797  -10.5561    4.1652 H   0  0  0  0  0  0  0  0  0  0  0  0
    0.8486  -11.1984    3.0819 H   0  0  0  0  0  0  0  0  0  0  0  0
   -0.6375   -9.2343    3.6069 H   0  0  0  0  0  0  0  0  0  0  0  0
    0.5975   -8.5908    4.6880 H   0  0  0  0  0  0  0  0  0  0  0  0
    0.4741  -10.7397    6.0992 H   0  0  0  0  0  0  0  0  0  0  0  0
   -0.7570  -11.3870    5.0126 H   0  0  0  0  0  0  0  0  0  0  0  0
    1.1633   -6.8415    0.1346 H   0  0  0  0  0  0  0  0  0  0  0  0
    2.3953   -6.1666    1.2426 H   0  0  0  0  0  0  0  0  0  0  0  0
    2.1911   -8.3757    2.7594 H   0  0  0  0  0  0  0  0  0  0  0  0
    0.9374   -9.0278    1.6630 H   0  0  0  0  0  0  0  0  0  0  0  0
   -0.8637   -2.7423   -0.5270 H   0  0  0  0  0  0  0  0  0  0  0  0
  1  2  1  0  0  0  0
  1  3  1  0  0  0  0
  1 20  1  0  0  0  0
  1 21  1  0  0  0  0
  2  4  1  0  0  0  0
  2 22  1  0  0  0  0
  2 23  1  0  0  0  0
  3 13  1  0  0  0  0
  3 24  1  0  0  0  0
  3 25  1  0  0  0  0
  4  5  1  0  0  0  0
  4 13  1  0  0  0  0
  4 26  1  0  0  0  0
  5  6  1  0  0  0  0
  5 27  1  0  0  0  0
  5 28  1  0  0  0  0
  6 10  1  0  0  0  0
  6 29  1  0  0  0  0
  6 30  1  0  0  0  0
  7  8  1  0  0  0  0
  7  9  1  0  0  0  0
  7 31  1  0  0  0  0
  7 32  1  0  0  0  0
  8 11  1  0  0  0  0
  8 33  1  0  0  0  0
  8 34  1  0  0  0  0
  9 12  1  0  0  0  0
  9 35  1  0  0  0  0
  9 36  1  0  0  0  0
 10 19  1  0  0  0  0
 10 37  1  0  0  0  0
 10 38  1  0  0  0  0
 11 19  1  0  0  0  0
 11 39  1  0  0  0  0
 11 40  1  0  0  0  0
 12 16  1  0  0  0  0
 12 17  1  0  0  0  0
 12 18  1  0  0  0  0
 13 41  1  0  0  0  0
 14 19  2  0  0  0  0
 15 19  2  0  0  0  0
M  END
$$$$
