45
0 1 C20H23NO
C                     4.254126807953    -7.003021359401    -6.012056078892
C                     3.300693870912    -7.760770099131    -5.323417279614
C                     4.187306548499    -5.606445699867    -5.963897735324
C                     2.291529704576    -7.128406147603    -4.593980806556
C                     3.177697217127    -4.975400203943    -5.233648498988
C                     0.506925023206    -3.901223680344    -4.244296759170
C                     0.709125503398    -5.561316509531    -2.525936571281
C                    -0.510942520714    -3.279862566592    -3.518041651877
C                    -0.305019448181    -4.935372493588    -1.806223147374
C                     2.213867239088    -5.725368403519    -4.536546610913
C                     1.140756467807    -5.056100358291    -3.763194012189
C                    -0.938330828003    -3.774164834744    -2.277309474651
C                    -3.424485581704    -5.689932596659    -3.545811469573
C                    -1.131034302382    -0.602668891887    -0.224772460029
C                    -1.477881795873    -0.668373608739    -1.717701833229
C                    -0.710396121382    -1.980550673232     0.301703454442
C                    -2.520441716837    -1.761342977249    -2.002864488675
C                    -1.787316111313    -3.032750223851     0.013280935085
C                    -2.110768802031    -3.165510228923    -1.496639630420
C                    -3.323067456920    -4.129742609189    -1.621893838853
N                    -3.677068627242    -4.466659907110    -2.992826697906
O                    -2.996945019548    -6.667054458459    -2.944785826386
H                     5.039689271213    -7.495029654929    -6.579747479010
H                     3.336708624099    -8.846622854383    -5.362641106285
H                     4.928327917223    -5.007646437500    -6.487725313651
H                     1.538616480362    -7.726301315998    -4.087572837111
H                     3.151354368114    -3.890136825102    -5.180542210913
H                     0.788763487957    -3.499045057864    -5.214051627514
H                     1.179270789549    -6.450766884035    -2.115520882176
H                    -0.976561145628    -2.400542903486    -3.949351040586
H                    -0.614701106341    -5.381994757328    -0.866763949513
H                    -3.671579434993    -5.715829052944    -4.624334993455
H                    -2.008162129356    -0.253777409086     0.338154757661
H                    -0.335238006961     0.131557508070    -0.054385732734
H                    -1.862842812287     0.299056002024    -2.061581018284
H                    -0.563442826797    -0.863967078618    -2.287572961904
H                     0.231291097748    -2.285028064029    -0.171162591046
H                    -0.522451220153    -1.933297074524     1.380635058621
H                    -3.453511756059    -1.488457682892    -1.491333946244
H                    -2.759827617209    -1.780102621582    -3.072601564734
H                    -1.490848717201    -4.000630503094     0.427782787733
H                    -2.711793614410    -2.749058030164     0.535446494796
H                    -4.191433008887    -3.682940181776    -1.122257411500
H                    -3.102327237276    -5.075794206780    -1.125069374529
H                    -3.967188048577    -3.727163267266    -3.618967520144
