22
0 1 C9Cl2H8N2O
C                    -2.848923162713    -2.665529402458     4.115121395232
C                    -1.518878318574    -3.036489120142     3.910946972916
C                    -3.352640445961    -1.500551329528     3.535286843950
C                    -1.155917749441    -1.040385452428     2.549148553912
C                    -0.690373669721    -2.240161477883     3.120224566177
C                    -2.502484331614    -0.701484713653     2.772598970515
C                     0.709896096544     0.489348105814     2.313687582078
C                     2.309146162089     1.310645435142     3.569384345769
C                     2.328010990976     2.031894346103     2.196772804310
N                     1.111495698611     0.458587071600     3.524509964843
N                    -0.320013234645    -0.235382780609     1.746129121859
O                     1.354766019007     1.290910247330     1.406979733296
Cl                    0.940323492416    -2.779231518921     2.811056151702
Cl                   -3.140060758044     0.776767241679     2.066248948669
H                    -3.497179734655    -3.290465081808     4.722207572718
H                    -1.123393179255    -3.949523637025     4.343339354538
H                    -4.385537257677    -1.202509035244     3.680906707217
H                     3.200796659640     0.690040113450     3.721085730503
H                     2.247712873722     2.015144649110     4.404177974723
H                     1.990196499553     3.071213675788     2.254674422183
H                     3.285150909630     1.986220124406     1.674097652237
H                    -0.774739334064     0.246992674606     0.978939971818
