
  -OEChem-05262117483D

 45 47  0     0  0  0  0  0  0999 V2000
    4.2541   -7.0030   -6.0121 C   0  0  0  0  0  0  0  0  0  0  0  0
    3.3007   -7.7608   -5.3234 C   0  0  0  0  0  0  0  0  0  0  0  0
    4.1873   -5.6064   -5.9639 C   0  0  0  0  0  0  0  0  0  0  0  0
    2.2915   -7.1284   -4.5940 C   0  0  0  0  0  0  0  0  0  0  0  0
    3.1777   -4.9754   -5.2336 C   0  0  0  0  0  0  0  0  0  0  0  0
    0.5069   -3.9012   -4.2443 C   0  0  0  0  0  0  0  0  0  0  0  0
    0.7091   -5.5613   -2.5259 C   0  0  0  0  0  0  0  0  0  0  0  0
   -0.5109   -3.2799   -3.5180 C   0  0  0  0  0  0  0  0  0  0  0  0
   -0.3050   -4.9354   -1.8062 C   0  0  0  0  0  0  0  0  0  0  0  0
    2.2139   -5.7254   -4.5365 C   0  0  0  0  0  0  0  0  0  0  0  0
    1.1408   -5.0561   -3.7632 C   0  0  0  0  0  0  0  0  0  0  0  0
   -0.9383   -3.7742   -2.2773 C   0  0  0  0  0  0  0  0  0  0  0  0
   -3.4245   -5.6899   -3.5458 C   0  0  0  0  0  0  0  0  0  0  0  0
   -1.1310   -0.6027   -0.2248 C   0  0  0  0  0  0  0  0  0  0  0  0
   -1.4779   -0.6684   -1.7177 C   0  0  0  0  0  0  0  0  0  0  0  0
   -0.7104   -1.9806    0.3017 C   0  0  0  0  0  0  0  0  0  0  0  0
   -2.5204   -1.7613   -2.0029 C   0  0  0  0  0  0  0  0  0  0  0  0
   -1.7873   -3.0328    0.0133 C   0  0  0  0  0  0  0  0  0  0  0  0
   -2.1108   -3.1655   -1.4966 C   0  0  0  0  0  0  0  0  0  0  0  0
   -3.3231   -4.1297   -1.6219 C   0  0  0  0  0  0  0  0  0  0  0  0
   -3.6771   -4.4667   -2.9928 N   0  0  0  0  0  0  0  0  0  0  0  0
   -2.9969   -6.6671   -2.9448 O   0  0  0  0  0  0  0  0  0  0  0  0
    5.0397   -7.4950   -6.5797 H   0  0  0  0  0  0  0  0  0  0  0  0
    3.3367   -8.8466   -5.3626 H   0  0  0  0  0  0  0  0  0  0  0  0
    4.9283   -5.0076   -6.4877 H   0  0  0  0  0  0  0  0  0  0  0  0
    1.5386   -7.7263   -4.0876 H   0  0  0  0  0  0  0  0  0  0  0  0
    3.1514   -3.8901   -5.1805 H   0  0  0  0  0  0  0  0  0  0  0  0
    0.7888   -3.4990   -5.2141 H   0  0  0  0  0  0  0  0  0  0  0  0
    1.1793   -6.4508   -2.1155 H   0  0  0  0  0  0  0  0  0  0  0  0
   -0.9766   -2.4005   -3.9494 H   0  0  0  0  0  0  0  0  0  0  0  0
   -0.6147   -5.3820   -0.8668 H   0  0  0  0  0  0  0  0  0  0  0  0
   -3.6716   -5.7158   -4.6243 H   0  0  0  0  0  0  0  0  0  0  0  0
   -2.0082   -0.2538    0.3382 H   0  0  0  0  0  0  0  0  0  0  0  0
   -0.3352    0.1316   -0.0544 H   0  0  0  0  0  0  0  0  0  0  0  0
   -1.8628    0.2991   -2.0616 H   0  0  0  0  0  0  0  0  0  0  0  0
   -0.5634   -0.8640   -2.2876 H   0  0  0  0  0  0  0  0  0  0  0  0
    0.2313   -2.2850   -0.1712 H   0  0  0  0  0  0  0  0  0  0  0  0
   -0.5225   -1.9333    1.3806 H   0  0  0  0  0  0  0  0  0  0  0  0
   -3.4535   -1.4885   -1.4913 H   0  0  0  0  0  0  0  0  0  0  0  0
   -2.7598   -1.7801   -3.0726 H   0  0  0  0  0  0  0  0  0  0  0  0
   -1.4908   -4.0006    0.4278 H   0  0  0  0  0  0  0  0  0  0  0  0
   -2.7118   -2.7491    0.5354 H   0  0  0  0  0  0  0  0  0  0  0  0
   -4.1914   -3.6829   -1.1223 H   0  0  0  0  0  0  0  0  0  0  0  0
   -3.1023   -5.0758   -1.1251 H   0  0  0  0  0  0  0  0  0  0  0  0
   -3.9672   -3.7272   -3.6190 H   0  0  0  0  0  0  0  0  0  0  0  0
  1  2  1  0  0  0  0
  1  3  2  0  0  0  0
  1 23  1  0  0  0  0
  2  4  2  0  0  0  0
  2 24  1  0  0  0  0
  3  5  1  0  0  0  0
  3 25  1  0  0  0  0
  4 10  1  0  0  0  0
  4 26  1  0  0  0  0
  5 10  2  0  0  0  0
  5 27  1  0  0  0  0
  6  8  2  0  0  0  0
  6 11  1  0  0  0  0
  6 28  1  0  0  0  0
  7  9  1  0  0  0  0
  7 11  2  0  0  0  0
  7 29  1  0  0  0  0
  8 12  1  0  0  0  0
  8 30  1  0  0  0  0
  9 12  2  0  0  0  0
  9 31  1  0  0  0  0
 10 11  1  0  0  0  0
 12 19  1  0  0  0  0
 13 21  1  0  0  0  0
 13 22  2  0  0  0  0
 13 32  1  0  0  0  0
 14 15  1  0  0  0  0
 14 16  1  0  0  0  0
 14 33  1  0  0  0  0
 14 34  1  0  0  0  0
 15 17  1  0  0  0  0
 15 35  1  0  0  0  0
 15 36  1  0  0  0  0
 16 18  1  0  0  0  0
 16 37  1  0  0  0  0
 16 38  1  0  0  0  0
 17 19  1  0  0  0  0
 17 39  1  0  0  0  0
 17 40  1  0  0  0  0
 18 19  1  0  0  0  0
 18 41  1  0  0  0  0
 18 42  1  0  0  0  0
 19 20  1  0  0  0  0
 20 21  1  0  0  0  0
 20 43  1  0  0  0  0
 20 44  1  0  0  0  0
 21 45  1  0  0  0  0
M  END
$$$$
