40
0 1 C12H21N3O2S2
C                     8.923060962559    -1.735333843260    -1.294519061278
C                     7.313257235438    -1.355178015216     0.393356158856
C                    10.022241717916    -1.718902642156    -2.330327506550
C                     7.368709852930    -1.627929369530     8.157424942339
C                    11.190654219736     2.057400915203    -3.791154354848
C                    12.748557944693     0.409872054773    -2.655750800283
C                     6.602366761997    -1.097010620784     6.941120341881
C                     7.230028963424    -1.526482769719     5.609545588217
C                     6.464735394945    -0.990199973844     4.391926712655
C                    10.949682190051    -0.435519787186    -4.240564583431
C                     7.114281640543    -1.427328279830     3.081905082192
C                    11.921391749051     0.712883741115    -3.911769896397
N                     8.318791399569    -2.833816407498    -0.923605969398
N                     7.377274813631    -2.606422779283     0.047271299685
N                     9.951932455526    -0.665563317910    -3.196390243341
O                    10.893653997090    -2.578039782786    -2.342007283689
O                     6.459547595577     0.802191534306     1.675917810171
S                     8.397048490905    -0.287857204635    -0.455349327296
S                     6.189426193791    -0.690494846010     1.658964231783
H                     7.399952994041    -2.723542200462     8.158146639511
H                     8.403558312532    -1.266874642705     8.161063099164
H                     6.900355577632    -1.307007071938     9.093764667003
H                    10.511875526506     2.063456506987    -2.929674308577
H                    11.901869967825     2.876821914436    -3.645494464618
H                    10.603407266302     2.281327421959    -4.689636625441
H                    12.107328697939     0.348407957709    -1.769671099398
H                    13.484846241318     1.200633837589    -2.477539161325
H                    13.279634271829    -0.542429146844    -2.745661723200
H                     6.559417728850    -0.001118146154     6.982537369961
H                     5.562550217404    -1.446602612502     6.980514410152
H                     7.273470919851    -2.622891372050     5.563632390092
H                     8.269499103323    -1.174755770211     5.568096264452
H                     6.432683660472     0.104211280855     4.429048769156
H                     5.426415077749    -1.343754142884     4.425955035137
H                    10.421496530471    -0.225389522991    -5.177286792090
H                    11.496518240037    -1.372274381491    -4.364105638854
H                     7.088337642977    -2.511631593626     2.934598418941
H                     8.145303804947    -1.070122713952     2.997862120696
H                    12.605372465933     0.772586741714    -4.769364152076
H                     9.136440253117    -0.068148552462    -3.167479202072
