
  -OEChem-05262117483D

 29 31  0     0  0  0  0  0  0999 V2000
    1.3015    1.5369   -0.3900 C   0  0  0  0  0  0  0  0  0  0  0  0
    0.0101    0.9946   -0.3958 C   0  0  0  0  0  0  0  0  0  0  0  0
    1.5125    2.8694   -0.7703 C   0  0  0  0  0  0  0  0  0  0  0  0
   -1.0868    1.7776   -0.7813 C   0  0  0  0  0  0  0  0  0  0  0  0
    0.4196    3.6458   -1.1536 C   0  0  0  0  0  0  0  0  0  0  0  0
   -0.8763    3.1037   -1.1586 C   0  0  0  0  0  0  0  0  0  0  0  0
   -2.5663    6.8913   -3.0763 C   0  0  0  0  0  0  0  0  0  0  0  0
    0.3845    5.0948   -1.5869 C   0  0  0  0  0  0  0  0  0  0  0  0
   -1.8813    4.1469   -1.5924 C   0  0  0  0  0  0  0  0  0  0  0  0
   -4.1106    7.0261   -4.6397 C   0  0  0  0  0  0  0  0  0  0  0  0
   -4.2363    8.2559   -3.7039 C   0  0  0  0  0  0  0  0  0  0  0  0
   -0.9869    5.2076   -2.2898 C   0  0  0  0  0  0  0  0  0  0  0  0
   -3.0838    6.1827   -4.0123 N   0  0  0  0  0  0  0  0  0  0  0  0
   -1.4935    6.5731   -2.2908 N   0  0  0  0  0  0  0  0  0  0  0  0
   -3.0836    8.1412   -2.8260 O   0  0  0  0  0  0  0  0  0  0  0  0
    2.1453    0.9181   -0.0951 H   0  0  0  0  0  0  0  0  0  0  0  0
   -0.1405   -0.0421   -0.1052 H   0  0  0  0  0  0  0  0  0  0  0  0
    2.5177    3.2858   -0.7714 H   0  0  0  0  0  0  0  0  0  0  0  0
   -2.0876    1.3511   -0.7912 H   0  0  0  0  0  0  0  0  0  0  0  0
    0.4182    5.7553   -0.7072 H   0  0  0  0  0  0  0  0  0  0  0  0
    1.2131    5.3852   -2.2391 H   0  0  0  0  0  0  0  0  0  0  0  0
   -2.6632    3.7714   -2.2565 H   0  0  0  0  0  0  0  0  0  0  0  0
   -2.3765    4.5916   -0.7170 H   0  0  0  0  0  0  0  0  0  0  0  0
   -5.0563    6.4819   -4.7298 H   0  0  0  0  0  0  0  0  0  0  0  0
   -3.7971    7.3127   -5.6517 H   0  0  0  0  0  0  0  0  0  0  0  0
   -4.1748    9.2192   -4.2144 H   0  0  0  0  0  0  0  0  0  0  0  0
   -5.1365    8.2302   -3.0814 H   0  0  0  0  0  0  0  0  0  0  0  0
   -0.8753    4.9147   -3.3364 H   0  0  0  0  0  0  0  0  0  0  0  0
   -1.4635    7.0712   -1.4084 H   0  0  0  0  0  0  0  0  0  0  0  0
  1  2  1  0  0  0  0
  1  3  2  0  0  0  0
  1 16  1  0  0  0  0
  2  4  2  0  0  0  0
  2 17  1  0  0  0  0
  3  5  1  0  0  0  0
  3 18  1  0  0  0  0
  4  6  1  0  0  0  0
  4 19  1  0  0  0  0
  5  6  2  0  0  0  0
  5  8  1  0  0  0  0
  6  9  1  0  0  0  0
  7 13  2  0  0  0  0
  7 14  1  0  0  0  0
  7 15  1  0  0  0  0
  8 12  1  0  0  0  0
  8 20  1  0  0  0  0
  8 21  1  0  0  0  0
  9 12  1  0  0  0  0
  9 22  1  0  0  0  0
  9 23  1  0  0  0  0
 10 11  1  0  0  0  0
 10 13  1  0  0  0  0
 10 24  1  0  0  0  0
 10 25  1  0  0  0  0
 11 15  1  0  0  0  0
 11 26  1  0  0  0  0
 11 27  1  0  0  0  0
 12 14  1  0  0  0  0
 12 28  1  0  0  0  0
 14 29  1  0  0  0  0
M  END
$$$$
