
  -OEChem-05262117483D

 32 32  0     1  0  0  0  0  0999 V2000
    1.7368   -1.8016    0.2978 C   0  0  0  0  0  0  0  0  0  0  0  0
    0.5573   -2.7829    0.2201 C   0  0  0  0  0  0  0  0  0  0  0  0
    1.9289   -1.3992   -1.1692 C   0  0  0  0  0  0  0  0  0  0  0  0
    0.8362   -3.5611   -1.0828 C   0  0  2  0  0  0  0  0  0  0  0  0
    1.6194   -4.8581   -0.8051 C   0  0  0  0  0  0  0  0  0  0  0  0
    4.3439   -8.8541   -3.2782 C   0  0  0  0  0  0  0  0  0  0  0  0
    2.0533   -5.5229   -2.1078 C   0  0  0  0  0  0  0  0  0  0  0  0
    3.5202   -7.5755   -3.4221 C   0  0  0  0  0  0  0  0  0  0  0  0
    4.7887   -9.3801   -4.6255 C   0  0  0  0  0  0  0  0  0  0  0  0
    1.6332   -2.6361   -1.9306 N   0  0  0  0  0  0  0  0  0  0  0  0
    2.1438   -8.0384   -1.1849 O   0  0  0  0  0  0  0  0  0  0  0  0
    4.2592   -6.6164   -1.0467 O   0  0  0  0  0  0  0  0  0  0  0  0
    3.7332   -9.6617   -5.4343 F   0  0  0  0  0  0  0  0  0  0  0  0
    5.5649   -8.4837   -5.2891 F   0  0  0  0  0  0  0  0  0  0  0  0
    5.5095  -10.5170   -4.4957 F   0  0  0  0  0  0  0  0  0  0  0  0
    3.0299   -7.0087   -1.7603 S   0  0  0  0  0  0  0  0  0  0  0  0
    1.5408   -0.9423    0.9446 H   0  0  0  0  0  0  0  0  0  0  0  0
    2.6326   -2.3068    0.6740 H   0  0  0  0  0  0  0  0  0  0  0  0
    0.4775   -3.4367    1.0933 H   0  0  0  0  0  0  0  0  0  0  0  0
   -0.3834   -2.2279    0.1301 H   0  0  0  0  0  0  0  0  0  0  0  0
    1.2358   -0.5841   -1.4261 H   0  0  0  0  0  0  0  0  0  0  0  0
    2.9462   -1.0516   -1.3774 H   0  0  0  0  0  0  0  0  0  0  0  0
   -0.1011   -3.8264   -1.5885 H   0  0  0  0  0  0  0  0  0  0  0  0
    0.9969   -5.5448   -0.2223 H   0  0  0  0  0  0  0  0  0  0  0  0
    2.5093   -4.6236   -0.2128 H   0  0  0  0  0  0  0  0  0  0  0  0
    3.7579   -9.6365   -2.7906 H   0  0  0  0  0  0  0  0  0  0  0  0
    5.2393   -8.6699   -2.6801 H   0  0  0  0  0  0  0  0  0  0  0  0
    1.1976   -5.8502   -2.7072 H   0  0  0  0  0  0  0  0  0  0  0  0
    2.6829   -4.8420   -2.6865 H   0  0  0  0  0  0  0  0  0  0  0  0
    4.0992   -6.7704   -3.8799 H   0  0  0  0  0  0  0  0  0  0  0  0
    2.6031   -7.7490   -3.9898 H   0  0  0  0  0  0  0  0  0  0  0  0
    1.1439   -2.4199   -2.7925 H   0  0  0  0  0  0  0  0  0  0  0  0
  1  2  1  0  0  0  0
  1  3  1  0  0  0  0
  1 17  1  0  0  0  0
  1 18  1  0  0  0  0
  2  4  1  0  0  0  0
  2 19  1  0  0  0  0
  2 20  1  0  0  0  0
  3 10  1  0  0  0  0
  3 21  1  0  0  0  0
  3 22  1  0  0  0  0
  4  5  1  0  0  0  0
  4 10  1  0  0  0  0
  4 23  1  0  0  0  0
  5  7  1  0  0  0  0
  5 24  1  0  0  0  0
  5 25  1  0  0  0  0
  6  8  1  0  0  0  0
  6  9  1  0  0  0  0
  6 26  1  0  0  0  0
  6 27  1  0  0  0  0
  7 16  1  0  0  0  0
  7 28  1  0  0  0  0
  7 29  1  0  0  0  0
  8 16  1  0  0  0  0
  8 30  1  0  0  0  0
  8 31  1  0  0  0  0
  9 13  1  0  0  0  0
  9 14  1  0  0  0  0
  9 15  1  0  0  0  0
 10 32  1  0  0  0  0
 11 16  2  0  0  0  0
 12 16  2  0  0  0  0
M  END
$$$$
