32
0 1 C9F3H16NO2S
C                     0.723973919590    -1.159636621666     0.362304585186
C                    -0.279502650085    -2.257516632981     0.758333517590
C                     0.960661704119    -1.461027977973    -1.119523840783
C                     0.123302549963    -3.473878987840    -0.112655202853
C                     0.822297961099    -4.572437044499     0.708349020510
C                     0.711596602219    -8.642960463937    -2.923630014726
C                     1.572506243083    -5.600278827407    -0.140979111423
C                     1.506721747476    -7.851417779603    -1.886618601485
C                     1.519540377474    -9.797004058202    -3.476707715203
N                     1.044013316756    -2.929850244124    -1.139475552034
O                     0.148171497567    -5.629140877450    -2.426205220023
O                    -0.637291178746    -7.091594114863    -0.488279702317
F                     2.659481790666    -9.373517374486    -4.082686414747
F                     1.891049666858   -10.669119301674    -2.503276800946
F                     0.812450936311   -10.495142059379    -4.393638452762
S                     0.462066824519    -6.492555775524    -1.267621391126
H                     0.346490949762    -0.148626859848     0.538810336738
H                     1.662043127672    -1.274737755672     0.916585454721
H                    -0.265594036744    -2.487484613074     1.828038906518
H                    -1.296313739329    -1.939762598727     0.506553122754
H                     0.121621502134    -1.068854011589    -1.718704872757
H                     1.885443605822    -1.016968815804    -1.503525771128
H                    -0.768343528959    -3.908192076357    -0.579089580896
H                     0.095759569369    -5.080311147031     1.350853049873
H                     1.575044335739    -4.107817707245     1.356841706032
H                     0.426196838341    -8.001673171734    -3.760584422401
H                    -0.197310930392    -9.055626886597    -2.479503112582
H                     2.317434992829    -5.109010438040    -0.771438903427
H                     2.044358564956    -6.363893999236     0.484530296568
H                     1.776860336937    -8.468044799943    -1.026683646833
H                     2.401521955411    -7.399534393701    -2.321212159216
H                     0.825026345880    -3.323735580191    -2.050812008042
