
  -OEChem-05262117483D

 68 70  0     1  0  0  0  0  0999 V2000
    2.0326   -0.4315   -4.4943 C   0  0  0  0  0  0  0  0  0  0  0  0
    3.5665    7.9353   -0.7945 C   0  0  0  0  0  0  0  0  0  0  0  0
    1.2201    0.6460   -4.1298 C   0  0  0  0  0  0  0  0  0  0  0  0
    3.4230   -0.3333   -4.3697 C   0  0  0  0  0  0  0  0  0  0  0  0
    3.5158    7.0876    0.3169 C   0  0  0  0  0  0  0  0  0  0  0  0
    4.1897    7.5079   -1.9717 C   0  0  0  0  0  0  0  0  0  0  0  0
    1.7921    1.8175   -3.6277 C   0  0  0  0  0  0  0  0  0  0  0  0
    3.9958    0.8415   -3.8782 C   0  0  0  0  0  0  0  0  0  0  0  0
    4.0774    5.8113    0.2470 C   0  0  0  0  0  0  0  0  0  0  0  0
    4.7498    6.2305   -2.0408 C   0  0  0  0  0  0  0  0  0  0  0  0
    3.1833    1.9208   -3.4961 C   0  0  0  0  0  0  0  0  0  0  0  0
    4.6875    5.3666   -0.9364 C   0  0  0  0  0  0  0  0  0  0  0  0
    0.2577    1.6416    0.3940 C   0  0  0  0  0  0  0  0  0  0  0  0
   -2.4868   -0.0332   -1.2386 C   0  0  0  0  0  0  0  0  0  0  0  0
   -1.9438    1.3003   -0.6996 C   0  0  0  0  0  0  0  0  0  0  0  0
   -0.7234   -0.6883    0.1071 C   0  0  0  0  0  0  0  0  0  0  0  0
   -1.7025    2.2898   -1.8420 C   0  0  0  0  0  0  0  0  0  0  0  0
   -2.8696    1.8926    0.3725 C   0  0  0  0  0  0  0  0  0  0  0  0
   -0.6118   -1.1365    1.5624 C   0  0  0  0  0  0  0  0  0  0  0  0
    0.3035   -1.3728   -0.8011 C   0  0  0  0  0  0  0  0  0  0  0  0
    2.6875    0.9751    2.8983 C   0  0  0  0  0  0  0  0  0  0  0  0
    3.8117    3.1612   -2.9234 C   0  0  0  0  0  0  0  0  0  0  0  0
    5.2790    3.9873   -1.0149 C   0  0  0  0  0  0  0  0  0  0  0  0
    3.5148    2.0316    0.7462 C   0  0  0  0  0  0  0  0  0  0  0  0
    3.1069    2.7149   -0.5535 C   0  0  0  0  0  0  0  0  0  0  0  0
    2.3032    1.7586    1.6507 C   0  0  1  0  0  0  0  0  0  0  0  0
   -0.6857    0.8006   -0.0769 N   0  0  0  0  0  0  0  0  0  0  0  0
    4.2802    2.9221   -1.4878 N   0  3  0  0  0  0  0  0  0  0  0  0
    0.2212    2.8704    0.3406 O   0  0  0  0  0  0  0  0  0  0  0  0
   -2.0495   -1.0152   -0.3088 O   0  0  0  0  0  0  0  0  0  0  0  0
    1.3325    0.9645    0.9289 O   0  0  0  0  0  0  0  0  0  0  0  0
    1.5862   -1.3418   -4.8840 H   0  0  0  0  0  0  0  0  0  0  0  0
    3.1341    8.9301   -0.7391 H   0  0  0  0  0  0  0  0  0  0  0  0
    0.1421    0.5754   -4.2404 H   0  0  0  0  0  0  0  0  0  0  0  0
    4.0574   -1.1627   -4.6685 H   0  0  0  0  0  0  0  0  0  0  0  0
    3.0473    7.4226    1.2375 H   0  0  0  0  0  0  0  0  0  0  0  0
    4.2487    8.1714   -2.8294 H   0  0  0  0  0  0  0  0  0  0  0  0
    1.1569    2.6516   -3.3401 H   0  0  0  0  0  0  0  0  0  0  0  0
    5.0808    0.9230   -3.8180 H   0  0  0  0  0  0  0  0  0  0  0  0
    4.0505    5.1670    1.1227 H   0  0  0  0  0  0  0  0  0  0  0  0
    5.2513    5.9149   -2.9530 H   0  0  0  0  0  0  0  0  0  0  0  0
   -3.5770   -0.0635   -1.2723 H   0  0  0  0  0  0  0  0  0  0  0  0
   -2.0912   -0.2386   -2.2438 H   0  0  0  0  0  0  0  0  0  0  0  0
   -1.3504    3.2514   -1.4686 H   0  0  0  0  0  0  0  0  0  0  0  0
   -2.6402    2.4475   -2.3850 H   0  0  0  0  0  0  0  0  0  0  0  0
   -0.9663    1.8905   -2.5454 H   0  0  0  0  0  0  0  0  0  0  0  0
   -2.3851    2.7363    0.8692 H   0  0  0  0  0  0  0  0  0  0  0  0
   -3.1240    1.1364    1.1203 H   0  0  0  0  0  0  0  0  0  0  0  0
   -3.7975    2.2499   -0.0853 H   0  0  0  0  0  0  0  0  0  0  0  0
   -1.2832   -0.5457    2.1901 H   0  0  0  0  0  0  0  0  0  0  0  0
    0.4079   -1.0458    1.9340 H   0  0  0  0  0  0  0  0  0  0  0  0
   -0.9193   -2.1838    1.6199 H   0  0  0  0  0  0  0  0  0  0  0  0
    0.1412   -1.0921   -1.8449 H   0  0  0  0  0  0  0  0  0  0  0  0
    0.2006   -2.4574   -0.7102 H   0  0  0  0  0  0  0  0  0  0  0  0
    1.3193   -1.0879   -0.5195 H   0  0  0  0  0  0  0  0  0  0  0  0
    3.1108    0.0007    2.6356 H   0  0  0  0  0  0  0  0  0  0  0  0
    1.8077    0.8118    3.5251 H   0  0  0  0  0  0  0  0  0  0  0  0
    3.4274    1.5285    3.4851 H   0  0  0  0  0  0  0  0  0  0  0  0
    4.7007    3.4568   -3.4845 H   0  0  0  0  0  0  0  0  0  0  0  0
    3.1245    4.0059   -2.8877 H   0  0  0  0  0  0  0  0  0  0  0  0
    6.1070    3.9421   -1.7257 H   0  0  0  0  0  0  0  0  0  0  0  0
    5.6438    3.6466   -0.0456 H   0  0  0  0  0  0  0  0  0  0  0  0
    4.2221    2.6399    1.3188 H   0  0  0  0  0  0  0  0  0  0  0  0
    4.0073    1.0756    0.5231 H   0  0  0  0  0  0  0  0  0  0  0  0
    2.4052    2.0851   -1.0947 H   0  0  0  0  0  0  0  0  0  0  0  0
    2.6384    3.6848   -0.3972 H   0  0  0  0  0  0  0  0  0  0  0  0
    1.8340    2.7072    1.9193 H   0  0  0  0  0  0  0  0  0  0  0  0
    4.7955    2.0351   -1.5084 H   0  0  0  0  0  0  0  0  0  0  0  0
  1  3  1  0  0  0  0
  1  4  2  0  0  0  0
  1 32  1  0  0  0  0
  2  5  1  0  0  0  0
  2  6  2  0  0  0  0
  2 33  1  0  0  0  0
  3  7  2  0  0  0  0
  3 34  1  0  0  0  0
  4  8  1  0  0  0  0
  4 35  1  0  0  0  0
  5  9  2  0  0  0  0
  5 36  1  0  0  0  0
  6 10  1  0  0  0  0
  6 37  1  0  0  0  0
  7 11  1  0  0  0  0
  7 38  1  0  0  0  0
  8 11  2  0  0  0  0
  8 39  1  0  0  0  0
  9 12  1  0  0  0  0
  9 40  1  0  0  0  0
 10 12  2  0  0  0  0
 10 41  1  0  0  0  0
 11 22  1  0  0  0  0
 12 23  1  0  0  0  0
 13 27  1  0  0  0  0
 13 29  2  0  0  0  0
 13 31  1  0  0  0  0
 14 15  1  0  0  0  0
 14 30  1  0  0  0  0
 14 42  1  0  0  0  0
 14 43  1  0  0  0  0
 15 17  1  0  0  0  0
 15 18  1  0  0  0  0
 15 27  1  0  0  0  0
 16 19  1  0  0  0  0
 16 20  1  0  0  0  0
 16 27  1  0  0  0  0
 16 30  1  0  0  0  0
 17 44  1  0  0  0  0
 17 45  1  0  0  0  0
 17 46  1  0  0  0  0
 18 47  1  0  0  0  0
 18 48  1  0  0  0  0
 18 49  1  0  0  0  0
 19 50  1  0  0  0  0
 19 51  1  0  0  0  0
 19 52  1  0  0  0  0
 20 53  1  0  0  0  0
 20 54  1  0  0  0  0
 20 55  1  0  0  0  0
 21 26  1  0  0  0  0
 21 56  1  0  0  0  0
 21 57  1  0  0  0  0
 21 58  1  0  0  0  0
 22 28  1  0  0  0  0
 22 59  1  0  0  0  0
 22 60  1  0  0  0  0
 23 28  1  0  0  0  0
 23 61  1  0  0  0  0
 23 62  1  0  0  0  0
 24 25  1  0  0  0  0
 24 26  1  0  0  0  0
 24 63  1  0  0  0  0
 24 64  1  0  0  0  0
 25 28  1  0  0  0  0
 25 65  1  0  0  0  0
 25 66  1  0  0  0  0
 26 31  1  0  0  0  0
 26 67  1  0  0  0  0
 28 68  1  0  0  0  0
M  CHG  1  28   1
M  END
$$$$
