29
0 1 C12H14N2O
C                     1.941713733312     1.372026811225     1.504123905421
C                     0.758134113033     0.938830032617     0.893203812585
C                     1.953929085415     1.713855815596     2.863771346067
C                    -0.428812148535     0.841658830120     1.633122958097
C                     0.772271288596     1.614333611047     3.597404834710
C                    -0.415479888553     1.181168900578     2.985675947425
C                    -1.494892176143    -0.958883912112     6.307619532493
C                     0.517558130157     1.929562946121     5.058110485552
C                    -1.547319349936     1.175091866533     3.991427143006
C                    -3.321964609279    -1.777361981058     7.226044174360
C                    -2.337480177944    -2.942015742442     6.944722112481
C                    -0.803892129941     1.182218751121     5.354977334373
N                    -2.681528318699    -0.594584519346     6.634548181929
N                    -0.488349151535    -0.169983949353     5.825595847828
O                    -1.130723056222    -2.272881848929     6.489551774085
H                     2.856975699953     1.437857117704     0.921231307832
H                     0.762310374288     0.671097278550    -0.160462474385
H                     2.875866781322     2.045854718267     3.336588257450
H                    -1.344917152682     0.500121635230     1.155983335665
H                     1.324158028134     1.621418489548     5.729959730210
H                     0.372468343702     3.008774723175     5.193868851034
H                    -2.153678332099     2.085191720068     3.891248234830
H                    -2.227496960164     0.324153919315     3.905340710793
H                    -4.303486764798    -1.952544403283     6.773605173553
H                    -3.477419215130    -1.624227081719     8.301618244389
H                    -2.080381827312    -3.536539565161     7.823920546380
H                    -2.676308646987    -3.605843374975     6.142875892763
H                    -1.396230720661     1.657290507767     6.136876716561
H                     0.212205792468    -0.675587415976     5.293413937206
