
  -OEChem-05262117483D

 68 70  0     1  0  0  0  0  0999 V2000
    8.6829    0.7515   -3.0841 C   0  0  0  0  0  0  0  0  0  0  0  0
    6.2784    7.5230    0.3881 C   0  0  0  0  0  0  0  0  0  0  0  0
    8.1167    0.5565   -1.8187 C   0  0  0  0  0  0  0  0  0  0  0  0
    7.9174    1.3021   -4.1163 C   0  0  0  0  0  0  0  0  0  0  0  0
    7.1036    6.4211    0.1336 C   0  0  0  0  0  0  0  0  0  0  0  0
    5.0347    7.6272   -0.2423 C   0  0  0  0  0  0  0  0  0  0  0  0
    6.7880    0.9168   -1.5876 C   0  0  0  0  0  0  0  0  0  0  0  0
    6.5893    1.6707   -3.8825 C   0  0  0  0  0  0  0  0  0  0  0  0
    6.6818    5.4234   -0.7469 C   0  0  0  0  0  0  0  0  0  0  0  0
    4.6082    6.6242   -1.1178 C   0  0  0  0  0  0  0  0  0  0  0  0
    6.0184    1.4834   -2.6168 C   0  0  0  0  0  0  0  0  0  0  0  0
    5.4273    5.5160   -1.3716 C   0  0  0  0  0  0  0  0  0  0  0  0
    0.7101    0.9812    2.5976 C   0  0  0  0  0  0  0  0  0  0  0  0
    0.4480   -1.3974    5.2960 C   0  0  0  0  0  0  0  0  0  0  0  0
   -0.3025   -0.5978    4.2183 C   0  0  0  0  0  0  0  0  0  0  0  0
    1.9971    0.1895    4.6462 C   0  0  0  0  0  0  0  0  0  0  0  0
   -0.8931   -1.5300    3.1571 C   0  0  0  0  0  0  0  0  0  0  0  0
   -1.3753    0.3082    4.8393 C   0  0  0  0  0  0  0  0  0  0  0  0
    2.3949    1.5685    5.1694 C   0  0  0  0  0  0  0  0  0  0  0  0
    3.1812   -0.5738    4.0422 C   0  0  0  0  0  0  0  0  0  0  0  0
    1.4542    3.9148    1.7143 C   0  0  0  0  0  0  0  0  0  0  0  0
    4.6040    1.9071   -2.3331 C   0  0  0  0  0  0  0  0  0  0  0  0
    4.9781    4.4087   -2.2829 C   0  0  0  0  0  0  0  0  0  0  0  0
    3.2036    2.4743    0.5035 C   0  0  0  0  0  0  0  0  0  0  0  0
    3.2741    3.3582   -0.7372 C   0  0  0  0  0  0  0  0  0  0  0  0
    1.8258    2.5374    1.1738 C   0  0  1  0  0  0  0  0  0  0  0  0
    0.8345    0.2177    3.7037 N   0  0  0  0  0  0  0  0  0  0  0  0
    4.5814    3.1721   -1.4768 N   0  3  0  0  0  0  0  0  0  0  0  0
   -0.3063    1.1323    1.9299 O   0  0  0  0  0  0  0  0  0  0  0  0
    1.4693   -0.5220    5.7645 O   0  0  0  0  0  0  0  0  0  0  0  0
    1.9076    1.5898    2.2543 O   0  0  0  0  0  0  0  0  0  0  0  0
    9.7143    0.4639   -3.2668 H   0  0  0  0  0  0  0  0  0  0  0  0
    6.6098    8.3034    1.0669 H   0  0  0  0  0  0  0  0  0  0  0  0
    8.7045    0.1116   -1.0211 H   0  0  0  0  0  0  0  0  0  0  0  0
    8.3514    1.4417   -5.1020 H   0  0  0  0  0  0  0  0  0  0  0  0
    8.0775    6.3486    0.6088 H   0  0  0  0  0  0  0  0  0  0  0  0
    4.3999    8.4886   -0.0565 H   0  0  0  0  0  0  0  0  0  0  0  0
    6.3446    0.7311   -0.6097 H   0  0  0  0  0  0  0  0  0  0  0  0
    5.9956    2.0908   -4.6915 H   0  0  0  0  0  0  0  0  0  0  0  0
    7.3410    4.5841   -0.9666 H   0  0  0  0  0  0  0  0  0  0  0  0
    3.6446    6.7154   -1.6147 H   0  0  0  0  0  0  0  0  0  0  0  0
   -0.1846   -1.6582    6.1459 H   0  0  0  0  0  0  0  0  0  0  0  0
    0.8802   -2.3152    4.8744 H   0  0  0  0  0  0  0  0  0  0  0  0
   -1.4609   -0.9738    2.4111 H   0  0  0  0  0  0  0  0  0  0  0  0
   -1.5642   -2.2469    3.6420 H   0  0  0  0  0  0  0  0  0  0  0  0
   -0.1023   -2.0925    2.6503 H   0  0  0  0  0  0  0  0  0  0  0  0
   -1.7731    0.9955    4.0894 H   0  0  0  0  0  0  0  0  0  0  0  0
   -0.9576    0.8860    5.6690 H   0  0  0  0  0  0  0  0  0  0  0  0
   -2.2025   -0.2973    5.2235 H   0  0  0  0  0  0  0  0  0  0  0  0
    1.5080    2.1091    5.5085 H   0  0  0  0  0  0  0  0  0  0  0  0
    2.9071    2.1541    4.4061 H   0  0  0  0  0  0  0  0  0  0  0  0
    3.0639    1.4323    6.0231 H   0  0  0  0  0  0  0  0  0  0  0  0
    2.8807   -1.5856    3.7579 H   0  0  0  0  0  0  0  0  0  0  0  0
    3.9825   -0.6438    4.7829 H   0  0  0  0  0  0  0  0  0  0  0  0
    3.5578   -0.0602    3.1550 H   0  0  0  0  0  0  0  0  0  0  0  0
    2.2183    4.2833    2.4066 H   0  0  0  0  0  0  0  0  0  0  0  0
    0.5009    3.8537    2.2433 H   0  0  0  0  0  0  0  0  0  0  0  0
    1.3316    4.6427    0.9049 H   0  0  0  0  0  0  0  0  0  0  0  0
    4.0434    2.1405   -3.2401 H   0  0  0  0  0  0  0  0  0  0  0  0
    4.0590    1.1456   -1.7745 H   0  0  0  0  0  0  0  0  0  0  0  0
    4.1052    4.6771   -2.8809 H   0  0  0  0  0  0  0  0  0  0  0  0
    5.7804    4.0859   -2.9473 H   0  0  0  0  0  0  0  0  0  0  0  0
    3.9700    2.7895    1.2227 H   0  0  0  0  0  0  0  0  0  0  0  0
    3.3978    1.4264    0.2531 H   0  0  0  0  0  0  0  0  0  0  0  0
    2.4766    3.1378   -1.4521 H   0  0  0  0  0  0  0  0  0  0  0  0
    3.2174    4.4114   -0.4655 H   0  0  0  0  0  0  0  0  0  0  0  0
    1.0569    2.1956    0.4754 H   0  0  0  0  0  0  0  0  0  0  0  0
    5.3144    3.0577   -0.7677 H   0  0  0  0  0  0  0  0  0  0  0  0
  1  3  1  0  0  0  0
  1  4  2  0  0  0  0
  1 32  1  0  0  0  0
  2  5  1  0  0  0  0
  2  6  2  0  0  0  0
  2 33  1  0  0  0  0
  3  7  2  0  0  0  0
  3 34  1  0  0  0  0
  4  8  1  0  0  0  0
  4 35  1  0  0  0  0
  5  9  2  0  0  0  0
  5 36  1  0  0  0  0
  6 10  1  0  0  0  0
  6 37  1  0  0  0  0
  7 11  1  0  0  0  0
  7 38  1  0  0  0  0
  8 11  2  0  0  0  0
  8 39  1  0  0  0  0
  9 12  1  0  0  0  0
  9 40  1  0  0  0  0
 10 12  2  0  0  0  0
 10 41  1  0  0  0  0
 11 22  1  0  0  0  0
 12 23  1  0  0  0  0
 13 27  1  0  0  0  0
 13 29  2  0  0  0  0
 13 31  1  0  0  0  0
 14 15  1  0  0  0  0
 14 30  1  0  0  0  0
 14 42  1  0  0  0  0
 14 43  1  0  0  0  0
 15 17  1  0  0  0  0
 15 18  1  0  0  0  0
 15 27  1  0  0  0  0
 16 19  1  0  0  0  0
 16 20  1  0  0  0  0
 16 27  1  0  0  0  0
 16 30  1  0  0  0  0
 17 44  1  0  0  0  0
 17 45  1  0  0  0  0
 17 46  1  0  0  0  0
 18 47  1  0  0  0  0
 18 48  1  0  0  0  0
 18 49  1  0  0  0  0
 19 50  1  0  0  0  0
 19 51  1  0  0  0  0
 19 52  1  0  0  0  0
 20 53  1  0  0  0  0
 20 54  1  0  0  0  0
 20 55  1  0  0  0  0
 21 26  1  0  0  0  0
 21 56  1  0  0  0  0
 21 57  1  0  0  0  0
 21 58  1  0  0  0  0
 22 28  1  0  0  0  0
 22 59  1  0  0  0  0
 22 60  1  0  0  0  0
 23 28  1  0  0  0  0
 23 61  1  0  0  0  0
 23 62  1  0  0  0  0
 24 25  1  0  0  0  0
 24 26  1  0  0  0  0
 24 63  1  0  0  0  0
 24 64  1  0  0  0  0
 25 28  1  0  0  0  0
 25 65  1  0  0  0  0
 25 66  1  0  0  0  0
 26 31  1  0  0  0  0
 26 67  1  0  0  0  0
 28 68  1  0  0  0  0
M  CHG  1  28   1
M  END
$$$$
