
  -OEChem-05262117483D

 33 33  0     1  0  0  0  0  0999 V2000
    0.1246   -0.8061    1.2557 C   0  0  0  0  0  0  0  0  0  0  0  0
   -0.6649   -2.0332    0.7423 C   0  0  0  0  0  0  0  0  0  0  0  0
    1.0666   -1.3783    2.3120 C   0  0  0  0  0  0  0  0  0  0  0  0
    0.1839   -3.2895    1.0887 C   0  0  2  0  0  0  0  0  0  0  0  0
   -0.5717   -4.2352    2.0349 C   0  0  0  0  0  0  0  0  0  0  0  0
    2.6915   -6.9514    5.4770 C   0  0  0  0  0  0  0  0  0  0  0  0
    0.0822   -5.5784    2.4066 C   0  0  0  0  0  0  0  0  0  0  0  0
    1.7139   -7.0427    4.3023 C   0  0  0  0  0  0  0  0  0  0  0  0
    3.2062   -8.3350    5.8404 C   0  0  0  0  0  0  0  0  0  0  0  0
    1.4565   -2.7041    1.7069 N   0  3  0  0  0  0  0  0  0  0  0  0
    0.3566   -4.8012    4.9533 O   0  0  0  0  0  0  0  0  0  0  0  0
    2.3540   -4.6168    3.3940 O   0  0  0  0  0  0  0  0  0  0  0  0
    2.1910   -9.1639    6.1840 F   0  0  0  0  0  0  0  0  0  0  0  0
    3.8546   -8.9061    4.7945 F   0  0  0  0  0  0  0  0  0  0  0  0
    4.0616   -8.2705    6.8745 F   0  0  0  0  0  0  0  0  0  0  0  0
    1.1558   -5.3790    3.8668 S   0  0  0  0  0  0  0  0  0  0  0  0
    0.7034   -0.3451    0.4494 H   0  0  0  0  0  0  0  0  0  0  0  0
   -0.5261   -0.0360    1.6728 H   0  0  0  0  0  0  0  0  0  0  0  0
   -1.6338   -2.1020    1.2418 H   0  0  0  0  0  0  0  0  0  0  0  0
   -0.8575   -1.9714   -0.3299 H   0  0  0  0  0  0  0  0  0  0  0  0
    1.9639   -0.7905    2.5088 H   0  0  0  0  0  0  0  0  0  0  0  0
    0.5657   -1.5931    3.2582 H   0  0  0  0  0  0  0  0  0  0  0  0
    0.4996   -3.8356    0.1972 H   0  0  0  0  0  0  0  0  0  0  0  0
   -1.5032   -4.4725    1.5121 H   0  0  0  0  0  0  0  0  0  0  0  0
   -0.8754   -3.7099    2.9469 H   0  0  0  0  0  0  0  0  0  0  0  0
    2.2047   -6.5322    6.3600 H   0  0  0  0  0  0  0  0  0  0  0  0
    3.5540   -6.3323    5.2218 H   0  0  0  0  0  0  0  0  0  0  0  0
   -0.6879   -6.2983    2.6957 H   0  0  0  0  0  0  0  0  0  0  0  0
    0.6902   -6.0049    1.6042 H   0  0  0  0  0  0  0  0  0  0  0  0
    2.1854   -7.4628    3.4104 H   0  0  0  0  0  0  0  0  0  0  0  0
    0.8185   -7.6129    4.5617 H   0  0  0  0  0  0  0  0  0  0  0  0
    2.1393   -2.5388    0.9614 H   0  0  0  0  0  0  0  0  0  0  0  0
    1.9107   -3.3592    2.3953 H   0  0  0  0  0  0  0  0  0  0  0  0
  1  2  1  0  0  0  0
  1  3  1  0  0  0  0
  1 17  1  0  0  0  0
  1 18  1  0  0  0  0
  2  4  1  0  0  0  0
  2 19  1  0  0  0  0
  2 20  1  0  0  0  0
  3 10  1  0  0  0  0
  3 21  1  0  0  0  0
  3 22  1  0  0  0  0
  4  5  1  0  0  0  0
  4 10  1  0  0  0  0
  4 23  1  0  0  0  0
  5  7  1  0  0  0  0
  5 24  1  0  0  0  0
  5 25  1  0  0  0  0
  6  8  1  0  0  0  0
  6  9  1  0  0  0  0
  6 26  1  0  0  0  0
  6 27  1  0  0  0  0
  7 16  1  0  0  0  0
  7 28  1  0  0  0  0
  7 29  1  0  0  0  0
  8 16  1  0  0  0  0
  8 30  1  0  0  0  0
  8 31  1  0  0  0  0
  9 13  1  0  0  0  0
  9 14  1  0  0  0  0
  9 15  1  0  0  0  0
 10 32  1  0  0  0  0
 10 33  1  0  0  0  0
 11 16  2  0  0  0  0
 12 16  2  0  0  0  0
M  CHG  1  10   1
M  END
$$$$
