67
0 1 C26H36N2O3
C                     4.615278755215    -1.292144251542     8.778866004184
C                    -0.570523249626    -3.850273376645     2.911762369093
C                     3.408475452198    -0.791737299836     8.273794429450
C                     5.728574831116    -1.384515705611     7.939243686100
C                    -0.459222544637    -2.897192437700     3.931416785700
C                     0.552029474508    -4.170225930538     2.143921796614
C                     3.319211051538    -0.386046745172     6.940986920431
C                     5.633371585748    -0.979278883363     6.602602700948
C                     0.766279637294    -2.277911625399     4.184468041941
C                     1.777866847867    -3.544624080581     2.398596367451
C                     4.432310426978    -0.474422059325     6.091292894208
C                     1.900829158050    -2.600023735614     3.424349985336
C                     0.829722587245     1.542536699223    -0.340147310947
C                    -1.296522282776    -0.487388763690    -2.444309335503
C                    -0.266609644230     0.652896900444    -2.381809225879
C                    -1.221379796208     0.038480782490    -0.196164028748
C                     1.035500374175     0.248401005668    -3.080750465145
C                    -0.838744524218     1.953747715217    -2.966112779248
C                    -2.050048796918     0.936322880953     0.720132331171
C                    -0.702591604208    -1.207209319524     0.525280005725
C                     1.095247312358     3.639760067525     1.994695532447
C                     4.329160405727    -0.007543712186     4.653389499957
C                     3.238123703517    -1.963780714044     3.742887064276
C                     2.112517536917     1.541064903939     3.024588310973
C                     2.824518700405     0.214249570107     2.750816200279
C                     1.756428810125     2.289230921730     1.744611949629
N                    -0.123857524562     0.757413516550    -0.908898954648
N                     3.134946927066    -0.521517301753     3.979918639363
O                     1.614322641203     2.256668536541    -0.958472810213
O                    -2.089865714823    -0.339076663739    -1.273443705721
O                     0.832213604296     1.428519203726     1.019789478506
H                     4.684340926840    -1.610598387247     9.815907173060
H                    -1.525140665186    -4.330434510989     2.712212463464
H                     2.537804465628    -0.719955247309     8.921176684222
H                     6.667800047982    -1.777523909284     8.320518935616
H                    -1.330486341978    -2.636897724422     4.527742758452
H                     0.472780726246    -4.899209454363     1.341256151277
H                     2.382681151169    -0.008120600014     6.540040328334
H                     6.500437822451    -1.062803462863     5.950299410332
H                     0.857565616609    -1.532073595743     4.968632688890
H                     2.646438038098    -3.792485526581     1.791633075496
H                    -1.957261340769    -0.412631983807    -3.310534894830
H                    -0.795048853778    -1.465547807532    -2.458512171373
H                     1.757184496349     1.065320245553    -3.072482626864
H                     0.820299332859    -0.021581968652    -4.120972385939
H                     1.484744324694    -0.619111338008    -2.586681304846
H                    -0.169899667298     2.789405035464    -2.749358883283
H                    -1.823250260228     2.164018264292    -2.537261667396
H                    -0.945525796532     1.867491353619    -4.053090168367
H                    -2.336247057457     1.848797999315     0.190711603732
H                    -1.497374789860     1.198362661918     1.621516662505
H                    -2.958688634654     0.396750862413     1.001521318091
H                    -0.168605733766    -1.862613927268    -0.167463727011
H                    -1.543750187236    -1.761626991950     0.947857674120
H                    -0.024314798521    -0.938507784862     1.335707929311
H                     0.182768801969     3.519430884932     2.588001146894
H                     1.777870340437     4.300323951986     2.539815137941
H                     0.840833170793     4.119606410222     1.046230378765
H                     4.276234545915     1.085861618970     4.642904779588
H                     5.253635813282    -0.277864216897     4.109363513254
H                     3.634004021792    -2.418898690355     4.657288742234
H                     3.960962061731    -2.195275386265     2.938501323124
H                     1.203121510240     1.341418994980     3.602469108242
H                     2.739338193118     2.202259990977     3.633424308158
H                     2.162140669463    -0.407004173588     2.145473328320
H                     3.733210635637     0.388885870868     2.144031029374
H                     2.642887163763     2.422679545106     1.119662755092
