33
1 1 C9F3H17NO2S
C                    -1.152507286987    -1.821273428797     0.343893049498
C                    -1.807939581283    -2.168487314005     1.693991540295
C                     0.287125601266    -2.378952864882     0.429572623813
C                    -1.133326407011    -3.478646773964     2.094753703551
C                    -1.311377377185    -3.918321390729     3.550352603806
C                     0.684495484597    -8.953885826128     2.730075972649
C                    -0.427171826184    -5.072132025310     4.066454940997
C                     0.432109975620    -7.812266656589     3.718052809530
C                     1.321752356784   -10.134626050831     3.444817771370
N                     0.315062998801    -3.221285364050     1.702622791025
O                     0.746527933860    -5.925452333622     1.854458539145
O                    -1.619903391693    -6.739208580775     2.337241942363
F                     2.508384477593    -9.785787088867     4.003183788427
F                     0.528377179396   -10.594069241197     4.442720485735
F                     1.546178745501   -11.146799907260     2.590321170913
S                    -0.278111591368    -6.404813505485     2.830508404335
H                    -1.689040060885    -2.305586678040    -0.474559994657
H                    -1.152459645163    -0.747870525237     0.149746318362
H                    -1.608651713625    -1.395391345061     2.445408711741
H                    -2.890273958972    -2.285765562432     1.616454092923
H                     0.543323641542    -3.035511602831    -0.401320101248
H                     1.054736627254    -1.610630174922     0.519342700923
H                    -1.458817065003    -4.278139097030     1.424295676363
H                    -2.360019534005    -4.209014710041     3.648515151014
H                    -1.156437988849    -3.065661950668     4.221467260536
H                     1.364131825915    -8.641103634022     1.934636517297
H                    -0.249843770290    -9.297505185172     2.281312996589
H                     0.595639492324    -4.761131080738     4.296153146548
H                    -0.870573924886    -5.501482474071     4.968529504626
H                    -0.292035487347    -8.092815685815     4.486776933322
H                     1.358283518136    -7.461320823188     4.180003453192
H                     0.789046915271    -4.142911607418     1.585687200718
H                     0.795856584581    -2.711568767013     2.449345837815
