
  -OEChem-05262117483D

 67 69  0     1  0  0  0  0  0999 V2000
    4.4049   -0.7855    8.5596 C   0  0  0  0  0  0  0  0  0  0  0  0
   -0.0144   -3.5918    2.1206 C   0  0  0  0  0  0  0  0  0  0  0  0
    3.2342   -0.3596    7.9194 C   0  0  0  0  0  0  0  0  0  0  0  0
    5.6063   -0.8215    7.8466 C   0  0  0  0  0  0  0  0  0  0  0  0
   -0.0967   -2.5255    3.0242 C   0  0  0  0  0  0  0  0  0  0  0  0
    1.2356   -3.9894    1.6371 C   0  0  0  0  0  0  0  0  0  0  0  0
    3.2681    0.0293    6.5791 C   0  0  0  0  0  0  0  0  0  0  0  0
    5.6348   -0.4343    6.5016 C   0  0  0  0  0  0  0  0  0  0  0  0
    1.0614   -1.8680    3.4447 C   0  0  0  0  0  0  0  0  0  0  0  0
    2.3929   -3.3228    2.0547 C   0  0  0  0  0  0  0  0  0  0  0  0
    4.4703   -0.0029    5.8562 C   0  0  0  0  0  0  0  0  0  0  0  0
    2.3195   -2.2611    2.9649 C   0  0  0  0  0  0  0  0  0  0  0  0
    0.1611    3.8040    2.0608 C   0  0  0  0  0  0  0  0  0  0  0  0
   -1.3988    6.8606    3.1964 C   0  0  0  0  0  0  0  0  0  0  0  0
   -1.5555    5.3462    2.9817 C   0  0  0  0  0  0  0  0  0  0  0  0
    0.3754    6.3296    1.8138 C   0  0  0  0  0  0  0  0  0  0  0  0
   -1.6907    4.6197    4.3240 C   0  0  0  0  0  0  0  0  0  0  0  0
   -2.7366    5.0322    2.0506 C   0  0  0  0  0  0  0  0  0  0  0  0
    0.5927    6.3622    0.3023 C   0  0  0  0  0  0  0  0  0  0  0  0
    1.6576    6.6392    2.5941 C   0  0  0  0  0  0  0  0  0  0  0  0
    2.9396    2.6716    0.0597 C   0  0  0  0  0  0  0  0  0  0  0  0
    4.4987    0.4483    4.4097 C   0  0  0  0  0  0  0  0  0  0  0  0
    3.5794   -1.5708    3.4475 C   0  0  0  0  0  0  0  0  0  0  0  0
    2.6263    1.9621    2.5026 C   0  0  0  0  0  0  0  0  0  0  0  0
    3.2172    0.5561    2.3391 C   0  0  0  0  0  0  0  0  0  0  0  0
    1.9726    2.4761    1.2192 C   0  0  1  0  0  0  0  0  0  0  0  0
   -0.2651    5.0739    2.3020 N   0  0  0  0  0  0  0  0  0  0  0  0
    3.4073   -0.1268    3.6218 N   0  0  0  0  0  0  0  0  0  0  0  0
   -0.4684    2.7875    2.3379 O   0  0  0  0  0  0  0  0  0  0  0  0
   -0.6242    7.3173    2.0937 O   0  0  0  0  0  0  0  0  0  0  0  0
    1.3950    3.7877    1.4767 O   0  0  0  0  0  0  0  0  0  0  0  0
    4.3783   -1.0908    9.6026 H   0  0  0  0  0  0  0  0  0  0  0  0
   -0.9162   -4.1021    1.7918 H   0  0  0  0  0  0  0  0  0  0  0  0
    2.2951   -0.3332    8.4669 H   0  0  0  0  0  0  0  0  0  0  0  0
    6.5189   -1.1572    8.3330 H   0  0  0  0  0  0  0  0  0  0  0  0
   -1.0657   -2.2031    3.3972 H   0  0  0  0  0  0  0  0  0  0  0  0
    1.3100   -4.8115    0.9294 H   0  0  0  0  0  0  0  0  0  0  0  0
    2.3607    0.3479    6.0734 H   0  0  0  0  0  0  0  0  0  0  0  0
    6.5710   -0.4747    5.9480 H   0  0  0  0  0  0  0  0  0  0  0  0
    1.0012   -1.0304    4.1332 H   0  0  0  0  0  0  0  0  0  0  0  0
    3.3620   -3.6296    1.6656 H   0  0  0  0  0  0  0  0  0  0  0  0
   -2.3529    7.3912    3.1796 H   0  0  0  0  0  0  0  0  0  0  0  0
   -0.8889    7.0686    4.1478 H   0  0  0  0  0  0  0  0  0  0  0  0
   -1.8444    3.5503    4.1799 H   0  0  0  0  0  0  0  0  0  0  0  0
   -2.5473    5.0288    4.8719 H   0  0  0  0  0  0  0  0  0  0  0  0
   -0.7928    4.7640    4.9334 H   0  0  0  0  0  0  0  0  0  0  0  0
   -2.7194    3.9783    1.7644 H   0  0  0  0  0  0  0  0  0  0  0  0
   -2.6856    5.6478    1.1474 H   0  0  0  0  0  0  0  0  0  0  0  0
   -3.6858    5.2387    2.5573 H   0  0  0  0  0  0  0  0  0  0  0  0
   -0.3239    6.0622   -0.2119 H   0  0  0  0  0  0  0  0  0  0  0  0
    1.4068    5.7020    0.0051 H   0  0  0  0  0  0  0  0  0  0  0  0
    0.8366    7.3873    0.0097 H   0  0  0  0  0  0  0  0  0  0  0  0
    1.4473    6.7000    3.6655 H   0  0  0  0  0  0  0  0  0  0  0  0
    2.0641    7.5990    2.2626 H   0  0  0  0  0  0  0  0  0  0  0  0
    2.4021    5.8583    2.4296 H   0  0  0  0  0  0  0  0  0  0  0  0
    3.7528    3.3498    0.3398 H   0  0  0  0  0  0  0  0  0  0  0  0
    3.3767    1.7138   -0.2362 H   0  0  0  0  0  0  0  0  0  0  0  0
    2.4192    3.0916   -0.8061 H   0  0  0  0  0  0  0  0  0  0  0  0
    4.3935    1.5370    4.3834 H   0  0  0  0  0  0  0  0  0  0  0  0
    5.4880    0.2190    3.9698 H   0  0  0  0  0  0  0  0  0  0  0  0
    3.8582   -1.9869    4.4216 H   0  0  0  0  0  0  0  0  0  0  0  0
    4.4137   -1.8020    2.7583 H   0  0  0  0  0  0  0  0  0  0  0  0
    1.8620    1.9198    3.2831 H   0  0  0  0  0  0  0  0  0  0  0  0
    3.3873    2.6866    2.8148 H   0  0  0  0  0  0  0  0  0  0  0  0
    2.5162   -0.0478    1.7549 H   0  0  0  0  0  0  0  0  0  0  0  0
    4.1607    0.5926    1.7625 H   0  0  0  0  0  0  0  0  0  0  0  0
    1.1599    1.8040    0.9327 H   0  0  0  0  0  0  0  0  0  0  0  0
  1  3  1  0  0  0  0
  1  4  2  0  0  0  0
  1 32  1  0  0  0  0
  2  5  1  0  0  0  0
  2  6  2  0  0  0  0
  2 33  1  0  0  0  0
  3  7  2  0  0  0  0
  3 34  1  0  0  0  0
  4  8  1  0  0  0  0
  4 35  1  0  0  0  0
  5  9  2  0  0  0  0
  5 36  1  0  0  0  0
  6 10  1  0  0  0  0
  6 37  1  0  0  0  0
  7 11  1  0  0  0  0
  7 38  1  0  0  0  0
  8 11  2  0  0  0  0
  8 39  1  0  0  0  0
  9 12  1  0  0  0  0
  9 40  1  0  0  0  0
 10 12  2  0  0  0  0
 10 41  1  0  0  0  0
 11 22  1  0  0  0  0
 12 23  1  0  0  0  0
 13 27  1  0  0  0  0
 13 29  2  0  0  0  0
 13 31  1  0  0  0  0
 14 15  1  0  0  0  0
 14 30  1  0  0  0  0
 14 42  1  0  0  0  0
 14 43  1  0  0  0  0
 15 17  1  0  0  0  0
 15 18  1  0  0  0  0
 15 27  1  0  0  0  0
 16 19  1  0  0  0  0
 16 20  1  0  0  0  0
 16 27  1  0  0  0  0
 16 30  1  0  0  0  0
 17 44  1  0  0  0  0
 17 45  1  0  0  0  0
 17 46  1  0  0  0  0
 18 47  1  0  0  0  0
 18 48  1  0  0  0  0
 18 49  1  0  0  0  0
 19 50  1  0  0  0  0
 19 51  1  0  0  0  0
 19 52  1  0  0  0  0
 20 53  1  0  0  0  0
 20 54  1  0  0  0  0
 20 55  1  0  0  0  0
 21 26  1  0  0  0  0
 21 56  1  0  0  0  0
 21 57  1  0  0  0  0
 21 58  1  0  0  0  0
 22 28  1  0  0  0  0
 22 59  1  0  0  0  0
 22 60  1  0  0  0  0
 23 28  1  0  0  0  0
 23 61  1  0  0  0  0
 23 62  1  0  0  0  0
 24 25  1  0  0  0  0
 24 26  1  0  0  0  0
 24 63  1  0  0  0  0
 24 64  1  0  0  0  0
 25 28  1  0  0  0  0
 25 65  1  0  0  0  0
 25 66  1  0  0  0  0
 26 31  1  0  0  0  0
 26 67  1  0  0  0  0
M  END
$$$$
