24   
torsion grid (-165,)
C        0.1585265919    0.3945626800   -2.2956091647
C        0.0343073619   -0.7242474514   -1.4213373825
C       -1.0533175585    0.8283752089   -2.7758786393
C       -1.2337477971   -3.4663057034   -0.1599380753
C       -1.7648325670   -2.2380039347   -0.4681303439
C       -1.2760125868   -1.1280117540   -1.2552877373
C       -2.2452268956   -4.0857972975    0.6421383956
C        1.2223289081   -3.8056259813    0.3327909008
C       -2.2115334354   -5.4459378798    1.2679618944
C        0.0567515583   -4.0791406988   -0.6054287869
N       -3.2975285554   -3.3079024068    0.7884113545
O        1.4561227786   -2.7479603433    0.8813144046
O       -2.9996402647   -2.1286435282    0.0852303190
O        2.0199360675   -4.8962891715    0.4763100483
S       -2.3689736347   -0.1177191210   -2.1720732718
H        1.1023506336    0.8685936442   -2.5436514957
H        0.8561646645   -1.1795087002   -0.8805305434
H       -1.2490793406    1.6595220935   -3.4417491522
H       -1.3735106671   -5.5318584720    1.9675013958
H       -3.1406961023   -5.6329287579    1.8095656528
H       -2.0886508044   -6.2236882949    0.5065046867
H        0.3470865211   -3.6692538385   -1.5809153744
H       -0.0500357910   -5.1593258682   -0.7268239028
H        2.7558644701   -4.6258768275    1.0599415851
24   
torsion grid (-150,)
C        0.1848963644    0.3616467784   -2.2746732502
C        0.0406502404   -0.7570809459   -1.4035183268
C       -1.0176262762    0.8041988635   -2.7700614592
C       -1.2552147665   -3.4854584111   -0.1498529140
C       -1.7797373939   -2.2584368115   -0.4727276030
C       -1.2742673269   -1.1520749808   -1.2543233454
C       -2.2783847366   -4.0971612224    0.6429764918
C        1.2104880739   -3.7911165256    0.3461003518
C       -2.2553814611   -5.4509202809    1.2827773321
C        0.0397949673   -4.0991247634   -0.5737967041
N       -3.3315755727   -3.3167950580    0.7688381603
O        1.3180052049   -2.8198682706    1.0654709695
O       -3.0220047532   -2.1430566757    0.0616773465
O        2.1794257068   -4.7398652175    0.2445339445
S       -2.3475068101   -0.1332651088   -2.1842320904
H        1.1352590026    0.8289924370   -2.5100291292
H        0.8543213910   -1.2160837813   -0.8540171949
H       -1.1988536979    1.6371324028   -3.4377655392
H       -1.4333519120   -5.5259918821    2.0023590807
H       -3.1957407462   -5.6347394225    1.8058727559
H       -2.1141463902   -6.2365255402    0.5326383217
H        0.3279353006   -3.7311968551   -1.5669680374
H       -0.0524573802   -5.1849570399   -0.6602280961
H        2.9087578320   -4.4531803196    0.8281843227
24   
torsion grid (-135,)
C        0.1775707473    0.3204932260   -2.2380756647
C        0.0237112269   -0.8059808750   -1.3788527595
C       -1.0226848821    0.7851759243   -2.7182751280
C       -1.2866518230   -3.5176462017   -0.1203583724
C       -1.8093270972   -2.2911614677   -0.4472484197
C       -1.2953699956   -1.1844260382   -1.2223916232
C       -2.3133310677   -4.1267320237    0.6693625243
C        1.1720312692   -3.8205234519    0.4063042645
C       -2.2899882276   -5.4762751882    1.3174363715
C        0.0146849655   -4.1232886950   -0.5318205998
N       -3.3675035275   -3.3464704107    0.7876113320
O        1.1769707359   -3.0078693493    1.3063937642
O       -3.0543759632   -2.1739214533    0.0797163945
O        2.2571990254   -4.5815935025    0.0971985232
S       -2.3607733900   -0.1405083855   -2.1324230308
H        1.1326618551    0.7763864554   -2.4765637640
H        0.8392083473   -1.2825927962   -0.8472741564
H       -1.1975806191    1.6278465578   -3.3753105243
H       -1.4785114227   -5.5380527141    2.0501265580
H       -3.2366641160   -5.6646046139    1.8273809337
H       -2.1307917162   -6.2655586916    0.5747663374
H        0.3123799930   -3.7674988213   -1.5256751394
H       -0.0694741959   -5.2115070972   -0.6130722619
H        2.9625857288   -4.3223575029    0.7213303944
24   
torsion grid (-120,)
C        0.1668827002    0.3444754309   -2.3206226561
C        0.0321835472   -0.7940445841   -1.4744664941
C       -1.0452170165    0.8356861624   -2.7405382004
C       -1.2590917402   -3.4829496340   -0.1430670220
C       -1.7885561402   -2.2637643095   -0.4850600642
C       -1.2849208677   -1.1561157994   -1.2664842704
C       -2.2803602829   -4.0876654545    0.6572349115
C        1.1297125479   -3.9700352957    0.5189831583
C       -2.2365700837   -5.4231272447    1.3309466365
C        0.0475868987   -4.0817929991   -0.5432032110
N       -3.3385277624   -3.3125137580    0.7671701773
O        1.0026228793   -3.5018002925    1.6300583539
O       -3.0343189880   -2.1475962559    0.0417648527
O        2.3079149322   -4.4797487169    0.0650987271
S       -2.3706793071   -0.0802748953   -2.1127154764
H        1.1182586028    0.7878897923   -2.5946323838
H        0.8679429988   -1.2963989955   -1.0004638587
H       -1.2349172350    1.6917468322   -3.3757494505
H       -1.4279904198   -5.4481045950    2.0685469556
H       -3.1828734883   -5.6217369818    1.8376607146
H       -2.0544350891   -6.2229170521    0.6047464870
H        0.4286667733   -3.6248537999   -1.4619226431
H       -0.0610149968   -5.1490656279   -0.7710574183
H        2.9482057752   -4.3869664466    0.7969644689
24   
torsion grid (-105,)
C        0.1748924928    0.3166384204   -2.3389986257
C        0.0419875208   -0.8299540644   -1.5035312150
C       -1.0390771857    0.8379614623   -2.7147880863
C       -1.2640765113   -3.4980361541   -0.1374556561
C       -1.7831661524   -2.2731055914   -0.4758462101
C       -1.2754944137   -1.1681108789   -1.2590003972
C       -2.2881737790   -4.0951192514    0.6652085673
C        1.1079995424   -4.0200663067    0.5462417312
C       -2.2531287965   -5.4317326155    1.3367666983
C        0.0430585934   -4.0989901848   -0.5357985511
N       -3.3390757184   -3.3106990978    0.7792204497
O        0.9182253907   -3.8031001902    1.7240064592
O       -3.0260052754   -2.1465551745    0.0554900647
O        2.3463285412   -4.2519670955    0.0309322950
S       -2.3635394782   -0.0587760624   -2.0580568010
H        1.1266959467    0.7430164406   -2.6374884064
H        0.8834924890   -1.3583157036   -1.0696418308
H       -1.2302537324    1.7057606251   -3.3333997802
H       -1.4403073896   -5.4620104822    2.0687928847
H       -3.1994382010   -5.6232282091    1.8462019344
H       -2.0808522651   -6.2313476293    0.6077943839
H        0.4341919033   -3.6401471195   -1.4473309181
H       -0.0738729445   -5.1652519337   -0.7698678619
H        2.9680867278   -4.2230921746    0.7840571757
24   
torsion grid (-90,)
C        0.2303656352    0.2490913078   -2.3434726425
C        0.0870959103   -0.9092093539   -1.5262593226
C       -0.9768184509    0.8203050610   -2.6647903222
C       -1.2503769329   -3.5375319893   -0.1208119234
C       -1.7539201609   -2.3057262711   -0.4600005922
C       -1.2326898906   -1.2056699042   -1.2405597455
C       -2.2823985462   -4.1234421466    0.6796997057
C        1.1291442417   -4.0160887909    0.5536264330
C       -2.2666027127   -5.4624750598    1.3473075363
C        0.0553374792   -4.1478005488   -0.5153713144
N       -3.3234365707   -3.3257093757    0.7934801059
O        0.9401711825   -3.9925153530    1.7512942600
O       -2.9952327194   -2.1645406970    0.0706778626
O        2.3727418649   -3.9512176420    0.0043044601
S       -2.3083754743   -0.0426863527   -1.9783572552
H        1.1855776637    0.6472196753   -2.6688789568
H        0.9257435397   -1.4763599601   -1.1383674829
H       -1.1587499074    1.7065293318   -3.2596162102
H       -1.4437555474   -5.5122486429    2.0665103901
H       -3.2102503421   -5.6352575067    1.8682768207
H       -2.1221076758   -6.2627742834    0.6129493609
H        0.4262734262   -3.7278360815   -1.4526284372
H       -0.0624637779   -5.2250290995   -0.6903996694
H        3.0021763491   -3.9092168089    0.7507814828
24   
torsion grid (-75,)
C        0.2548874188    0.2129963636   -2.3451478730
C        0.0984548223   -0.9525709585   -1.5407861621
C       -0.9426143950    0.8227830278   -2.6298326042
C       -1.2769131103   -3.5546469535   -0.1238069035
C       -1.7582106585   -2.3099460411   -0.4501505452
C       -1.2228417569   -1.2152057528   -1.2282929505
C       -2.3119893084   -4.1253426994    0.6835898084
C        1.1049210259   -4.0009841799    0.5227494135
C       -2.3168219139   -5.4699826761    1.3403002376
C        0.0196786846   -4.1836997929   -0.5275242304
N       -3.3354233674   -3.3073467903    0.8130702590
O        0.9659973592   -4.1733717668    1.7152331258
O       -2.9906378963   -2.1476572986    0.0946677556
O        2.2878196273   -3.6174294373   -0.0312425046
S       -2.2821420190   -0.0116406584   -1.9241814443
H        1.2132068278    0.5883370838   -2.6881207469
H        0.9299556516   -1.5491743929   -1.1828214896
H       -1.1128916666    1.7221011187   -3.2082379926
H       -1.4834745522   -5.5456800958    2.0448093605
H       -3.2563811560   -5.6255625169    1.8738741899
H       -2.2020432485   -6.2664085186    0.5965339416
H        0.3673366828   -3.7929425240   -1.4855815326
H       -0.1050535857   -5.2658555734   -0.6529085589
H        2.9257849970   -3.5407912481    0.7054978542
24   
torsion grid (-60,)
C        0.2634102845    0.2172474107   -2.3876654140
C        0.1025683796   -0.9431534967   -1.5764926301
C       -0.9298345219    0.8387009845   -2.6651604552
C       -1.3027957469   -3.5357401416   -0.1583054413
C       -1.7606566324   -2.2774663527   -0.4679908043
C       -1.2186573033   -1.1902267580   -1.2521615629
C       -2.3398183861   -4.0908513881    0.6588543576
C        1.0575404907   -4.0555874541    0.4663852719
C       -2.3695183938   -5.4438685047    1.2979467373
C       -0.0293519991   -4.2006371620   -0.5876157265
N       -3.3417463624   -3.2505409083    0.8105740629
O        0.9867914807   -4.4675853144    1.6052576484
O       -2.9811504539   -2.0928477153    0.0967453977
O        2.1428865545   -3.3805746148   -0.0030129312
S       -2.2717675791    0.0216138802   -1.9440657921
H        1.2225511345    0.5813336747   -2.7404301114
H        0.9291322496   -1.5464253875   -1.2185789332
H       -1.0955870648    1.7371098848   -3.2463483468
H       -1.5131087394   -5.5629396689    1.9674817031
H       -3.2943733102   -5.5724390841    1.8634429361
H       -2.3126898598   -6.2320091607    0.5387096483
H        0.3190363398   -3.7977661600   -1.5401564406
H       -0.1922668403   -5.2753241374   -0.7205837067
H        2.7743742031   -3.3201235512    0.7408881706
24   
torsion grid (-45,)
C        0.2699013285    0.2123743052   -2.4044420764
C        0.1255619786   -0.9346887934   -1.5713812366
C       -0.9319969749    0.8121695728   -2.6924117512
C       -1.2651338953   -3.5376109101   -0.1409327534
C       -1.7183210658   -2.2745202134   -0.4391970289
C       -1.1918373434   -1.1929838236   -1.2419080524
C       -2.2897144524   -4.0851202630    0.6986400131
C        1.0704536556   -4.1427931555    0.4586102801
C       -2.3252033967   -5.4429438665    1.3277591662
C       -0.0134430414   -4.2267673429   -0.6034435499
N       -3.2787766316   -3.2347356158    0.8750811752
O        1.0960477214   -4.7910043084    1.4841779110
O       -2.9230043646   -2.0793299809    0.1554766465
O        2.0214506133   -3.2173168384    0.1533859232
S       -2.2625934720   -0.0088570204   -1.9550970342
H        1.2236989919    0.5834669860   -2.7643905978
H        0.9572535804   -1.5191087465   -1.1953581642
H       -1.1101822637    1.6972245093   -3.2901937647
H       -1.4527486320   -5.5880729103    1.9706542313
H       -3.2369595130   -5.5598512448    1.9165705129
H       -2.3031776852   -6.2240917429    0.5595764997
H        0.3425236408   -3.7903029697   -1.5384852051
H       -0.2118013334   -5.2892694139   -0.7698809032
H        2.6436883604   -3.1990197478    0.9070718054
24   
torsion grid (-30,)
C        0.2560844327    0.2470389203   -2.4407752847
C        0.1279576424   -0.8916753767   -1.5936395905
C       -0.9529874887    0.8336784626   -2.7258842949
C       -1.2455940728   -3.5021112029   -0.1491163953
C       -1.6958587213   -2.2346840572   -0.4333272176
C       -1.1843599440   -1.1570846677   -1.2508728433
C       -2.2555326310   -4.0434759166    0.7123753986
C        1.0752898909   -4.1826361901    0.4142460738
C       -2.2895559565   -5.4054763600    1.3331270447
C       -0.0158879205   -4.2115696657   -0.6419540634
N       -3.2327251706   -3.1854202383    0.9156858889
O        1.2342450415   -5.0152999147    1.2829220473
O       -2.8844010450   -2.0314253439    0.1910801335
O        1.8639483832   -3.0782624311    0.3057539693
S       -2.2707598731    0.0101647966   -1.9685662774
H        1.2038444973    0.6226700367   -2.8118231709
H        0.9651097900   -1.4637741787   -1.2116957744
H       -1.1432484937    1.7105434739   -3.3319810633
H       -1.3955923699   -5.5756476583    1.9395690757
H       -3.1787301620   -5.5106421911    1.9575570672
H       -2.3127523933   -6.1805952827    0.5590326856
H        0.3448511190   -3.7528548313   -1.5652843634
H       -0.2449687950   -5.2627275460   -0.8317827561
H        2.4963339883   -3.1122706735    1.0500282538
24   
torsion grid (-15,)
C        0.2638498186    0.2556994647   -2.4524420943
C        0.1374821142   -0.8745882329   -1.5938060089
C       -0.9466038806    0.8353912278   -2.7458636055
C       -1.2338665169   -3.4818476712   -0.1440087573
C       -1.6826512726   -2.2136501100   -0.4253025844
C       -1.1744810317   -1.1408111548   -1.2508231279
C       -2.2374697348   -4.0184639353    0.7271670100
C        1.0944251269   -4.2092789074    0.3881161016
C       -2.2705519952   -5.3802383411    1.3490820331
C       -0.0166552843   -4.2034388750   -0.6476167809
N       -3.2092699226   -3.1564583234    0.9401522432
O        1.4208355261   -5.1617841895    1.0657766764
O       -2.8642953457   -2.0050053315    0.2107672056
O        1.7013113509   -2.9951146540    0.4907605925
S       -2.2631598166    0.0155454343   -1.9823070972
H        1.2110593044    0.6311014961   -2.8251315850
H        0.9744106492   -1.4386520472   -1.1998472823
H       -1.1385208149    1.7056046615   -3.3609578331
H       -1.3753996733   -5.5538268475    1.9535953537
H       -3.1559282777   -5.4836123267    1.9791373073
H       -2.2983731934   -6.1566963810    0.5767601716
H        0.3464185692   -3.7378987938   -1.5680735667
H       -0.2606424897   -5.2483932596   -0.8490221907
H        2.3716133611   -3.0763950219    1.1968182694
24   
torsion grid (0,)
C        0.2748539477    0.2350493292   -2.4545952709
C        0.1403980730   -0.8877295464   -1.5873680449
C       -0.9329154657    0.8125064849   -2.7631541543
C       -1.2401186174   -3.4861249003   -0.1402032061
C       -1.6869617274   -2.2183405066   -0.4239918075
C       -1.1743251654   -1.1507434097   -1.2532058410
C       -2.2431652459   -4.0168657776    0.7343489424
C        1.1244761312   -4.2255737125    0.3366156908
C       -2.2791226524   -5.3769484347    1.3600861619
C       -0.0320508357   -4.2148551871   -0.6495073667
N       -3.2124887988   -3.1519853654    0.9477859558
O        1.6481071284   -5.2198963488    0.7948079351
O       -2.8663230273   -2.0039802983    0.2145982860
O        1.5429897349   -2.9684699932    0.6474288675
S       -2.2562240559   -0.0006521261   -2.0038244998
H        1.2252901989    0.6073400754   -2.8221439574
H        0.9728544968   -1.4476958702   -1.1782648839
H       -1.1193065145    1.6778054449   -3.3868100904
H       -1.3840813470   -5.5525574891    1.9649760583
H       -3.1618961696   -5.4752774436    1.9945862234
H       -2.3127937877   -6.1564840548    0.5912235414
H        0.3168230574   -3.7593882459   -1.5823330683
H       -0.2772054728   -5.2602862973   -0.8461376838
H        2.2794712562   -3.0692754998    1.2811428226
24   
torsion grid (15,)
C       -1.0855679148    1.0734432662   -2.1994380322
C       -1.6590372849    0.2301343149   -1.2058847550
C       -0.1480568937    0.4264102708   -2.9670968235
C       -1.0039829087   -3.3919375490   -0.0982193655
C       -1.5241799034   -2.1460500957   -0.3602044844
C       -1.1452718079   -1.0519653287   -1.2265345209
C       -1.9015605925   -3.9422532288    0.8725373175
C       -0.0094424082   -4.8365214553   -1.9469079734
C       -1.8347110197   -5.2920159922    1.5155259007
C        0.2189213177   -4.0460908970   -0.6668554882
N       -2.8678783639   -3.1027120561    1.1766578209
O        0.7452711381   -4.8568605344   -2.8966598111
O       -2.6373246914   -1.9564876687    0.3955698938
O       -1.1525750602   -5.5704635833   -1.9009935621
S        0.0471299372   -1.2255776951   -2.4946500906
H       -1.3538962865    2.1150330296   -2.3408508111
H       -2.4177068758    0.5403626509   -0.4961943652
H        0.4402399117    0.8221875528   -3.7852025400
H       -0.8899119883   -5.4213910796    2.0549403738
H       -2.6570835943   -5.4117842923    2.2234155119
H       -1.8983223844   -6.0774584385    0.7565101403
H        0.6254586382   -4.7574154584    0.0622927384
H        1.0092417476   -3.3240815055   -0.8788153124
H       -1.2034259876   -6.0533685386   -2.7485066031
24   
torsion grid (30,)
C       -1.1063700867    1.0493181726   -2.2134012360
C       -1.6717952670    0.2154722904   -1.2068610460
C       -0.1663736486    0.3992137168   -2.9750302952
C       -0.9898672949   -3.3951633113   -0.0739089439
C       -1.5182097489   -2.1529881730   -0.3345815112
C       -1.1502406037   -1.0632560555   -1.2104945452
C       -1.8822185662   -3.9515254245    0.8974163460
C        0.0276448395   -4.8295659918   -1.9369132206
C       -1.8103771190   -5.3040860144    1.5340933532
C        0.2311308314   -4.0430285972   -0.6487274574
N       -2.8522177923   -3.1173142152    1.2049153545
O        0.9006317261   -5.0491560797   -2.7508728947
O       -2.6299748906   -1.9691203741    0.4242687166
O       -1.2346670698   -5.3120755144   -2.0648702628
S        0.0415656554   -1.2444650461   -2.4782107210
H       -1.3820121471    2.0871344561   -2.3678952172
H       -2.4316293453    0.5303051958   -0.5004645667
H        0.4180514446    0.7879007899   -3.7992402037
H       -0.8651691185   -5.4344678568    2.0723273547
H       -2.6324096530   -5.4312493870    2.2410715908
H       -1.8737005872   -6.0870245004    0.7717649912
H        0.6465275014   -4.7581604570    0.0714494320
H        1.0231456110   -3.3183197559   -0.8491992361
H       -1.2505687676   -5.8180942918   -2.9003578049
24   
torsion grid (45,)
C       -1.1519527836    1.0265180030   -2.2061115870
C       -1.7100977010    0.1934348629   -1.1947837757
C       -0.1957071015    0.3855223569   -2.9550227322
C       -0.9810832582   -3.4000115919   -0.0374269466
C       -1.5205684705   -2.1626326447   -0.2973871440
C       -1.1669486182   -1.0761020055   -1.1824326687
C       -1.8641365301   -3.9593311002    0.9402009316
C        0.0434440791   -4.8137154189   -1.9233263536
C       -1.7787427764   -5.3100565967    1.5796452596
C        0.2353330320   -4.0456969311   -0.6209703707
N       -2.8383566437   -3.1314561879    1.2523696896
O        0.9587615818   -5.2428243995   -2.5955700665
O       -2.6286892973   -1.9840118723    0.4676533338
O       -1.2592477790   -5.0019923960   -2.2485838012
S        0.0365133275   -1.2493895745   -2.4401160120
H       -1.4442781872    2.0578362072   -2.3729128426
H       -2.4798370810    0.5023538854   -0.4965374400
H        0.3876957324    0.7760585420   -3.7790476306
H       -0.8303955400   -5.4324402326    2.1139567378
H       -2.5970890432   -5.4421388958    2.2899498622
H       -1.8400323280   -6.0976797763    0.8214926066
H        0.6585932715   -4.7677222423    0.0861118204
H        1.0306673732   -3.3195089937   -0.8101917834
H       -1.2611550293   -5.5079805092   -3.0843836410
24   
torsion grid (60,)
C       -1.1888813804    1.0203037040   -2.1569745940
C       -1.7437444956    0.1789957140   -1.1507903981
C       -0.2424293107    0.3822308703   -2.9207763346
C       -1.0110042078   -3.4193228380   -0.0142650761
C       -1.5570139471   -2.1848771126   -0.2749647614
C       -1.2091505308   -1.0943323927   -1.1574118611
C       -1.8866827124   -3.9793302394    0.9696922185
C        0.0183958546   -4.8439751192   -1.8930234127
C       -1.7893314550   -5.3251963974    1.6183385115
C        0.2056682751   -4.0654137257   -0.5959778925
N       -2.8636736225   -3.1550874269    1.2835086998
O        0.9005984480   -5.4858510437   -2.4261472598
O       -2.6630681964   -2.0099296749    0.4938691190
O       -1.2336606955   -4.7506024493   -2.4027067535
S       -0.0192161346   -1.2606648837   -2.4282091929
H       -1.4763223497    2.0551817030   -2.3095717145
H       -2.5042489983    0.4852312687   -0.4413469718
H        0.3359268137    0.7784205927   -3.7456743631
H       -0.8378465151   -5.4369093989    2.1492466763
H       -2.6037783666   -5.4573515262    2.3330811155
H       -1.8479351853   -6.1210019641    0.8683832218
H        0.6452241980   -4.7729885796    0.1135828466
H        0.9924563747   -3.3311634404   -0.7984244159
H       -1.2297173219   -5.2664882015   -3.2324089521
24   
torsion grid (75,)
C        0.1565605957    0.3581547233   -2.3206789039
C        0.0562049344   -0.8724131827   -1.6103077579
C       -1.0496813944    1.0068484062   -2.4252615632
C       -1.1981034984   -3.5512899712   -0.2322304402
C       -1.7108607657   -2.2958687561   -0.4551745268
C       -1.2317485230   -1.1452086067   -1.1859629224
C       -2.1853069572   -4.1864789041    0.5856255074
C        1.3186140970   -3.8924223910    0.1198731020
C       -2.1469411584   -5.5701209026    1.1552276238
C        0.0821300666   -4.1330709929   -0.7354237638
N       -3.2099463471   -3.3937563458    0.8203977065
O        2.4579996281   -4.0028872838   -0.2866951630
O       -2.9155004845   -2.1872476897    0.1609586096
O        1.0248104802   -3.5852968859    1.4076296371
S       -2.3286847148    0.1305843105   -1.6604669663
H        1.0832148542    0.7482702146   -2.7279116102
H        0.9077599252   -1.5093833604   -1.4010998708
H       -1.2581344515    1.9557352763   -2.9032404661
H       -1.2777392714   -5.6888798737    1.8101068211
H       -3.0527788667   -5.7649539596    1.7324569324
H       -2.0727875409   -6.3195475987    0.3597408599
H        0.3229377776   -3.7627349427   -1.7353744305
H        0.0049356807   -5.2216813346   -0.8413615213
H        1.8806755614   -3.4828578313    1.8677012553
24   
torsion grid (90,)
C        0.1624923889    0.3555957607   -2.3461764186
C        0.0616313439   -0.8682193589   -1.6241650516
C       -1.0443385003    1.0010506676   -2.4635632235
C       -1.1951171380   -3.5370002100   -0.2360907655
C       -1.7090484594   -2.2829395146   -0.4648284790
C       -1.2285830400   -1.1381424471   -1.2040870148
C       -2.1819143253   -4.1689267020    0.5849535597
C        1.3124114733   -3.8435917435    0.1182764655
C       -2.1421891877   -5.5504715828    1.1591500290
C        0.0874798064   -4.1146309749   -0.7420834765
N       -3.2067662131   -3.3753935938    0.8165644426
O        2.4380821756   -3.6901763899   -0.3120219760
O       -2.9130966070   -2.1711797645    0.1519715826
O        1.0280208943   -3.8422587785    1.4449518927
S       -2.3260688015    0.1302845610   -1.6971728423
H        1.0906276934    0.7434346280   -2.7521984141
H        0.9138733914   -1.5009945425   -1.4041074996
H       -1.2518952840    1.9448994028   -2.9518260827
H       -1.2733558615   -5.6641431887    1.8149189364
H       -3.0493602560   -5.7453014722    1.7342983178
H       -2.0648356650   -6.3017577835    0.3656265349
H        0.3231371985   -3.7452178679   -1.7425272606
H        0.0157507062   -5.2053695153   -0.8322863663
H        1.8745944452   -3.6923935935    1.9088967761
24   
torsion grid (105,)
C        0.1563171601    0.3516478786   -2.3514756269
C        0.0608925613   -0.8662585150   -1.6186624444
C       -1.0530675303    0.9908137571   -2.4770576830
C       -1.1966755689   -3.5341588687   -0.2219885865
C       -1.7078402642   -2.2786630903   -0.4525064515
C       -1.2292733685   -1.1377096915   -1.1990204976
C       -2.1840660026   -4.1631371436    0.6009425761
C        1.2962393387   -3.8091423886    0.1334923719
C       -2.1495619982   -5.5456809222    1.1731842103
C        0.0849456479   -4.1161304312   -0.7317342991
N       -3.2064000038   -3.3664090081    0.8328927890
O        2.3650540365   -3.4030785473   -0.2777278078
O       -2.9105100482   -2.1636118240    0.1663079112
O        1.0701176440   -4.0784901623    1.4444672183
S       -2.3322143792    0.1214480543   -1.7049929789
H        1.0835477341    0.7404313760   -2.7586861957
H        0.9160654614   -1.4917792028   -1.3887403133
H       -1.2638724466    1.9294525915   -2.9739602203
H       -1.2770408644   -5.6662982012    1.8223166309
H       -3.0550470799   -5.7353790591    1.7527008762
H       -2.0820800520   -6.2956527666    0.3774359019
H        0.3137269116   -3.7496864400   -1.7342758478
H        0.0129033616   -5.2077849288   -0.8009767843
H        1.8970426796   -3.8654387155    1.9188031090
24   
torsion grid (120,)
C        0.1357189801    0.3539154069   -2.3482455992
C        0.0554242302   -0.8492806302   -1.5894159274
C       -1.0859670375    0.9601752648   -2.5126120861
C       -1.1889522172   -3.5351201655   -0.2019747786
C       -1.7027371995   -2.2798341378   -0.4306746104
C       -1.2362562130   -1.1423844640   -1.1903931334
C       -2.1699714378   -4.1639860096    0.6296102490
C        1.2826522116   -3.8159954126    0.1598683310
C       -2.1352183014   -5.5490874355    1.1959616544
C        0.0871963260   -4.1233796446   -0.7254355698
N       -3.1905728863   -3.3671873093    0.8685078664
O        2.2618371154   -3.1797465020   -0.1767787542
O       -2.9001961784   -2.1651157457    0.1982422843
O        1.1468228103   -4.3489482791    1.4014406683
S       -2.3595105500    0.0775583032   -1.7463675906
H        1.0614624014    0.7571968658   -2.7446872026
H        0.9190598896   -1.4480960833   -1.3218817381
H       -1.3090101302    1.8822788242   -3.0345763141
H       -1.2492837530   -5.6822030304    1.8235813952
H       -3.0301268347   -5.7326855367    1.7935764559
H       -2.0928559063   -6.2953105791    0.3948405971
H        0.3166193861   -3.7345827802   -1.7190983406
H        0.0003724059   -5.2123386021   -0.8030556919
H        1.9433288517   -4.0907437315    1.9046199509
24   
torsion grid (135,)
C        0.1234071701    0.3734951601   -2.3597272728
C        0.0536681324   -0.8161698730   -1.5786539890
C       -1.1077932719    0.9475293105   -2.5645352076
C       -1.1789295613   -3.5186796317   -0.2007568113
C       -1.6967228579   -2.2654282985   -0.4340648276
C       -1.2398120050   -1.1312694755   -1.2043772065
C       -2.1578455823   -4.1479834280    0.6339480113
C        1.2688547249   -3.8180205242    0.1874384041
C       -2.1223282470   -5.5330072485    1.2009698448
C        0.0934996832   -4.1184474270   -0.7257849930
N       -3.1801176814   -3.3529166558    0.8709037608
O        2.1352916490   -2.9927010214   -0.0257702262
O       -2.8937851845   -2.1526496145    0.1959759571
O        1.2417219322   -4.5744327883    1.3153998073
S       -2.3784112919    0.0505997972   -1.8100697479
H        1.0485442000    0.7918584690   -2.7418057576
H        0.9213557143   -1.3891343263   -1.2701968012
H       -1.3396273911    1.8539118696   -3.1097533348
H       -1.2312315032   -5.6709388161    1.8200005792
H       -3.0130844549   -5.7133956743    1.8057079380
H       -2.0892007001   -6.2791891198    0.3993333589
H        0.3328469690   -3.7149069143   -1.7114158831
H       -0.0135406520   -5.2039772715   -0.8085374302
H        1.9997284873   -4.2882481743    1.8614468201
24   
torsion grid (150,)
C        0.1184476767    0.3969871892   -2.3557904137
C        0.0528130752   -0.7721402681   -1.5436913612
C       -1.1204522871    0.9233334675   -2.6307149873
C       -1.1686897062   -3.4966189931   -0.1925322068
C       -1.6952136487   -2.2493214732   -0.4365432232
C       -1.2448519155   -1.1199348765   -1.2178181694
C       -2.1459008032   -4.1273288994    0.6437054633
C        1.2581301797   -3.8282516724    0.2373205511
C       -2.1043708677   -5.5098815071    1.2170931804
C        0.1048435199   -4.1018234248   -0.7123344412
N       -3.1748456569   -3.3381762759    0.8713540484
O        1.9891776170   -2.8579872172    0.1982895929
O       -2.8953414883   -2.1410799649    0.1885987447
O        1.3667233883   -4.7856519736    1.1952093673
S       -2.3936049559    0.0054629686   -1.9059508930
H        1.0453539763    0.8368672979   -2.7083695991
H        0.9195736876   -1.3075155173   -1.1714920387
H       -1.3571147263    1.8062313925   -3.2112766514
H       -1.2071323217   -5.6480866452    1.8272480598
H       -2.9891501746   -5.6873388306    1.8313783804
H       -2.0793997924   -6.2594354762    0.4183147776
H        0.3626315117   -3.6734198522   -1.6832555457
H       -0.0214827363   -5.1823031818   -0.8164507297
H        2.0900602630   -4.5040031503    1.7890063435
24   
torsion grid (165,)
C        0.1179099239    0.4058008984   -2.3460922461
C        0.0447975085   -0.7416905768   -1.5039910741
C       -1.1203078910    0.8852754294   -2.6989926937
C       -1.1738121788   -3.4829012852   -0.1825371351
C       -1.7083329650   -2.2436625804   -0.4448161427
C       -1.2566008742   -1.1205006780   -1.2346530149
C       -2.1537102435   -4.1129605439    0.6508327992
C        1.2499682522   -3.8427381465    0.2783192612
C       -2.1050643359   -5.4890072821    1.2398745653
C        0.1028252709   -4.0928567192   -0.6871339770
N       -3.1921366125   -3.3308541002    0.8590523873
O        1.8215848792   -2.7813507217    0.4310113468
O       -2.9163503259   -2.1392895483    0.1660696971
O        1.5542405858   -4.9465349365    1.0095227211
S       -2.4013371529   -0.0512755447   -2.0124692362
H        1.0479631084    0.8657328944   -2.6630810131
H        0.9022545770   -1.2394008205   -1.0642818534
H       -1.3528318273    1.7441854259   -3.3160768735
H       -1.2111695833   -5.6160549161    1.8580056676
H       -2.9914757240   -5.6663409504    1.8517865011
H       -2.0694731964   -6.2475702681    0.4502095669
H        0.3762490495   -3.6515604027   -1.6493852451
H       -0.0333823461   -5.1694194341   -0.8092007807
H        2.2668905652   -4.6835962192    1.6247854727
24   
torsion grid (180,)
C        0.1406651424    0.4190666400   -2.3237763988
C        0.0406177671   -0.7089657541   -1.4583313906
C       -1.0843068094    0.8640156326   -2.7585736642
C       -1.2001672313   -3.4560023026   -0.1768915605
C       -1.7355281850   -2.2237676370   -0.4638442685
C       -1.2661710281   -1.1078276489   -1.2541380573
C       -2.1946998411   -4.0819411222    0.6416833645
C        1.2373777637   -3.8286580085    0.3073093352
C       -2.1508722312   -5.4494974419    1.2506052512
C        0.0829262646   -4.0677540821   -0.6541755160
N       -3.2417229124   -3.3033661060    0.8181881630
O        1.6349405111   -2.7399349261    0.6710921818
O       -2.9574611986   -2.1182396179    0.1184224040
O        1.7940287590   -4.9903034723    0.7380392671
S       -2.3845099468   -0.0820304375   -2.1224386693
H        1.0781639436    0.8911676456   -2.5981083279
H        0.8777462078   -1.1771066808   -0.9523862091
H       -1.2977322188    1.7034194909   -3.4084907051
H       -1.2884525475   -5.5520362439    1.9170436561
H       -3.0624841805   -5.6354300817    1.8215854555
H       -2.0614440948   -6.2182454597    0.4754083952
H        0.3702583406   -3.6249692302   -1.6140492090
H       -0.0450396213   -5.1428627271   -0.7947953690
H        2.5197253268   -4.7416601989    1.3440330903
