25   
torsion grid (-165,)
C       -2.6211806555   -1.3476378816   -0.5453236309
C       -2.8525411613   -0.4760187154   -1.6118642120
C       -1.3278815218   -1.5064920569   -0.0494267189
C       -1.7769993741    0.2057634819   -2.1704541775
C       -0.2087084401   -0.8437542717   -0.5853206878
C       -0.4780189884    0.0061159319   -1.6830347987
C        1.8238533525    0.1585373318    0.6155960230
C        2.0876385139   -1.9774316774   -0.6451292882
C        3.1095925186    0.4245884052    0.3360928808
C        3.3621874212   -1.6282287581   -0.8750236893
C        1.1279344286   -1.1013698911    0.1391255729
N        3.9276334189   -0.4572355488   -0.3682624421
N        0.5671564086    0.7706150664   -2.4001744335
O        1.7456899187    0.4570140378   -2.2382305525
O        0.1960137282    1.6970600718   -3.1366090805
H       -3.4444473297   -1.8928392891   -0.0911319802
H       -3.8542001333   -0.3265174854   -2.0041787584
H       -1.1686921699   -2.1651597632    0.8004913790
H       -1.9182275455    0.8910639479   -2.9968851429
H        1.2579210268    0.8601194570    1.2212800035
H        1.7225556466   -2.9283930716   -1.0209809152
H        3.5949882829    1.3332809301    0.6792661757
H        4.0380498761   -2.2609287119   -1.4425119498
H        0.8158941452   -1.6649004131    1.0309735654
H        4.7227349962   -0.0703581783   -0.8571126010
25   
torsion grid (-150,)
C       -2.6132742960   -1.4087296651   -0.5994788201
C       -2.8388210650   -0.4985667052   -1.6354700101
C       -1.3283285820   -1.5641377594   -0.0796514735
C       -1.7652442379    0.2255906827   -2.1445209089
C       -0.2131018894   -0.8659948878   -0.5740237442
C       -0.4745319285    0.0147264106   -1.6444637587
C        1.8200667026    0.2002643216    0.5535010889
C        2.0714468731   -2.0119720495   -0.5685055112
C        3.1003471877    0.4511577858    0.2361814562
C        3.3414698535   -1.6763112332   -0.8387337707
C        1.1184670732   -1.0867850903    0.1668259785
N        3.9115575969   -0.4738767491   -0.4174801229
N        0.5770040205    0.8102838515   -2.3114496073
O        1.7144780907    0.3445531266   -2.3756352397
O        0.2452301976    1.9063856871   -2.7845982733
H       -3.4373695115   -1.9821349421   -0.1832296959
H       -3.8358411838   -0.3495471232   -2.0395793780
H       -1.1748988000   -2.2420581322    0.7564277761
H       -1.9029094744    0.9466079158   -2.9417392848
H        1.2610472371    0.9408654508    1.1178384970
H        1.7022362947   -2.9838421099   -0.8814178510
H        3.5860813405    1.3834113482    0.5082896239
H        4.0100414171   -2.3426231167   -1.3754406243
H        0.8052930988   -1.5923934449    1.0928557354
H        4.6977102386   -0.1182210845   -0.9432112835
25   
torsion grid (-135,)
C       -2.6077240002   -1.4322633031   -0.6433290724
C       -2.8080783603   -0.5070137482   -1.6715492929
C       -1.3379237674   -1.5888533987   -0.0858512740
C       -1.7255279855    0.2357210148   -2.1367999483
C       -0.2176474407   -0.8753902302   -0.5415897930
C       -0.4525687689    0.0200839338   -1.6009292484
C        1.8037090354    0.2339179914    0.5395602546
C        2.0592454216   -2.0169735784   -0.4995907157
C        3.0681206614    0.4953216874    0.1697467112
C        3.3131882722   -1.6698022412   -0.8250744485
C        1.1070412785   -1.0723998544    0.2123712177
N        3.8721983504   -0.4395987934   -0.4763115657
N        0.6196307691    0.8250362684   -2.2216209918
O        1.6777835328    0.2638120439   -2.5086883598
O        0.3692878258    2.0150697849   -2.4498910626
H       -3.4415169805   -2.0150003406   -0.2608550927
H       -3.7942436340   -0.3579715518   -2.1015119919
H       -1.2031506818   -2.2755366583    0.7466185073
H       -1.8465196701    0.9726066286   -2.9234200477
H        1.2512003903    0.9857265498    1.0952063593
H        1.6988066592   -3.0071712559   -0.7609025266
H        3.5448099415    1.4458370984    0.3895075182
H        3.9772072255   -2.3463132643   -1.3544560790
H        0.7967034075   -1.5457655466    1.1563323870
H        4.6354463385   -0.0930080648   -1.0403257273
25   
torsion grid (-120,)
C       -2.5840510769   -1.4525408194   -0.6918806287
C       -2.7546693588   -0.5387186961   -1.7358552634
C       -1.3350905814   -1.5914077603   -0.0837566773
C       -1.6646043434    0.2184942935   -2.1621858352
C       -0.2099764268   -0.8636753983   -0.5011160219
C       -0.4175883650    0.0280829404   -1.5644621971
C        1.8262330504    0.2534909673    0.5340083751
C        2.0409888673   -2.0205558298   -0.4570548209
C        3.0644438799    0.5140734965    0.0820026254
C        3.2688115996   -1.6727411331   -0.8717928218
C        1.1114157817   -1.0537882151    0.2562252572
N        3.8296152169   -0.4254102460   -0.6004845472
N        0.6746179918    0.8406324378   -2.1429814503
O        1.6393607876    0.2460375562   -2.6277304916
O        0.5127586855    2.0654811873   -2.1649083776
H       -3.4257043879   -2.0428901853   -0.3396069801
H       -3.7241178046   -0.4086328758   -2.2080201201
H       -1.2211969900   -2.2768224123    0.7530439742
H       -1.7653765913    0.9488309389   -2.9587848309
H        1.3058429275    1.0125567528    1.1100820526
H        1.6798127949   -3.0245576617   -0.6574323688
H        3.5478758926    1.4705414331    0.2558319700
H        3.9096147324   -2.3618324905   -1.4133653628
H        0.8079557186   -1.5019752695    1.2143023126
H        4.5611507431   -0.0897377412   -1.2107188009
25   
torsion grid (-105,)
C       -2.5662719955   -1.4875140991   -0.7210412465
C       -2.7110172139   -0.6086309655   -1.7985932491
C       -1.3404574141   -1.5815043897   -0.0596682381
C       -1.6244235590    0.1695425979   -2.1976493531
C       -0.2199818772   -0.8306834460   -0.4473553361
C       -0.4089808528    0.0428023800   -1.5260631384
C        1.8518018281    0.2698354566    0.5438447303
C        1.9939673754   -2.0138182253   -0.4319116666
C        3.0761660615    0.5068556040    0.0434171793
C        3.2089856596   -1.6881270393   -0.9003721015
C        1.1034536989   -1.0246439519    0.3023408891
N        3.8004234953   -0.4491275682   -0.6605441653
N        0.6875926930    0.8818440496   -2.0648373238
O        1.5638606535    0.3210232952   -2.7268031639
O        0.5963777747    2.1010189888   -1.8945355497
H       -3.4074545511   -2.0915866102   -0.3917237450
H       -3.6596025354   -0.5221180531   -2.3205124934
H       -1.2387982737   -2.2560643207    0.7875955556
H       -1.7106125802    0.8729786378   -3.0204806545
H        1.3628996799    1.0470295099    1.1230206149
H        1.6085501811   -3.0125052734   -0.6127667471
H        3.5784414838    1.4583524754    0.1879196822
H        3.8154579197   -2.3915268510   -1.4626228104
H        0.8121085132   -1.4579299906    1.2709254091
H        4.5148435026   -0.1299346749   -1.2991973362
25   
torsion grid (-90,)
C       -2.5483852210   -1.5123121883   -0.7340444189
C       -2.6734591516   -0.6825786122   -1.8523525299
C       -1.3449802077   -1.5539402618   -0.0279593036
C       -1.5930498896    0.1102220383   -2.2404051093
C       -0.2328249935   -0.7824460291   -0.3995803422
C       -0.4119202430    0.0609532298   -1.5023928221
C        1.8855936524    0.2827523857    0.5650350256
C        1.9435141660   -1.9959886968   -0.4229152778
C        3.1059188839    0.4873977901    0.0415380491
C        3.1565595993   -1.7020355203   -0.9185799858
C        1.0955468298   -0.9884857975    0.3388952060
N        3.7913974928   -0.4854065830   -0.6801306391
N        0.6763484417    0.9316696178   -2.0118508304
O        1.4532787446    0.4464830774   -2.8377448370
O        0.6637269160    2.1123632347   -1.6558585339
H       -3.3848218816   -2.1285139261   -0.4154102174
H       -3.6006270665   -0.6479660088   -2.4170484017
H       -1.2501985800   -2.2112377373    0.8336603323
H       -1.6642525499    0.7729153459   -3.0981090648
H        1.4279021880    1.0762780254    1.1471099704
H        1.5243321303   -2.9805298951   -0.6061427633
H        3.6357553436    1.4248646420    0.1785550035
H        3.7268241523   -2.4185392402   -1.5018483632
H        0.8127524343   -1.4169644839    1.3121724054
H        4.5048614774   -0.1834821859   -1.3281265854
25   
torsion grid (-75,)
C       -2.6346486377   -0.9608056760   -0.4173364393
C       -2.7333751628   -0.3423806960   -1.6671921679
C       -1.3799612034   -1.2728666887    0.1091468571
C       -1.5695194423   -0.0505215007   -2.3785635681
C       -0.1876246627   -0.9748733747   -0.5686777661
C       -0.3310445356   -0.3693805027   -1.8236969399
C        1.6830357950   -0.0544744765    0.8227806645
C        2.2005544953   -1.8319646341   -0.8371375841
C        2.8632813186    0.5087520943    0.5196496996
C        3.3651060598   -1.2048262368   -1.0727411656
C        1.1516766903   -1.2877841612    0.1100002349
N        3.7509643995   -0.0507299935   -0.3977262107
N        0.8387639158    0.0186073832   -2.6476186939
O        1.0808482930   -0.6726189887   -3.6405025757
O        1.4595409564    1.0310807782   -2.3171262301
H       -3.5328717613   -1.2039740654    0.1438689169
H       -3.7030044139   -0.0941988476   -2.0890114007
H       -1.3114638301   -1.7616915390    1.0785086692
H       -1.6140495655    0.4156620656   -3.3585241568
H        1.0583871207    0.4056143030    1.5822429789
H        1.9852551087   -2.7533533756   -1.3691689025
H        3.2082622209    1.4159156734    1.0063087523
H        4.0848806072   -1.5869421592   -1.7899705896
H        0.9093442561   -2.0568084269    0.8588187436
H        4.4177548668    0.5606109876   -0.8472720669
25   
torsion grid (-60,)
C       -2.6382092891   -0.9955902611   -0.4374379752
C       -2.7413555707   -0.4301126259   -1.7116920178
C       -1.3807808542   -1.2403220885    0.1174828327
C       -1.5785282658   -0.1114681094   -2.4118800456
C       -0.1898017729   -0.9111724772   -0.5478937481
C       -0.3355561895   -0.3338517031   -1.8179576452
C        1.7274763198   -0.0240864222    0.8379945830
C        2.1681810966   -1.8213253126   -0.8270201679
C        2.9264774661    0.4932409250    0.5290117810
C        3.3528852160   -1.2361209936   -1.0710331835
C        1.1482095510   -1.2365639966    0.1290182276
N        3.7826457360   -0.0963673989   -0.4000457695
N        0.8233409131    0.0985459433   -2.6305928374
O        0.9604581159   -0.4292445168   -3.7390118350
O        1.5308692703    1.0050057896   -2.1862652774
H       -3.5347393859   -1.2603058035    0.1167349420
H       -3.7129097199   -0.2462315109   -2.1611030294
H       -1.3095615213   -1.7111515430    1.0954236258
H       -1.6228898196    0.3129144377   -3.4100925964
H        1.1275534133    0.4545933655    1.6058129599
H        1.9187617428   -2.7411253400   -1.3471429911
H        3.3116378891    1.3839661475    1.0158560910
H        4.0555555026   -1.6451658844   -1.7904952704
H        0.8912309203   -1.9955461914    0.8831505353
H        4.4707469245    0.4893836959   -0.8513631636
25   
torsion grid (-45,)
C       -2.6433482745   -1.0371049305   -0.4493617487
C       -2.7624811870   -0.5074868181   -1.7373703435
C       -1.3785202394   -1.2199564561    0.1117140151
C       -1.6113306442   -0.1532697055   -2.4376302752
C       -0.1963790537   -0.8560682395   -0.5524570207
C       -0.3604422338   -0.2947921181   -1.8308848477
C        1.7541510432    0.0148033977    0.8302559459
C        2.1466727599   -1.8137112867   -0.8158077970
C        2.9794058092    0.4757658338    0.5368314081
C        3.3579175734   -1.2801704517   -1.0465129300
C        1.1414391252   -1.1843816660    0.1285764759
N        3.8246832368   -0.1549518029   -0.3753620626
N        0.7757752608    0.1805966490   -2.6476678053
O        0.7886175956   -0.1458461983   -3.8406527449
O        1.5903248775    0.9403159200   -2.1204630849
H       -3.5300057233   -1.3277314237    0.1078480029
H       -3.7380943363   -0.3782628453   -2.1967936257
H       -1.2931924554   -1.6779204599    1.0944449369
H       -1.6665052279    0.2477690012   -3.4440136367
H        1.1646827084    0.5220295679    1.5878195627
H        1.8690546749   -2.7313296153   -1.3257067304
H        3.3956633780    1.3519876860    1.0244651350
H        4.0556668302   -1.7252123208   -1.7494074849
H        0.8672129279   -1.9277986091    0.8921413774
H        4.5446507443    0.3980810469   -0.8180542386
25   
torsion grid (-30,)
C       -2.6492359842   -1.0869435820   -0.4335542934
C       -2.8022286018   -0.5606640022   -1.7189724747
C       -1.3726089200   -1.2313984797    0.1099189475
C       -1.6710548081   -0.1683740492   -2.4286824952
C       -0.2061987290   -0.8341389920   -0.5653760878
C       -0.4043608186   -0.2686438469   -1.8415225557
C        1.7535181089    0.0655323713    0.8016572567
C        2.1417172451   -1.8217054798   -0.7805177554
C        3.0108009700    0.4645302902    0.5589787688
C        3.3846120463   -1.3475846439   -0.9631178548
C        1.1331913070   -1.1445786285    0.1264202394
N        3.8752467462   -0.2346121835   -0.2844396326
N        0.7018648503    0.2430090682   -2.6773060225
O        0.5677302555    0.1657395637   -3.9061823767
O        1.6574282202    0.7806012460   -2.1168823200
H       -3.5184283300   -1.4038103452    0.1367773988
H       -3.7866482442   -0.4607477149   -2.1667701609
H       -1.2634496983   -1.6870385633    1.0911230714
H       -1.7503463922    0.2370107956   -3.4305992300
H        1.1467714503    0.6256293708    1.5065487532
H        1.8427003777   -2.7310012139   -1.2936032918
H        3.4379247426    1.3411914866    1.0365085693
H        4.0916613830   -1.8341891823   -1.6282335819
H        0.8476910039   -1.8613079807    0.9113147473
H        4.6325529765    0.2797354191   -0.7119329112
25   
torsion grid (-15,)
C       -2.6354452706   -1.1626699068   -0.4717731879
C       -2.8124819164   -0.5932510852   -1.7348238790
C       -1.3525295444   -1.2770365184    0.0620885909
C       -1.6987084241   -0.1326910402   -2.4287099430
C       -0.1985493197   -0.8197327857   -0.5994211267
C       -0.4210440836   -0.2172327313   -1.8589644970
C        1.7660167684    0.1399813684    0.7339181940
C        2.1480557355   -1.8443204074   -0.7282919820
C        3.0416394537    0.4890965321    0.5103900192
C        3.4093953158   -1.4166850550   -0.8958362161
C        1.1369977528   -1.0969194563    0.1189075791
N        3.9120524148   -0.2814495255   -0.2621077696
N        0.6605723812    0.3511504471   -2.6946043823
O        0.4072285552    0.5733744618   -3.8880270743
O        1.7365751436    0.6211205804   -2.1622500316
H       -3.4894666997   -1.5303925605    0.0910033772
H       -3.8012632394   -0.5093576438   -2.1762590172
H       -1.2271257867   -1.7531017063    1.0312529938
H       -1.7972758804    0.3124021797   -3.4109328406
H        1.1548089294    0.7544099974    1.3879467940
H        1.8363549701   -2.7704813478   -1.2020587559
H        3.4791891360    1.3798180943    0.9511377783
H        4.1221038749   -1.9585377235   -1.5103041509
H        0.8367776679   -1.7621671599    0.9422088250
H        4.6954922006    0.1879146594   -0.6943586209
25   
torsion grid (0,)
C       -2.6201163083   -1.2925466971   -0.5389767125
C       -2.8170411344   -0.6278864207   -1.7509611160
C       -1.3368375767   -1.3845754493   -0.0024886377
C       -1.7206273000   -0.0696581318   -2.3983042987
C       -0.1973243517   -0.8362788515   -0.6200590590
C       -0.4355558166   -0.1701273815   -1.8464895807
C        1.7729545490    0.2346831874    0.6255623623
C        2.1351086238   -1.9043406439   -0.6071731892
C        3.0589385968    0.5335437781    0.3859643278
C        3.4069197233   -1.5217392713   -0.7984382726
C        1.1283782088   -1.0496947657    0.1394500659
N        3.9229613461   -0.3317059435   -0.2852920059
N        0.6268903771    0.4749494890   -2.6540852583
O        0.2892743351    1.0275465998   -3.7123727791
O        1.7869830606    0.4370300215   -2.2473406976
H       -3.4593679159   -1.7382338185   -0.0113908386
H       -3.8076115010   -0.5435723787   -2.1882705607
H       -1.2004410114   -1.9053282053    0.9416609020
H       -1.8359205739    0.4528314648   -3.3392949758
H        1.1675359521    0.9249135162    1.2053112084
H        1.8101399116   -2.8702999633   -0.9818470599
H        3.5090548415    1.4572818887    0.7370638012
H        4.1183300125   -2.1410418598   -1.3365123702
H        0.8101503592   -1.6153593211    1.0273932385
H        4.7223509941    0.0728257674   -0.7524038819
25   
torsion grid (15,)
C       -2.5927163777   -1.4146814495   -0.6173759470
C       -2.8021599387   -0.6540455007   -1.7699578165
C       -1.3156676814   -1.4944392247   -0.0635291954
C       -1.7205842323   -0.0037209041   -2.3542167964
C       -0.1917208656   -0.8600477963   -0.6227111957
C       -0.4359871301   -0.1291816605   -1.8080908594
C        1.7821019381    0.3128408095    0.5180357783
C        2.1206409388   -1.9505401511   -0.4739084248
C        3.0725403728    0.5689322332    0.2513789997
C        3.3971545358   -1.6066806617   -0.7004769118
C        1.1217312120   -1.0069974273    0.1708657885
N        3.9278090846   -0.3743870913   -0.3158084077
N        0.6212613729    0.5829030376   -2.5606904605
O        0.2622591277    1.4279122802   -3.3942983037
O        1.7956219323    0.2731033146   -2.3632832462
H       -3.4212691944   -1.9325620313   -0.1413598250
H       -3.7917834574   -0.5651615150   -2.2085192015
H       -1.1746820488   -2.0623798447    0.8525546040
H       -1.8454569359    0.5964646984   -3.2468370463
H        1.1848043390    1.0702602537    1.0169729921
H        1.7823245401   -2.9447947953   -0.7493179668
H        3.5318304552    1.5209618146    0.5000166519
H        4.1014090360   -2.2881822817   -1.1681036617
H        0.7869902472   -1.4687402161    1.1117450042
H        4.7328374184   -0.0323118289   -0.8216102946
25   
torsion grid (30,)
C       -2.5936262961   -1.4871421193   -0.6607816775
C       -2.7926957570   -0.6866169247   -1.7886867442
C       -1.3303342069   -1.5569080519   -0.0733050220
C       -1.7142867721    0.0150386851   -2.3194588722
C       -0.2114279708   -0.8790003798   -0.5861016214
C       -0.4431240734   -0.1142318980   -1.7476920677
C        1.7535665719    0.3559396612    0.4847746874
C        2.0899257771   -1.9637983938   -0.3643804681
C        3.0350074857    0.6043618426    0.1695218873
C        3.3577542388   -1.6262882193   -0.6430863111
C        1.0921078711   -0.9833262863    0.2257212813
N        3.8836605634   -0.3658585317   -0.3575468535
N        0.6219907261    0.6356339681   -2.4458977863
O        0.2936910101    1.6784180985   -3.0282879249
O        1.7548398014    0.1540544602   -2.4734369479
H       -3.4228748126   -2.0392305571   -0.2263544136
H       -3.7736516097   -0.6041456446   -2.2475014356
H       -1.1991077142   -2.1455686199    0.8314184890
H       -1.8327480768    0.6525066499   -3.1878223609
H        1.1633423051    1.1390451128    0.9514806808
H        1.7551463639   -2.9770252022   -0.5644086280
H        3.4911084052    1.5739280798    0.3455917156
H        4.0580370802   -2.3326790868   -1.0785160443
H        0.7522179441   -1.3871608684    1.1914131388
H        4.6774437643   -0.0530241434   -0.8985429123
25   
torsion grid (45,)
C       -2.5777282034   -1.5063526932   -0.7062401480
C       -2.7452547273   -0.6935268263   -1.8309173823
C       -1.3322486523   -1.5774629340   -0.0803290214
C       -1.6565352865    0.0239065422   -2.3218233416
C       -0.2061608651   -0.8874411243   -0.5565119706
C       -0.4073558961   -0.1089472441   -1.7096831342
C        1.7559138168    0.3738066204    0.4607432418
C        2.0805545522   -1.9745116463   -0.3060991378
C        3.0167404698    0.6244140737    0.0703802796
C        3.3276406012   -1.6346224395   -0.6651734735
C        1.0903696912   -0.9740090643    0.2635384698
N        3.8448751389   -0.3543745207   -0.4692254270
N        0.6808218672    0.6474527799   -2.3639029824
O        0.4366613235    1.8141185487   -2.6942801018
O        1.7289299421    0.0515418983   -2.6187835000
H       -3.4184071030   -2.0655165000   -0.3041229123
H       -3.7128915143   -0.6107316911   -2.3171374697
H       -1.2232308210   -2.1738367553    0.8225687846
H       -1.7545509179    0.6747493157   -3.1840831529
H        1.1835892502    1.1656844143    0.9345501706
H        1.7528201467   -3.0010157101   -0.4384832949
H        3.4701943174    1.6037033887    0.1901638686
H        4.0175179386   -2.3524135741   -1.0983951147
H        0.7525078926   -1.3429659886    1.2436857659
H        4.6084796100   -0.0561330749   -1.0593980690
25   
torsion grid (60,)
C       -2.5549281822   -1.5237266352   -0.7323893425
C       -2.6959186220   -0.7307029253   -1.8749171763
C       -1.3323052251   -1.5661291818   -0.0597937004
C       -1.6045141847    0.0067005945   -2.3321710221
C       -0.2060222727   -0.8563708420   -0.5038595364
C       -0.3847433160   -0.0830869000   -1.6604135281
C        1.7821186619    0.3945456662    0.4698400168
C        2.0524891942   -1.9653383198   -0.2746604639
C        3.0277884248    0.6271146785    0.0229324151
C        3.2853633190   -1.6424435724   -0.6946930427
C        1.0912440230   -0.9447715530    0.3107154876
N        3.8228440907   -0.3652461541   -0.5401983014
N        0.7155063506    0.6957505230   -2.2713027446
O        0.5535314760    1.9166956201   -2.3661622574
O        1.6845557730    0.0740208189   -2.7118315002
H       -3.3992571009   -2.0954563852   -0.3566250275
H       -3.6447752361   -0.6778827548   -2.4008143315
H       -1.2406088043   -2.1595394573    0.8471548418
H       -1.6850540016    0.6456599854   -3.2061009230
H        1.2364515509    1.2015394925    0.9491719785
H        1.7095307208   -2.9899790320   -0.3799846174
H        3.4930061188    1.6044416293    0.1072716907
H        3.9482281347   -2.3732384545   -1.1477770788
H        0.7645756474   -1.2967079717    1.3008000373
H        4.5634522308   -0.0821230449   -1.1660038564
25   
torsion grid (75,)
C       -2.6043337471   -1.4277000588   -0.7545792270
C       -2.7609670515   -0.4707068955   -1.7615612974
C       -1.3672333511   -1.5832248524   -0.1267884793
C       -1.6739006657    0.3255093789   -2.1222010821
C       -0.2466274121   -0.8146333018   -0.4782479179
C       -0.4498326317    0.1424726600   -1.4806842312
C        1.8836521066    0.1542622608    0.5385796115
C        1.9358920370   -2.0378563917   -0.6337012585
C        3.0991654475    0.4036359781    0.0232939154
C        3.1456882944   -1.7030292006   -1.1097105237
C        1.0938408025   -1.0959489287    0.2119870767
N        3.7787174999   -0.5060618133   -0.7806370192
N        0.6450288728    1.0152389429   -1.9679732594
O        0.6158880742    2.1992970135   -1.6224231012
O        1.4802726914    0.5152438627   -2.7242857476
H       -3.4449156933   -2.0481131222   -0.4555828652
H       -3.7178264110   -0.3386851657   -2.2582439682
H       -1.2552257702   -2.3240837834    0.6618123604
H       -1.7681948240    1.0878204044   -2.8900725192
H        1.4315979325    0.8921314110    1.1939592868
H        1.5180330357   -3.0067163067   -0.8892836601
H        3.6301458339    1.3270048313    0.2328628157
H        3.7152856836   -2.3696061867   -1.7500217413
H        0.8209923999   -1.6042168112    1.1490523903
H        4.4829403780   -0.1500725203   -1.4111004694
25   
torsion grid (90,)
C       -2.6426389275   -0.9255430024   -0.3013228995
C       -2.7630158077   -0.1456983811   -1.4555085953
C       -1.3852311852   -1.3597923822    0.1215011023
C       -1.6176670268    0.1764051691   -2.1839455670
C       -0.2109909360   -1.0408056716   -0.5782247739
C       -0.3787844180   -0.2890247017   -1.7470335245
C        1.6874067655   -0.2690674110    0.8388812269
C        2.1736642036   -1.8749066670   -0.9930155025
C        2.8541490069    0.3346970022    0.5597895037
C        3.3278233564   -1.2176660362   -1.1958920884
C        1.1437594005   -1.4333928215    0.0245240598
N        3.7223470361   -0.1271420289   -0.4265130003
N        0.7719718600    0.1260559350   -2.5868287094
O        1.3346144067    1.1844690577   -2.2963664080
O        1.0171978272   -0.5599993969   -3.5818953095
H       -3.5271476958   -1.1915550136    0.2711181232
H       -3.7345831282    0.2068357926   -1.7894633331
H       -1.2987710515   -1.9556683120    1.0275264726
H       -1.6797009222    0.7710783127   -3.0908091496
H        1.0787803960    0.1123099178    1.6529610141
H        1.9504360043   -2.7399587148   -1.6093269232
H        3.2027484848    1.1963555430    1.1208817272
H        4.0316798299   -1.5243452427   -1.9632689134
H        0.9187778682   -2.2727971634    0.6994318426
H        4.3825488106    0.5244203927   -0.8261138935
25   
torsion grid (105,)
C       -2.6559525641   -0.9539347972   -0.3239526020
C       -2.7809547642   -0.2276917565   -1.5119607468
C       -1.3912025389   -1.3241034962    0.1366184842
C       -1.6340686599    0.1153432714   -2.2276579989
C       -0.2145032299   -0.9774917536   -0.5450889596
C       -0.3838995372   -0.2563787683   -1.7344431351
C        1.7333145276   -0.2420224143    0.8587387303
C        2.1336576760   -1.8585687650   -0.9885082107
C        2.9150914265    0.3207531104    0.5614403278
C        3.3046550921   -1.2385971177   -1.2125365559
C        1.1389845279   -1.3839395067    0.0504320987
N        3.7455970423   -0.1644871479   -0.4471443941
N        0.7645161681    0.2018466574   -2.5517393007
O        1.4292338444    1.1478803158   -2.1231583708
O        0.9183585193   -0.3335388064   -3.6533204372
H       -3.5415241672   -1.2382103250    0.2380649611
H       -3.7588274412    0.0638593482   -1.8840522951
H       -1.3024992983   -1.9022868928    1.0537243405
H       -1.6994564637    0.6647058402   -3.1621460114
H        1.1539599387    0.1533986615    1.6873256703
H        1.8729006787   -2.7204841664   -1.5947577843
H        3.3061781496    1.1657630451    1.1197659295
H        3.9848334112   -1.5651843205   -1.9930853145
H        0.9032842313   -2.2166876962    0.7299434461
H        4.4162174718    0.4689796807   -0.8583648448
25   
torsion grid (120,)
C       -2.6681675614   -0.9874016470   -0.3365690846
C       -2.8032317650   -0.3015898553   -1.5471483776
C       -1.3968235944   -1.2954662004    0.1508529781
C       -1.6591908578    0.0745307479   -2.2492871775
C       -0.2224555538   -0.9130066605   -0.5158040365
C       -0.4004154904   -0.2091306332   -1.7167725724
C        1.7689112086   -0.2173889339    0.8838800119
C        2.0982797643   -1.8487975882   -0.9680146642
C        2.9759272962    0.2892920261    0.5892806304
C        3.2948421801   -1.2797944765   -1.1911423875
C        1.1290093635   -1.3343289665    0.0773973144
N        3.7838424492   -0.2292342118   -0.4220432527
N        0.7363342168    0.2937734471   -2.5185929961
O        1.5072101620    1.0947446036   -1.9862128251
O        0.7974831999   -0.0717435116   -3.6973986250
H       -3.5500767057   -1.2975775818    0.2175370180
H       -3.7859243716   -0.0686538659   -1.9467868466
H       -1.3012151539   -1.8629600909    1.0738001395
H       -1.7287444804    0.5933720949   -3.2001265613
H        1.2092160212    0.1989338992    1.7157687081
H        1.8021391324   -2.7037790759   -1.5681438005
H        3.4065425584    1.1127773272    1.1507335806
H        3.9616559636   -1.6356606944   -1.9705634318
H        0.8750624906   -2.1584903958    0.7608657506
H        4.4767190516    0.3787319565   -0.8351441594
25   
torsion grid (135,)
C       -2.6697052554   -1.0299558703   -0.3546355895
C       -2.8280731905   -0.3672583671   -1.5750019454
C       -1.3891613061   -1.2838876035    0.1387316762
C       -1.6964739542    0.0467982708   -2.2734930369
C       -0.2242663651   -0.8648405558   -0.5241000828
C       -0.4266572123   -0.1692987745   -1.7299210963
C        1.7934045679   -0.1746564463    0.8697869946
C        2.0872652117   -1.8462624022   -0.9546580225
C        3.0296519121    0.2692576038    0.5973218059
C        3.3127982645   -1.3354505412   -1.1582469435
C        1.1275834523   -1.2845930581    0.0758787683
N        3.8360040461   -0.3022066507   -0.3868605333
N        0.6855902029    0.3746194405   -2.5356404392
O        1.5775433935    0.9947735695   -1.9550760186
O        0.6286497923    0.2054403334   -3.7600155508
H       -3.5399518448   -1.3684509281    0.2014137128
H       -3.8172264065   -0.1809031410   -1.9830004291
H       -1.2772408616   -1.8438505713    1.0642398488
H       -1.7799556054    0.5521265936   -3.2295729152
H        1.2352760542    0.2791801005    1.6829374740
H        1.7644320216   -2.6957194204   -1.5491474958
H        3.4854511772    1.0806423341    1.1566239216
H        3.9792328403   -1.7310096065   -1.9187631700
H        0.8578142762   -2.0916474183    0.7737153599
H        4.5649981080    0.2679681530   -0.7916633301
25   
torsion grid (150,)
C       -2.6611188202   -1.0680717436   -0.3529662417
C       -2.8535494121   -0.3928111218   -1.5610799057
C       -1.3681098580   -1.2821445309    0.1242873990
C       -1.7436139797    0.0729500788   -2.2590866352
C       -0.2203288654   -0.8152708831   -0.5391470777
C       -0.4575797592   -0.1057018083   -1.7349938815
C        1.8010331982   -0.0825931042    0.8427274866
C        2.1020827029   -1.8149124197   -0.9248758593
C        3.0640371920    0.3042244382    0.6107381421
C        3.3536182412   -1.3577362104   -1.0903696239
C        1.1355327320   -1.2101896009    0.0742962698
N        3.8919187905   -0.3329869564   -0.3149862815
N        0.6229910313    0.4842841082   -2.5521810604
O        1.6395826763    0.8820357522   -1.9836694360
O        0.4345200528    0.5577298178   -3.7746616926
H       -3.5129031311   -1.4446137535    0.2072726739
H       -3.8518222291   -0.2341154063   -1.9583567167
H       -1.2305779859   -1.8483716990    1.0422261129
H       -1.8528983850    0.5931292152   -3.2034626884
H        1.2247673327    0.4230543300    1.6114920039
H        1.7646425764   -2.6576275024   -1.5210579241
H        3.5250970601    1.1197884229    1.1596388348
H        4.0307689365   -1.7923476605   -1.8195191778
H        0.8613296252   -1.9941728079    0.7964029555
H        4.6530189318    0.2020004436   -0.7092625885
25   
torsion grid (165,)
C       -2.6519360168   -1.1402778613   -0.3878765343
C       -2.8612414014   -0.4271205338   -1.5703972705
C       -1.3546218929   -1.3269546993    0.0873788585
C       -1.7640659784    0.0993707698   -2.2431863044
C       -0.2154598603   -0.8083375708   -0.5547090098
C       -0.4696667896   -0.0666080619   -1.7316146265
C        1.8083946232   -0.0119507175    0.7987687179
C        2.1065179359   -1.8551934908   -0.8550973722
C        3.0833212371    0.3355868092    0.5685747485
C        3.3706408420   -1.4351275620   -1.0210079167
C        1.1365459305   -1.1739747917    0.0903165564
N        3.9143776398   -0.3729342571   -0.3004845921
N        0.5917913873    0.5799319898   -2.5356360552
O        1.7049425796    0.7309667949   -2.0340523167
O        0.3000427347    0.9405927278   -3.6859353342
H       -3.4925479071   -1.5616331749    0.1572167945
H       -3.8623644642   -0.2823869076   -1.9658492226
H       -1.2057520950   -1.9100334936    0.9925961004
H       -1.8874792117    0.6559973025   -3.1637908943
H        1.2299507877    0.5470458204    1.5280184521
H        1.7626332320   -2.7274995862   -1.4029795589
H        3.5516806202    1.1726436666    1.0776052589
H        4.0540585607   -1.9290232905   -1.7051929391
H        0.8489190738   -1.9093538423    0.8563668262
H        4.6941145092    0.1213819646   -0.7110170475
25   
torsion grid (180,)
C       -2.6384652343   -1.2480056803   -0.4650996905
C       -2.8613540751   -0.4522156221   -1.5904946347
C       -1.3407713979   -1.4183102044    0.0145464452
C       -1.7758909007    0.1552430814   -2.2114681212
C       -0.2118161088   -0.8239524645   -0.5792970867
C       -0.4758234658   -0.0252106603   -1.7181538168
C        1.8175473834    0.0785934118    0.7041604377
C        2.0985974009   -1.9239609613   -0.7577077891
C        3.1009282396    0.3800885047    0.4542208396
C        3.3708725663   -1.5438080278   -0.9507827541
C        1.1330641901   -1.1370756231    0.1083363666
N        3.9261611978   -0.4232746739   -0.3328338193
N        0.5734579342    0.6837324545   -2.4888794742
O        1.7453899967    0.5834183699   -2.1294724932
O        0.2135824161    1.3514589795   -3.4706343706
H       -3.4688840571   -1.7349704615    0.0394673615
H       -3.8637512452   -0.3050488305   -1.9818016699
H       -1.1840559765   -2.0403391628    0.8919046633
H       -1.9114294804    0.7780873942   -3.0863404800
H        1.2444396986    0.7134941764    1.3731249439
H        1.7428100885   -2.8391907765   -1.2211912248
H        3.5799782989    1.2542551415    0.8849203782
H        4.0523791429   -2.1139059728   -1.5750482734
H        0.8326861183   -1.7878879351    0.9425584365
H        4.7181441064    0.0153907571   -0.7813859145
