14   
torsion grid (-165,)
C       -1.6665299419   -0.0884774464    0.0783797389
C        0.4076509434   -0.7134714259    0.1434817455
C        1.7730580189   -1.3318570610    0.0555676048
C        0.2773312569    0.8242682913    0.1942988864
N        1.6039208248    1.9740439182   -1.6882520579
N       -1.1344895190    1.0872030638    0.0347813143
N       -0.7666430356   -1.2155006117    0.1391539332
N        1.0489974306    1.4766700816   -0.8675982477
N        1.8227328854   -2.6275204106   -0.2958712687
O        2.7192778892   -0.5528522411    0.1872090534
H       -2.7397927883   -0.2559844336    0.0614672050
H        0.6836362917    1.2404178128    1.1267720340
H        2.7296502358   -3.0824661565   -0.3527501926
H        0.9877881106   -3.2046486658   -0.3027466434
14   
torsion grid (-150,)
C       -1.6969753590   -0.1202682883    0.1249749626
C        0.3844787924   -0.7221978205    0.2211091341
C        1.7549261491   -1.3379945245    0.1760724223
C        0.2360205151    0.8170011632    0.1814012609
N        1.5744049062    1.8452662929   -1.7620115793
N       -1.1772085605    1.0559779206    0.0081413120
N       -0.7860021396   -1.2325602332    0.2472355857
N        1.0028474090    1.4099159093   -0.9177840759
N        1.8391597800   -2.5547452571   -0.3971479911
O        2.6858211595   -0.6034688656    0.5042333854
H       -2.7686457667   -0.2985521096    0.1223015143
H        0.6414550365    1.2900289630    1.0870334544
H        2.7483689501   -3.0094963129   -0.4172706866
H        1.0143896250   -3.1363786900   -0.5083800063
14   
torsion grid (-135,)
C       -1.7062127835   -0.1222219173    0.1795677049
C        0.3690078112   -0.7524054866    0.2530199914
C        1.7269038448   -1.4014640473    0.2965034646
C        0.2382950930    0.7905046753    0.1545091329
N        1.5113825907    1.7127186262   -1.8859517873
N       -1.1752154359    1.0424693206    0.0089790243
N       -0.8091563455   -1.2408554455    0.3258983753
N        0.9673949844    1.3267839612   -1.0001806373
N        1.8911301308   -2.4848984958   -0.4952978445
O        2.5983489306   -0.7851648491    0.9013426007
H       -2.7800048705   -0.2851555727    0.2067421090
H        0.6833723445    1.2927108258    1.0250186356
H        2.7857252929   -2.9669477903   -0.4425855259
H        1.0879541249   -3.0338324804   -0.7868462630
14   
torsion grid (-120,)
C       -1.7110585080   -0.0612589378    0.2288700039
C        0.3474560282   -0.7520454408    0.2677183053
C        1.6803907958   -1.4461392950    0.3928178009
C        0.2566423198    0.7940779829    0.1112690246
N        1.4424585947    1.5918777466   -2.0346263824
N       -1.1533189535    1.0817428610    0.0043881217
N       -0.8434028995   -1.1982627276    0.3922300638
N        0.9408077385    1.2603592882   -1.1026552656
N        1.9729389723   -2.3616477148   -0.5622430452
O        2.4375792993   -0.9874765115    1.2375527909
H       -2.7878739390   -0.1916512529    0.2907259774
H        0.7528100595    1.3191459218    0.9392998699
H        2.8477482255   -2.8709541093   -0.4520257361
H        1.2233387213   -2.8529631896   -1.0402882481
14   
torsion grid (-105,)
C       -1.7218616358   -0.0278816886    0.2736329600
C        0.3180540104   -0.7738721980    0.2958951056
C        1.6277630501   -1.5074591534    0.4643434597
C        0.2640427377    0.7698122434    0.0774664424
N        1.3903553415    1.4418258272   -2.1428720304
N       -1.1404802353    1.0916933309   -0.0043512453
N       -0.8819722092   -1.1798089479    0.4627752226
N        0.9182205743    1.1646566202   -1.1780466292
N        2.0526656639   -2.2348364510   -0.6018776298
O        2.2657953338   -1.2211083069    1.4648619183
H       -2.8001392938   -0.1266494893    0.3627467293
H        0.7956251350    1.3191180617    0.8666803149
H        2.9157903852   -2.7596013163   -0.4687467150
H        1.3681639926   -2.6658631644   -1.2169989414
14   
torsion grid (-90,)
C       -1.7204688587    0.0079840040    0.3215956611
C        0.2996598662   -0.7920063138    0.3356097151
C        1.5871915585   -1.5656354560    0.5192982927
C        0.2807001368    0.7442576034    0.0490003554
N        1.3660663117    1.2944334282   -2.2231064927
N       -1.1169489492    1.0997214470   -0.0147545610
N       -0.9068246044   -1.1553732016    0.5448632313
N        0.9133245715    1.0692288531   -1.2355015300
N        2.1277115654   -2.0930100132   -0.6171460906
O        2.1203346377   -1.4720167615    1.6099992729
H       -2.7988448591   -0.0586618956    0.4357645955
H        0.8410593969    1.3156442833    0.8019489863
H        2.9843595968   -2.6290316595   -0.4829276467
H        1.5046923978   -2.4597940768   -1.3320925069
14   
torsion grid (-75,)
C       -1.7199739901    0.0529167953    0.3683946630
C        0.2774417765   -0.8051182531    0.3704898201
C        1.5384664396   -1.6240441428    0.5644921043
C        0.2934021089    0.7187470161    0.0131790621
N        1.3324505030    1.1657141995   -2.3001838724
N       -1.0955595095    1.1114665100   -0.0304522689
N       -0.9326483577   -1.1198735648    0.6284247123
N        0.9014527987    0.9821522031   -1.2942209837
N        2.1992223418   -1.9494315115   -0.5922725563
O        1.9577362812   -1.7402231454    1.6985575875
H       -2.7966066066    0.0215784384    0.5106039155
H        0.8841433269    1.3053410207    0.7307587204
H        3.0452957946   -2.5013801330   -0.4521050173
H        1.6460650080   -2.2458722797   -1.3930576031
14   
torsion grid (-60,)
C       -1.7174008640    0.1129762672    0.3977150200
C        0.2545752504   -0.8047043210    0.3858590552
C        1.4831079210   -1.6721022642    0.5933590987
C        0.3027635843    0.7012825287   -0.0464225518
N        1.2787939053    1.0492259272   -2.4012808774
N       -1.0757199999    1.1327932490   -0.0689856951
N       -0.9554554540   -1.0659254787    0.6963512764
N        0.8784378877    0.9056479821   -1.3761162918
N        2.2774717723   -1.8110293774   -0.5236494411
O        1.7688665573   -1.9987887248    1.7255086834
H       -2.7898977637    0.1198233469    0.5708878601
H        0.9267962601    1.2996490928    0.6325072520
H        3.1064032633   -2.3837005339   -0.3638573239
H        1.8169075687   -2.0245907648   -1.4057396718
14   
torsion grid (-45,)
C       -1.7052195862    0.1484841037    0.4589901436
C        0.2390100509   -0.8274065471    0.3870259945
C        1.4329339937   -1.7487117533    0.5755438369
C        0.3093621278    0.6659022386   -0.0871899983
N        1.1768090872    0.9662165410   -2.4893391471
N       -1.0565158845    1.1377769338   -0.0609317363
N       -0.9632230218   -1.0412422271    0.7584732591
N        0.8276697110    0.8394635944   -1.4432555552
N        2.3557820029   -1.7023542520   -0.4539751435
O        1.5854749724   -2.2920518698    1.6467957061
H       -2.7686341706    0.1902240126    0.6773725308
H        0.9779455496    1.2590223467    0.5528906512
H        3.1633596484   -2.3023324960   -0.2841391631
H        2.0013041675   -1.8062385942   -1.4023719192
14   
torsion grid (-30,)
C       -1.6890092386    0.1974286859    0.5149324849
C        0.2232455381   -0.8375294010    0.3737470380
C        1.3764371618   -1.8157952660    0.5457296370
C        0.3118614208    0.6465599324   -0.1325365353
N        1.0362956644    0.8854001330   -2.5888273064
N       -1.0372145880    1.1596165937   -0.0502656620
N       -0.9671923469   -1.0049717386    0.8035270613
N        0.7539435342    0.7875322279   -1.5194301357
N        2.4332033630   -1.6226299595   -0.3283452164
O        1.3782644062   -2.5514252334    1.5064563811
H       -2.7400454274    0.2729101302    0.7794219203
H        1.0309843337    1.2292725132    0.4600759491
H        3.2050868281   -2.2655785936   -0.1510548151
H        2.2225110657   -1.5586528566   -1.3210758793
14   
torsion grid (-15,)
C       -1.7015525380   -0.1781560825   -0.1848723388
C        0.3485541438   -0.7484081718    0.2830203127
C        1.6090559264   -1.5423758752    0.5939523989
C        0.1247884093    0.8000943764    0.3898819507
N        1.5969199456    2.0302159889   -1.3384163319
N       -1.2450607210    1.0195971105   -0.0189138439
N       -0.7870933061   -1.2636284531    0.0060494070
N        0.9840656411    1.5279563712   -0.5614969037
N        2.7542845480   -0.7673159837    0.7026712696
O        1.5758341795   -2.7501092188    0.5625095235
H       -2.7347166095   -0.3836025707   -0.4511681154
H        0.3462565053    1.2206605577    1.3789714452
H        3.5885274820   -1.3274651579    0.8771810474
H        2.7294093110    0.0602642167    1.2928093652
14   
torsion grid (0,)
C       -1.7102200247   -0.1691747324   -0.1321228279
C        0.3455045301   -0.7562161374    0.2806254251
C        1.6294308714   -1.5332070829    0.5137436704
C        0.1503807479    0.7957637514    0.3433432258
N        1.6200691822    1.9440988230   -1.4418906974
N       -1.2262682571    1.0251275400   -0.0318971248
N       -0.8053834629   -1.2645456548    0.0605657550
N        1.0078456810    1.4761796569   -0.6437121577
N        2.7221050184   -0.7306097164    0.8123327463
O        1.6680336733   -2.7168985143    0.2698357183
H       -2.7563379953   -0.3658088509   -0.3500918885
H        0.4020181936    1.2429829997    1.3132056616
H        3.5788882870   -1.2701522943    0.9352988901
H        2.6169347034   -0.0256063926    1.5380510633
14   
torsion grid (15,)
C       -1.7234878057   -0.1592016524   -0.0625691285
C        0.3426581724   -0.7366989124    0.2981038395
C        1.6517768415   -1.4883344888    0.4544106429
C        0.1542395305    0.8166833406    0.3084828183
N        1.6011846729    1.8873932686   -1.5399489771
N       -1.2323405214    1.0360312356   -0.0328854894
N       -0.8148565112   -1.2512161355    0.1377184394
N        0.9937418169    1.4547211483   -0.7186301149
N        2.6887796911   -0.7091011438    0.9405233742
O        1.7550350771   -2.6084670746    0.0075839514
H       -2.7775624575   -0.3600123680   -0.2329930931
H        0.4337256906    1.2966621055    1.2545880951
H        3.5633245634   -1.2257173974    1.0305371813
H        2.5094613330   -0.1164549227    1.7475516868
14   
torsion grid (30,)
C       -1.7136532131   -0.1479391718   -0.0116025302
C        0.3658461140   -0.7068242056    0.2950944353
C        1.6941687525   -1.4335585038    0.3945408969
C        0.1715100746    0.8460143306    0.2580723636
N        1.5642561627    1.8479622364   -1.6688054980
N       -1.2258200700    1.0485618065   -0.0436251041
N       -0.7939041821   -1.2306225189    0.1930874244
N        0.9772739359    1.4484597097   -0.8163388375
N        2.6691119447   -0.7380785758    1.0790355824
O        1.8601779530   -2.4461465275   -0.2508446587
H       -2.7724934683   -0.3571892702   -0.1359662622
H        0.4848656512    1.3570898415    1.1766236591
H        3.5529616893   -1.2407945856    1.1512202448
H        2.4149150665   -0.2576230160    1.9384230211
14   
torsion grid (45,)
C       -1.7137840173   -0.1498251251    0.0493926427
C        0.3815439914   -0.6771154384    0.2972373128
C        1.7274317645   -1.3741263946    0.3559240469
C        0.1693303928    0.8719653642    0.2097126287
N        1.4711440599    1.8068151352   -1.8129870499
N       -1.2402969169    1.0491098647   -0.0441844700
N       -0.7753720814   -1.2156332882    0.2598100180
N        0.9232672622    1.4385519472   -0.9212506038
N        2.6324497831   -0.8119918846    1.2206437875
O        1.9601550198   -2.2345138958   -0.4693763773
H       -2.7741750590   -0.3734078287   -0.0274984046
H        0.5202125090    1.4173148485    1.0942396945
H        3.5251736837   -1.3008659562    1.2711882561
H        2.3082508453   -0.4537564474    2.1149937857
14   
torsion grid (60,)
C       -1.6691799167   -0.1498609685    0.0917081207
C        0.4404896574   -0.6331125102    0.2944092663
C        1.8085445942   -1.2822931261    0.3324214238
C        0.2002035448    0.9080632095    0.1638756171
N        1.4127753080    1.7721620889   -1.9464089094
N       -1.2196269067    1.0534395859   -0.0490358465
N       -0.7066916806   -1.1935029626    0.3106061291
N        0.9032463729    1.4388923998   -1.0189259239
N        2.6231485411   -0.8926956749    1.3556028243
O        2.1330663083   -1.9307217344   -0.6464290601
H       -2.7272890439   -0.3930735860    0.0522721282
H        0.5785530402    1.4885759715    1.0138443418
H        3.5334292974   -1.3495549026    1.3837066304
H        2.2219819332   -0.6868903591    2.2663674898
14   
torsion grid (75,)
C       -1.6562383382   -0.1422348883    0.1360549052
C        0.4597160487   -0.5986507200    0.3087770924
C        1.8439124410   -1.2027695148    0.3335419186
C        0.2068038624    0.9306735820    0.1116478850
N        1.3553093131    1.6826160199   -2.0772204590
N       -1.2198057409    1.0564562790   -0.0684596505
N       -0.6806203951   -1.1689267266    0.3822690814
N        0.8729248172    1.3987410378   -1.1195208290
N        2.5802624502   -1.0076683484    1.4574607282
O        2.2478355995   -1.6166519101   -0.7431641286
H       -2.7131035696   -0.3938198171    0.1328002233
H        0.6077627010    1.5543335955    0.9197104579
H        3.5085205917   -1.4273322977    1.4610641942
H        2.1207367085   -0.9525278130    2.3619258569
14   
torsion grid (90,)
C       -1.6378816192   -0.1465934232    0.1831373906
C        0.4856124104   -0.5627936684    0.3410907497
C        1.8849353442   -1.1207722622    0.3602428939
C        0.2110498807    0.9472077416    0.0661652713
N        1.3084087268    1.6072064598   -2.1779271697
N       -1.2216036469    1.0449596214   -0.0910944355
N       -0.6433244561   -1.1466646895    0.4675602390
N        0.8489715048    1.3570416381   -1.2001443288
N        2.5459343553   -1.1279414694    1.5393456635
O        2.3588857607   -1.3125134574   -0.7540082178
H       -2.6910168365   -0.4117734115    0.2120443412
H        0.6167477924    1.6187647846    0.8327100612
H        3.4879477242   -1.5149153895    1.5338775389
H        2.0344428472   -1.2005917175    2.4137776150
14   
torsion grid (105,)
C       -1.6188554530   -0.1335348706    0.2200808667
C        0.5117359420   -0.5169952430    0.3501015198
C        1.9224876004   -1.0388325471    0.3794551147
C        0.2160624332    0.9676364900   -0.0085263001
N        1.2446657631    1.5511605155   -2.3056952007
N       -1.2218907355    1.0427651459   -0.1345133415
N       -0.6055411491   -1.1061807114    0.5397796260
N        0.8202300888    1.3198872347   -1.3080507898
N        2.4964030483   -1.2534293652    1.5800404695
O        2.4721231710   -1.0357242266   -0.7193043173
H       -2.6680047213   -0.4065872680    0.2904763401
H        0.6294572093    1.6854213507    0.7109995375
H        3.4431372110   -1.6278004536    1.5845284486
H        1.9258370553   -1.4384092514    2.3993261185
14   
torsion grid (120,)
C       -1.5978409219   -0.1371063707    0.2765335031
C        0.5419550606   -0.4705214178    0.3761539921
C        1.9677121048   -0.9442193728    0.4209998551
C        0.2114893488    0.9814545535   -0.0582800560
N        1.1661223319    1.5116359091   -2.3983127460
N       -1.2312908659    1.0229361950   -0.1549657020
N       -0.5568135913   -1.0717438579    0.6264628267
N        0.7834905921    1.2890941854   -1.3821097953
N        2.4545437230   -1.3685683895    1.6010435886
O        2.5946642984   -0.7472975625   -0.6192744675
H       -2.6394424745   -0.4249552002    0.3880599136
H        0.6218516927    1.7414349216    0.6189256844
H        3.4086684977   -1.7217437662    1.6205925124
H        1.8311643146   -1.6618133373    2.3465333218
14   
torsion grid (135,)
C       -1.6807418756   -0.0537678570   -0.0219827275
C        0.3696439681   -0.7438081150   -0.1461933945
C        1.7067052293   -1.3940825378   -0.3581412604
C        0.2963069129    0.7348942255    0.3039456568
N        1.5271066894    2.3199331964   -1.3184484711
N       -1.1104367876    1.0696537726    0.2579028585
N       -0.8218085581   -1.1887499828   -0.2616909776
N        1.0314792378    1.6229705265   -0.6133384641
N        1.8863859549   -2.6263313448    0.1450788306
O        2.5504126942   -0.6671791085   -0.8852275522
H       -2.7590416014   -0.1731043001   -0.0786639673
H        0.7471128444    0.9043325733    1.2904415129
H        2.7724599748   -3.0934865704   -0.0308744252
H        1.0970815706   -3.1938316952    0.4365137721
14   
torsion grid (150,)
C       -1.6702381897   -0.0662567065    0.0032912317
C        0.3901940271   -0.7301352155   -0.0835397000
C        1.7393826317   -1.3651618290   -0.2542186734
C        0.2961869234    0.7704195085    0.2705847871
N        1.5187630354    2.2761558704   -1.4283538268
N       -1.1152420199    1.0817378360    0.2027682112
N       -0.7937289923   -1.2013287244   -0.1667525327
N        1.0290085449    1.6104925531   -0.6895952890
N        1.8506539015   -2.6666310302    0.0501410941
O        2.6353002313   -0.5926902348   -0.6032218080
H       -2.7467265638   -0.2057735725   -0.0402977787
H        0.7393096938    1.0027801452    1.2479326532
H        2.7433303485   -3.1292185271   -0.0991472070
H        1.0328971171   -3.2369580143    0.2389854011
14   
torsion grid (165,)
C       -1.6683533592   -0.0753086598    0.0389850959
C        0.3984776459   -0.7219937086   -0.0024243333
C        1.7559792490   -1.3451785264   -0.1433546361
C        0.2885925321    0.7959983720    0.2512725095
N        1.5294654476    2.2005801473   -1.5165021302
N       -1.1246361921    1.0895538033    0.1553179208
N       -0.7802249235   -1.2104225013   -0.0551126241
N        1.0305427299    1.5790502917   -0.7460421854
N        1.8288895444   -2.6803360251   -0.0529481870
O        2.6802633607   -0.5491023438   -0.3299058493
H       -2.7433649635   -0.2286318496    0.0069550792
H        0.7198841343    1.0898629830    1.2176276019
H        2.7282487581   -3.1360905939   -0.1784205162
H        0.9981007782   -3.2521038054    0.0582092132
14   
torsion grid (180,)
C       -1.6710335451   -0.0924436006    0.0501504074
C        0.4025671987   -0.7196840574    0.0677136537
C        1.7671858667   -1.3332388661   -0.0468989143
C        0.2749304207    0.8107608858    0.2196948828
N        1.5583253618    2.0960327011   -1.6055033776
N       -1.1390759244    1.0831730585    0.0872086971
N       -0.7711367059   -1.2216695125    0.0352883691
N        1.0311899865    1.5332231715   -0.8091535878
N        1.8233551082   -2.6665462828   -0.1770543022
O        2.7054163635   -0.5325497389   -0.0754181997
H       -2.7442534192   -0.2586665753    0.0224648580
H        0.6884026696    1.1688092959    1.1724693717
H        2.7297724231   -3.1165550563   -0.2664185181
H        0.9900364649   -3.2426766331   -0.1199883635
