
  -OEChem-05262117483D

 29 31  0     0  0  0  0  0  0999 V2000
   -2.8251   -1.2866   -7.7665 C   0  0  0  0  0  0  0  0  0  0  0  0
    2.0879    1.6443   -4.9243 C   0  0  0  0  0  0  0  0  0  0  0  0
    1.1665    1.2248   -3.9471 C   0  0  0  0  0  0  0  0  0  0  0  0
   -3.5972   -0.8389   -6.6892 C   0  0  0  0  0  0  0  0  0  0  0  0
   -2.0132   -2.4096   -7.6218 C   0  0  0  0  0  0  0  0  0  0  0  0
    2.4144    0.8428   -6.0259 C   0  0  0  0  0  0  0  0  0  0  0  0
    0.5304   -0.0239   -4.0324 C   0  0  0  0  0  0  0  0  0  0  0  0
   -3.5592   -1.5193   -5.4698 C   0  0  0  0  0  0  0  0  0  0  0  0
   -1.9565   -3.1117   -6.4039 C   0  0  0  0  0  0  0  0  0  0  0  0
    1.7877   -0.4028   -6.1229 C   0  0  0  0  0  0  0  0  0  0  0  0
    0.8766   -0.7945   -5.1281 C   0  0  0  0  0  0  0  0  0  0  0  0
   -2.7464   -2.6454   -5.3427 C   0  0  0  0  0  0  0  0  0  0  0  0
    1.0548   -2.3307   -6.6473 C   0  0  0  0  0  0  0  0  0  0  0  0
   -1.1370   -4.3393   -6.2853 C   0  0  0  0  0  0  0  0  0  0  0  0
    1.8707   -1.4165   -7.0890 N   0  0  0  0  0  0  0  0  0  0  0  0
    0.0591   -4.5788   -6.6978 N   0  0  0  0  0  0  0  0  0  0  0  0
    0.7975   -3.5373   -7.2655 N   0  0  0  0  0  0  0  0  0  0  0  0
    0.4142   -2.0589   -5.4684 O   0  0  0  0  0  0  0  0  0  0  0  0
   -2.6674   -3.5166   -3.6341 Br  0  0  0  0  0  0  0  0  0  0  0  0
   -2.8529   -0.7594   -8.7158 H   0  0  0  0  0  0  0  0  0  0  0  0
    2.5582    2.6184   -4.8202 H   0  0  0  0  0  0  0  0  0  0  0  0
    0.9421    1.8781   -3.1088 H   0  0  0  0  0  0  0  0  0  0  0  0
   -4.2267    0.0406   -6.7918 H   0  0  0  0  0  0  0  0  0  0  0  0
   -1.4077   -2.7554   -8.4533 H   0  0  0  0  0  0  0  0  0  0  0  0
    3.1240    1.1717   -6.7792 H   0  0  0  0  0  0  0  0  0  0  0  0
   -0.1835   -0.3658   -3.2895 H   0  0  0  0  0  0  0  0  0  0  0  0
   -4.1473   -1.1756   -4.6251 H   0  0  0  0  0  0  0  0  0  0  0  0
   -1.6111   -5.2033   -5.8227 H   0  0  0  0  0  0  0  0  0  0  0  0
    1.6165   -3.8952   -7.7437 H   0  0  0  0  0  0  0  0  0  0  0  0
  1  4  1  0  0  0  0
  1  5  2  0  0  0  0
  1 20  1  0  0  0  0
  2  3  1  0  0  0  0
  2  6  2  0  0  0  0
  2 21  1  0  0  0  0
  3  7  2  0  0  0  0
  3 22  1  0  0  0  0
  4  8  2  0  0  0  0
  4 23  1  0  0  0  0
  5  9  1  0  0  0  0
  5 24  1  0  0  0  0
  6 10  1  0  0  0  0
  6 25  1  0  0  0  0
  7 11  1  0  0  0  0
  7 26  1  0  0  0  0
  8 12  1  0  0  0  0
  8 27  1  0  0  0  0
  9 12  2  0  0  0  0
  9 14  1  0  0  0  0
 10 11  2  0  0  0  0
 10 15  1  0  0  0  0
 11 18  1  0  0  0  0
 12 19  1  0  0  0  0
 13 15  2  0  0  0  0
 13 17  1  0  0  0  0
 13 18  1  0  0  0  0
 14 16  2  0  0  0  0
 14 28  1  0  0  0  0
 16 17  1  0  0  0  0
 17 29  1  0  0  0  0
M  END
$$$$
