
  -OEChem-05262117483D

 36 39  0     0  0  0  0  0  0999 V2000
    6.6512   -3.7803    2.5436 C   0  0  0  0  0  0  0  0  0  0  0  0
    4.9323   -4.9767    2.4931 C   0  0  0  0  0  0  0  0  0  0  0  0
    2.4382   -3.6618    0.8156 C   0  0  0  0  0  0  0  0  0  0  0  0
    2.1894   -3.4529    3.1097 C   0  0  0  0  0  0  0  0  0  0  0  0
    0.4067   -1.5495   -0.8643 C   0  0  0  0  0  0  0  0  0  0  0  0
    1.3497   -0.4167   -0.4294 C   0  0  0  0  0  0  0  0  0  0  0  0
    7.5884   -1.7291    1.3224 C   0  0  0  0  0  0  0  0  0  0  0  0
    7.2382   -1.2899    2.7121 C   0  0  0  0  0  0  0  0  0  0  0  0
    0.2666   -2.3877    0.4132 C   0  0  0  0  0  0  0  0  0  0  0  0
    2.4111   -1.1422    0.4177 C   0  0  0  0  0  0  0  0  0  0  0  0
    7.6713   -2.7329    2.4683 C   0  0  0  0  0  0  0  0  0  0  0  0
    1.6779   -2.3554    1.0728 C   0  0  0  0  0  0  0  0  0  0  0  0
    3.5080   -5.4059    2.2429 C   0  0  0  0  0  0  0  0  0  0  0  0
    5.3916   -3.7143    2.1919 N   0  0  0  0  0  0  0  0  0  0  0  0
    5.8282   -5.7872    2.9997 N   0  0  0  0  0  0  0  0  0  0  0  0
    1.6489   -2.3379    2.5318 N   0  0  0  0  0  0  0  0  0  0  0  0
    2.6495   -4.2593    2.0410 N   0  0  0  0  0  0  0  0  0  0  0  0
    2.7800   -4.1001   -0.2697 O   0  0  0  0  0  0  0  0  0  0  0  0
    2.2763   -3.7407    4.2914 O   0  0  0  0  0  0  0  0  0  0  0  0
    6.9974   -4.9857    3.0327 O   0  0  0  0  0  0  0  0  0  0  0  0
   -0.5575   -1.1935   -1.2397 H   0  0  0  0  0  0  0  0  0  0  0  0
    0.8779   -2.1480   -1.6511 H   0  0  0  0  0  0  0  0  0  0  0  0
    1.7877    0.1278   -1.2708 H   0  0  0  0  0  0  0  0  0  0  0  0
    0.8000    0.3099    0.1822 H   0  0  0  0  0  0  0  0  0  0  0  0
    6.7768   -1.8755    0.6174 H   0  0  0  0  0  0  0  0  0  0  0  0
    8.5314   -1.4053    0.8930 H   0  0  0  0  0  0  0  0  0  0  0  0
    7.9363   -0.6600    3.2546 H   0  0  0  0  0  0  0  0  0  0  0  0
    6.1899   -1.1400    2.9477 H   0  0  0  0  0  0  0  0  0  0  0  0
   -0.4408   -1.9093    1.1007 H   0  0  0  0  0  0  0  0  0  0  0  0
   -0.0846   -3.4075    0.2365 H   0  0  0  0  0  0  0  0  0  0  0  0
    3.2066   -1.5224   -0.2284 H   0  0  0  0  0  0  0  0  0  0  0  0
    2.8737   -0.5161    1.1842 H   0  0  0  0  0  0  0  0  0  0  0  0
    8.6539   -3.0350    2.8129 H   0  0  0  0  0  0  0  0  0  0  0  0
    3.4599   -6.0171    1.3386 H   0  0  0  0  0  0  0  0  0  0  0  0
    3.1424   -5.9891    3.0893 H   0  0  0  0  0  0  0  0  0  0  0  0
    1.1074   -1.6897    3.0868 H   0  0  0  0  0  0  0  0  0  0  0  0
  1 11  1  0  0  0  0
  1 14  2  0  0  0  0
  1 20  1  0  0  0  0
  2 13  1  0  0  0  0
  2 14  1  0  0  0  0
  2 15  2  0  0  0  0
  3 12  1  0  0  0  0
  3 17  1  0  0  0  0
  3 18  2  0  0  0  0
  4 16  1  0  0  0  0
  4 17  1  0  0  0  0
  4 19  2  0  0  0  0
  5  6  1  0  0  0  0
  5  9  1  0  0  0  0
  5 21  1  0  0  0  0
  5 22  1  0  0  0  0
  6 10  1  0  0  0  0
  6 23  1  0  0  0  0
  6 24  1  0  0  0  0
  7  8  1  0  0  0  0
  7 11  1  0  0  0  0
  7 25  1  0  0  0  0
  7 26  1  0  0  0  0
  8 11  1  0  0  0  0
  8 27  1  0  0  0  0
  8 28  1  0  0  0  0
  9 12  1  0  0  0  0
  9 29  1  0  0  0  0
  9 30  1  0  0  0  0
 10 12  1  0  0  0  0
 10 31  1  0  0  0  0
 10 32  1  0  0  0  0
 11 33  1  0  0  0  0
 12 16  1  0  0  0  0
 13 17  1  0  0  0  0
 13 34  1  0  0  0  0
 13 35  1  0  0  0  0
 15 20  1  0  0  0  0
 16 36  1  0  0  0  0
M  END
$$$$
