18
0 1 BrC7FH6N2O
C                     1.896482030766    -1.820002858439    -0.543985165973
C                     0.665941970663    -1.746071864885     0.107669977813
C                     3.008576350514    -2.201562852920     1.576621119782
C                     3.077888039777    -2.042852097980     0.182861979493
C                     0.615171158582    -1.911321144023     1.488017709084
C                     1.777786603435    -2.144407824715     2.226195813947
C                     4.369384663082    -2.152628931356    -0.543339246978
N                     5.533785774098    -1.732554641592    -0.173226408626
N                     4.292172765530    -2.723677124775    -1.824892260070
O                     5.496771701499    -0.997606507421     1.039699024918
F                    -0.578224566661    -1.844160327283     2.110656097869
Br                    1.671728753411    -2.383848262091     4.114664487753
H                     1.949796862287    -1.688515572185    -1.619509292257
H                    -0.256821061773    -1.561620692144    -0.433932631270
H                     3.910705297684    -2.370060967917     2.150359994105
H                     3.785527703527    -3.604821348570    -1.841205200652
H                     5.215388831867    -2.823327808260    -2.240244066570
H                     6.420119511795    -0.711849877015     1.124649879879
