
  -OEChem-05262117483D

 35 37  0     0  0  0  0  0  0999 V2000
   -0.8620   -2.1601    0.8312 C   0  0  0  0  0  0  0  0  0  0  0  0
   -0.0452   -1.0964    0.3804 C   0  0  0  0  0  0  0  0  0  0  0  0
   -0.4050   -3.4546    0.7166 C   0  0  0  0  0  0  0  0  0  0  0  0
    1.2023   -1.3298   -0.1676 C   0  0  0  0  0  0  0  0  0  0  0  0
    1.3280   -5.0641    0.0356 C   0  0  0  0  0  0  0  0  0  0  0  0
    2.5550   -5.3601   -0.5107 C   0  0  0  0  0  0  0  0  0  0  0  0
    0.8715   -3.7273    0.1551 C   0  0  0  0  0  0  0  0  0  0  0  0
    1.7081   -2.6539   -0.2984 C   0  0  0  0  0  0  0  0  0  0  0  0
    3.0007   -2.9625   -0.8649 C   0  0  0  0  0  0  0  0  0  0  0  0
    4.8267    0.1359   -1.7553 C   0  0  0  0  0  0  0  0  0  0  0  0
    3.3935   -4.3130   -0.9641 C   0  0  0  0  0  0  0  0  0  0  0  0
    6.1764    0.0097   -1.3758 C   0  0  0  0  0  0  0  0  0  0  0  0
    4.5001    1.2603   -2.5366 C   0  0  0  0  0  0  0  0  0  0  0  0
    7.1418    0.9409   -1.7525 C   0  0  0  0  0  0  0  0  0  0  0  0
    5.4563    2.1888   -2.9355 C   0  0  0  0  0  0  0  0  0  0  0  0
    6.7856    2.0322   -2.5419 C   0  0  0  0  0  0  0  0  0  0  0  0
    3.9629   -1.9803   -1.3510 C   0  0  0  0  0  0  0  0  0  0  0  0
    5.0803   -5.9134   -1.6051 C   0  0  0  0  0  0  0  0  0  0  0  0
    3.7983   -0.6981   -1.3191 N   0  0  0  0  0  0  0  0  0  0  0  0
    4.6169   -4.5664   -1.5136 O   0  0  0  0  0  0  0  0  0  0  0  0
    6.5617   -1.0120   -0.5839 F   0  0  0  0  0  0  0  0  0  0  0  0
    3.2284    1.4432   -2.9271 F   0  0  0  0  0  0  0  0  0  0  0  0
    8.4161    0.7906   -1.3566 F   0  0  0  0  0  0  0  0  0  0  0  0
    5.1073    3.2367   -3.6980 F   0  0  0  0  0  0  0  0  0  0  0  0
    7.7120    2.9259   -2.9190 F   0  0  0  0  0  0  0  0  0  0  0  0
   -1.8390   -1.9549    1.2603 H   0  0  0  0  0  0  0  0  0  0  0  0
   -0.4041   -0.0736    0.4645 H   0  0  0  0  0  0  0  0  0  0  0  0
   -1.0155   -4.2896    1.0527 H   0  0  0  0  0  0  0  0  0  0  0  0
    1.8090   -0.5031   -0.5071 H   0  0  0  0  0  0  0  0  0  0  0  0
    0.6870   -5.8708    0.3839 H   0  0  0  0  0  0  0  0  0  0  0  0
    2.8713   -6.3928   -0.5899 H   0  0  0  0  0  0  0  0  0  0  0  0
    4.8701   -2.4129   -1.7749 H   0  0  0  0  0  0  0  0  0  0  0  0
    6.0711   -5.8491   -2.0554 H   0  0  0  0  0  0  0  0  0  0  0  0
    4.4286   -6.5173   -2.2465 H   0  0  0  0  0  0  0  0  0  0  0  0
    5.1611   -6.3751   -0.6147 H   0  0  0  0  0  0  0  0  0  0  0  0
  1  2  1  0  0  0  0
  1  3  2  0  0  0  0
  1 26  1  0  0  0  0
  2  4  2  0  0  0  0
  2 27  1  0  0  0  0
  3  7  1  0  0  0  0
  3 28  1  0  0  0  0
  4  8  1  0  0  0  0
  4 29  1  0  0  0  0
  5  6  1  0  0  0  0
  5  7  2  0  0  0  0
  5 30  1  0  0  0  0
  6 11  2  0  0  0  0
  6 31  1  0  0  0  0
  7  8  1  0  0  0  0
  8  9  2  0  0  0  0
  9 11  1  0  0  0  0
  9 17  1  0  0  0  0
 10 12  1  0  0  0  0
 10 13  2  0  0  0  0
 10 19  1  0  0  0  0
 11 20  1  0  0  0  0
 12 14  2  0  0  0  0
 12 21  1  0  0  0  0
 13 15  1  0  0  0  0
 13 22  1  0  0  0  0
 14 16  1  0  0  0  0
 14 23  1  0  0  0  0
 15 16  2  0  0  0  0
 15 24  1  0  0  0  0
 16 25  1  0  0  0  0
 17 19  2  0  0  0  0
 17 32  1  0  0  0  0
 18 20  1  0  0  0  0
 18 33  1  0  0  0  0
 18 34  1  0  0  0  0
 18 35  1  0  0  0  0
M  END
$$$$
