23
0 1 C9H9N3S2
C                    -4.495606662548     0.844608691438     2.367991445806
C                    -4.061904625540     0.092993194957     1.242055887560
C                    -4.143444060235     0.264307474650     3.565188658419
C                    -7.463324547404    -1.546037984363    -1.199372141532
C                    -3.369541291841    -1.054661949766     1.588786586349
C                    -6.983221257421    -2.192543879339    -0.096829951989
C                    -5.034464228352    -1.750599864940    -1.061114599087
C                    -2.692663006269    -2.055865084184     0.781835182409
C                    -7.802811085351    -2.777812657233     1.014105173328
N                    -5.600499965272    -2.301828456198    -0.030322690271
N                    -2.739957774964    -2.325119011061    -0.481571095272
N                    -3.660898776178    -1.628239737255    -1.278589170912
S                    -3.264968127858    -1.200609860569     3.330808568080
S                    -6.146909106835    -1.006125794837    -2.218296103084
H                    -5.050381751847     1.774535322777     2.298254366858
H                    -4.237323050217     0.390341933713     0.216479671043
H                    -4.359754722661     0.614748943961     4.566509338971
H                    -8.491252125814    -1.357092879995    -1.479006651995
H                    -1.967389845499    -2.677440975091     1.307706485458
H                    -7.606816864278    -3.850918597126     1.109947558931
H                    -7.534530029610    -2.310227853225     1.967499411641
H                    -8.871270881085    -2.630431517581     0.838494461527
H                    -3.412266975162    -1.776123515881    -2.251273500793
