
  -OEChem-05262117483D

 36 39  0     0  0  0  0  0  0999 V2000
   -7.2655   -4.0487    3.9343 C   0  0  0  0  0  0  0  0  0  0  0  0
   -5.2294   -4.3723    3.5626 C   0  0  0  0  0  0  0  0  0  0  0  0
   -2.2710   -3.1318    3.1561 C   0  0  0  0  0  0  0  0  0  0  0  0
   -2.7471   -4.5990    1.4246 C   0  0  0  0  0  0  0  0  0  0  0  0
    0.2281   -1.2752    0.9285 C   0  0  0  0  0  0  0  0  0  0  0  0
   -1.1388   -0.6915    0.4618 C   0  0  0  0  0  0  0  0  0  0  0  0
   -9.3259   -5.3961    4.6623 C   0  0  0  0  0  0  0  0  0  0  0  0
   -8.9761   -4.4840    5.7987 C   0  0  0  0  0  0  0  0  0  0  0  0
   -0.1001   -2.2726    2.0685 C   0  0  0  0  0  0  0  0  0  0  0  0
   -2.1835   -1.2369    1.4561 C   0  0  0  0  0  0  0  0  0  0  0  0
   -8.6635   -4.0532    4.3685 C   0  0  0  0  0  0  0  0  0  0  0  0
   -1.5947   -2.5937    1.8973 C   0  0  0  0  0  0  0  0  0  0  0  0
   -3.8637   -4.9952    3.6354 C   0  0  0  0  0  0  0  0  0  0  0  0
   -6.2977   -4.8598    4.2817 N   0  0  0  0  0  0  0  0  0  0  0  0
   -5.4938   -3.3295    2.8142 N   0  0  0  0  0  0  0  0  0  0  0  0
   -1.8542   -3.6748    0.9387 N   0  0  0  0  0  0  0  0  0  0  0  0
   -2.9093   -4.3041    2.7981 N   0  0  0  0  0  0  0  0  0  0  0  0
   -2.2657   -2.6255    4.2645 O   0  0  0  0  0  0  0  0  0  0  0  0
   -3.2885   -5.5197    0.8377 O   0  0  0  0  0  0  0  0  0  0  0  0
   -6.8694   -3.1031    3.0593 O   0  0  0  0  0  0  0  0  0  0  0  0
    0.7348   -1.7812    0.1014 H   0  0  0  0  0  0  0  0  0  0  0  0
    0.9055   -0.4922    1.2796 H   0  0  0  0  0  0  0  0  0  0  0  0
   -1.1413    0.4014    0.4363 H   0  0  0  0  0  0  0  0  0  0  0  0
   -1.3704   -1.0261   -0.5557 H   0  0  0  0  0  0  0  0  0  0  0  0
   -8.7100   -6.2764    4.5123 H   0  0  0  0  0  0  0  0  0  0  0  0
  -10.3669   -5.4957    4.3713 H   0  0  0  0  0  0  0  0  0  0  0  0
   -9.7723   -3.9454    6.3030 H   0  0  0  0  0  0  0  0  0  0  0  0
   -8.1241   -4.7488    6.4157 H   0  0  0  0  0  0  0  0  0  0  0  0
    0.5090   -3.1794    2.0451 H   0  0  0  0  0  0  0  0  0  0  0  0
    0.0271   -1.8022    3.0479 H   0  0  0  0  0  0  0  0  0  0  0  0
   -2.2474   -0.5996    2.3434 H   0  0  0  0  0  0  0  0  0  0  0  0
   -3.1899   -1.3415    1.0427 H   0  0  0  0  0  0  0  0  0  0  0  0
   -9.2721   -3.2711    3.9282 H   0  0  0  0  0  0  0  0  0  0  0  0
   -3.5119   -4.9683    4.6697 H   0  0  0  0  0  0  0  0  0  0  0  0
   -3.9258   -6.0366    3.3116 H   0  0  0  0  0  0  0  0  0  0  0  0
   -1.8274   -3.5313   -0.0625 H   0  0  0  0  0  0  0  0  0  0  0  0
  1 11  1  0  0  0  0
  1 14  2  0  0  0  0
  1 20  1  0  0  0  0
  2 13  1  0  0  0  0
  2 14  1  0  0  0  0
  2 15  2  0  0  0  0
  3 12  1  0  0  0  0
  3 17  1  0  0  0  0
  3 18  2  0  0  0  0
  4 16  1  0  0  0  0
  4 17  1  0  0  0  0
  4 19  2  0  0  0  0
  5  6  1  0  0  0  0
  5  9  1  0  0  0  0
  5 21  1  0  0  0  0
  5 22  1  0  0  0  0
  6 10  1  0  0  0  0
  6 23  1  0  0  0  0
  6 24  1  0  0  0  0
  7  8  1  0  0  0  0
  7 11  1  0  0  0  0
  7 25  1  0  0  0  0
  7 26  1  0  0  0  0
  8 11  1  0  0  0  0
  8 27  1  0  0  0  0
  8 28  1  0  0  0  0
  9 12  1  0  0  0  0
  9 29  1  0  0  0  0
  9 30  1  0  0  0  0
 10 12  1  0  0  0  0
 10 31  1  0  0  0  0
 10 32  1  0  0  0  0
 11 33  1  0  0  0  0
 12 16  1  0  0  0  0
 13 17  1  0  0  0  0
 13 34  1  0  0  0  0
 13 35  1  0  0  0  0
 15 20  1  0  0  0  0
 16 36  1  0  0  0  0
M  END
$$$$
