29
0 1 BrC14H10N3O
C                    -2.825133053980    -1.286584181298    -7.766525028300
C                     2.087934376757     1.644347367663    -4.924270170497
C                     1.166465870532     1.224758179940    -3.947088834470
C                    -3.597159164190    -0.838887195686    -6.689188528278
C                    -2.013214829783    -2.409626161514    -7.621754425663
C                     2.414437673552     0.842794163950    -6.025897656064
C                     0.530375135581    -0.023926022608    -4.032373753712
C                    -3.559227360722    -1.519259844759    -5.469776085937
C                    -1.956466590683    -3.111725736752    -6.403899261893
C                     1.787651487954    -0.402775978882    -6.122892383253
C                     0.876614382202    -0.794523809442    -5.128102056404
C                    -2.746352336502    -2.645397945583    -5.342678054765
C                     1.054807261829    -2.330674361044    -6.647328896380
C                    -1.136970919254    -4.339310405635    -6.285332096535
N                     1.870664501261    -1.416459207469    -7.088974174369
N                     0.059095293490    -4.578802591250    -6.697787261069
N                     0.797508379493    -3.537300484948    -7.265466336649
O                     0.414163110440    -2.058939370941    -5.468363807214
Br                   -2.667367690003    -3.516588250792    -3.634083541252
H                    -2.852872703283    -0.759392073099    -8.715773507132
H                     2.558156049639     2.618444135020    -4.820154411419
H                     0.942068856443     1.878103394025    -3.108831375540
H                    -4.226684582701     0.040646329098    -6.791761084898
H                    -1.407724174505    -2.755387682825    -8.453324238257
H                     3.123950143077     1.171652902594    -6.779162349198
H                    -0.183469252676    -0.365807367897    -3.289496571094
H                    -4.147314943906    -1.175607988942    -4.625073730132
H                    -1.611124225349    -5.203328872652    -5.822689273206
H                     1.616477614850    -3.895208290152    -7.743661048479
