
  -OEChem-05262117483D

 23 24  0     0  0  0  0  0  0999 V2000
   -0.6784    1.0650   -2.2036 C   0  0  0  0  0  0  0  0  0  0  0  0
   -1.6144    0.2524   -1.5003 C   0  0  0  0  0  0  0  0  0  0  0  0
    0.3662    0.3426   -2.7258 C   0  0  0  0  0  0  0  0  0  0  0  0
   -7.5786   -2.5940   -0.0623 C   0  0  0  0  0  0  0  0  0  0  0  0
   -1.2712   -1.0915   -1.4893 C   0  0  0  0  0  0  0  0  0  0  0  0
   -7.5948   -1.4439   -0.7996 C   0  0  0  0  0  0  0  0  0  0  0  0
   -5.4035   -1.7330   -0.6855 C   0  0  0  0  0  0  0  0  0  0  0  0
   -1.9097   -2.2417   -0.8611 C   0  0  0  0  0  0  0  0  0  0  0  0
   -8.8152   -0.6937   -1.2450 C   0  0  0  0  0  0  0  0  0  0  0  0
   -6.3422   -0.9564   -1.1510 N   0  0  0  0  0  0  0  0  0  0  0  0
   -3.1562   -2.4173   -0.5605 N   0  0  0  0  0  0  0  0  0  0  0  0
   -4.0595   -1.4504   -0.8596 N   0  0  0  0  0  0  0  0  0  0  0  0
    0.2272   -1.3408   -2.3621 S   0  0  0  0  0  0  0  0  0  0  0  0
   -5.9368   -3.1326    0.2222 S   0  0  0  0  0  0  0  0  0  0  0  0
   -0.7724    2.1405   -2.3113 H   0  0  0  0  0  0  0  0  0  0  0  0
   -2.4645    0.6585   -0.9634 H   0  0  0  0  0  0  0  0  0  0  0  0
    1.2047    0.7043   -3.3073 H   0  0  0  0  0  0  0  0  0  0  0  0
   -8.4180   -3.1580    0.3225 H   0  0  0  0  0  0  0  0  0  0  0  0
   -1.2754   -3.0894   -0.6102 H   0  0  0  0  0  0  0  0  0  0  0  0
   -8.8005    0.3296   -0.8548 H   0  0  0  0  0  0  0  0  0  0  0  0
   -8.8468   -0.6264   -2.3378 H   0  0  0  0  0  0  0  0  0  0  0  0
   -9.7277   -1.1857   -0.8994 H   0  0  0  0  0  0  0  0  0  0  0  0
   -3.8578   -0.7598   -1.5832 H   0  0  0  0  0  0  0  0  0  0  0  0
  1  2  1  0  0  0  0
  1  3  2  0  0  0  0
  1 15  1  0  0  0  0
  2  5  2  0  0  0  0
  2 16  1  0  0  0  0
  3 13  1  0  0  0  0
  3 17  1  0  0  0  0
  4  6  2  0  0  0  0
  4 14  1  0  0  0  0
  4 18  1  0  0  0  0
  5  8  1  0  0  0  0
  5 13  1  0  0  0  0
  6  9  1  0  0  0  0
  6 10  1  0  0  0  0
  7 10  2  0  0  0  0
  7 12  1  0  0  0  0
  7 14  1  0  0  0  0
  8 11  2  0  0  0  0
  8 19  1  0  0  0  0
  9 20  1  0  0  0  0
  9 21  1  0  0  0  0
  9 22  1  0  0  0  0
 11 12  1  0  0  0  0
 12 23  1  0  0  0  0
M  END
$$$$
