
  -OEChem-05262117483D

 22 23  0     0  0  0  0  0  0999 V2000
    2.3705    0.2997    0.6518 C   0  0  0  0  0  0  0  0  0  0  0  0
    1.1643    0.4384    1.4129 C   0  0  0  0  0  0  0  0  0  0  0  0
    2.3547    1.0938   -0.4577 C   0  0  0  0  0  0  0  0  0  0  0  0
    0.2705    1.3330    0.8731 C   0  0  0  0  0  0  0  0  0  0  0  0
   -0.4395   -4.0974   -0.0421 C   0  0  0  0  0  0  0  0  0  0  0  0
   -0.5203   -2.4490    1.6897 C   0  0  0  0  0  0  0  0  0  0  0  0
   -0.2131   -4.9470   -1.2526 C   0  0  0  0  0  0  0  0  0  0  0  0
   -1.0612   -4.5016    1.0269 N   0  0  0  0  0  0  0  0  0  0  0  0
   -1.1031   -3.5636    2.0291 N   0  0  0  0  0  0  0  0  0  0  0  0
   -0.5407   -1.3183    2.5107 N   0  0  0  0  0  0  0  0  0  0  0  0
    0.5299    0.3670    4.0191 O   0  0  0  0  0  0  0  0  0  0  0  0
    2.0414   -1.4193    2.9977 O   0  0  0  0  0  0  0  0  0  0  0  0
    0.8819    2.0280   -0.6011 S   0  0  0  0  0  0  0  0  0  0  0  0
    0.1469   -2.4371    0.0710 S   0  0  0  0  0  0  0  0  0  0  0  0
    0.9144   -0.4953    2.9085 S   0  0  0  0  0  0  0  0  0  0  0  0
    3.5890    1.2368   -1.6549 Cl  0  0  0  0  0  0  0  0  0  0  0  0
   -1.2768    1.7832    1.4597 Cl  0  0  0  0  0  0  0  0  0  0  0  0
    3.1776   -0.3671    0.9294 H   0  0  0  0  0  0  0  0  0  0  0  0
   -0.6431   -4.4884   -2.1485 H   0  0  0  0  0  0  0  0  0  0  0  0
    0.8559   -5.1010   -1.4311 H   0  0  0  0  0  0  0  0  0  0  0  0
   -0.6868   -5.9164   -1.0875 H   0  0  0  0  0  0  0  0  0  0  0  0
   -1.0982   -1.4613    3.3550 H   0  0  0  0  0  0  0  0  0  0  0  0
  1  2  1  0  0  0  0
  1  3  2  0  0  0  0
  1 18  1  0  0  0  0
  2  4  2  0  0  0  0
  2 15  1  0  0  0  0
  3 13  1  0  0  0  0
  3 16  1  0  0  0  0
  4 13  1  0  0  0  0
  4 17  1  0  0  0  0
  5  7  1  0  0  0  0
  5  8  2  0  0  0  0
  5 14  1  0  0  0  0
  6  9  2  0  0  0  0
  6 10  1  0  0  0  0
  6 14  1  0  0  0  0
  7 19  1  0  0  0  0
  7 20  1  0  0  0  0
  7 21  1  0  0  0  0
  8  9  1  0  0  0  0
 10 15  1  0  0  0  0
 10 22  1  0  0  0  0
 11 15  2  0  0  0  0
 12 15  2  0  0  0  0
M  END
$$$$
