29
0 1 C14ClH11O2S
C                     1.881744969334    -1.258570497576    -0.023054107901
C                     0.812290473906    -0.625437233511     0.625584958621
C                     2.874528412779    -1.890041806526     0.731147482901
C                     0.735823557323    -0.623250234060     2.016121441448
C                     2.797111998819    -1.888716175279     2.125340643754
C                    -1.616178560933    -1.320373797232     7.705272766165
C                    -0.266074799531    -3.294389814551     7.240658196798
C                    -2.692700440265    -2.137680225499     8.056160696996
C                    -1.338920199025    -4.113578118690     7.590840099395
C                     1.729230429731    -1.256854333548     2.788870476521
C                    -0.417703840449    -1.906611604434     7.294292524352
C                    -2.543396508759    -3.525470791904     7.991485721954
C                     1.701868718792    -1.290695009791     4.253938055734
C                     0.784314557561    -0.734307427572     5.058686468487
O                     0.698262119692     0.483893781052     7.389858668868
O                     2.205682465754    -1.580463539010     7.118531722019
S                     0.961425756634    -0.849706975190     6.827031672050
Cl                   -3.891592369354    -4.553276908269     8.431203985255
H                     1.938093240423    -1.256954295123    -1.108318116464
H                     0.039481176132    -0.132920414560     0.041479926082
H                     3.707310665614    -2.381427662651     0.235463607136
H                    -0.099013861045    -0.126485587927     2.502066450954
H                     3.571628903826    -2.378535650985     2.710802576621
H                    -1.694981863694    -0.239425980254     7.767724508991
H                     0.685024063837    -3.725869413111     6.944298664877
H                    -3.632479541625    -1.705052730442     8.383761888333
H                    -1.243398198472    -5.194175556853     7.561953199191
H                     2.521995830928    -1.817832305815     4.740228670877
H                    -0.081671046360    -0.160225704625     4.744791728922
