
  -OEChem-05262117483D

 22 22  0     0  0  0  0  0  0999 V2000
    1.8207   -0.8951    0.2403 C   0  0  0  0  0  0  0  0  0  0  0  0
    0.8445   -0.3525    1.0812 C   0  0  0  0  0  0  0  0  0  0  0  0
    2.0575   -1.1842    3.0028 C   0  0  0  0  0  0  0  0  0  0  0  0
    3.0337   -1.7445    2.1699 C   0  0  0  0  0  0  0  0  0  0  0  0
    2.9216   -1.5860    0.7680 C   0  0  0  0  0  0  0  0  0  0  0  0
    0.9735   -0.4965    2.4591 C   0  0  0  0  0  0  0  0  0  0  0  0
    4.1677   -2.4665    2.8068 C   0  0  0  0  0  0  0  0  0  0  0  0
    3.8334   -1.9630   -1.4099 C   0  0  0  0  0  0  0  0  0  0  0  0
    4.4635   -3.6521    2.3875 N   0  0  0  0  0  0  0  0  0  0  0  0
    4.7595   -1.8470    3.9012 N   0  0  0  0  0  0  0  0  0  0  0  0
    5.5620   -4.1639    3.1489 O   0  0  0  0  0  0  0  0  0  0  0  0
    3.9251   -2.0951    0.0046 O   0  0  0  0  0  0  0  0  0  0  0  0
   -0.3536    0.2521    3.6261 Br  0  0  0  0  0  0  0  0  0  0  0  0
    1.7129   -0.7629   -0.8297 H   0  0  0  0  0  0  0  0  0  0  0  0
   -0.0013    0.1794    0.6577 H   0  0  0  0  0  0  0  0  0  0  0  0
    2.1474   -1.3099    4.0764 H   0  0  0  0  0  0  0  0  0  0  0  0
    4.7252   -2.4483   -1.8079 H   0  0  0  0  0  0  0  0  0  0  0  0
    3.8252   -0.9095   -1.7167 H   0  0  0  0  0  0  0  0  0  0  0  0
    2.9411   -2.4668   -1.8008 H   0  0  0  0  0  0  0  0  0  0  0  0
    4.8169   -0.8376    3.8410 H   0  0  0  0  0  0  0  0  0  0  0  0
    5.6197   -2.2920    4.2036 H   0  0  0  0  0  0  0  0  0  0  0  0
    5.7091   -5.0272    2.7331 H   0  0  0  0  0  0  0  0  0  0  0  0
  1  2  1  0  0  0  0
  1  5  2  0  0  0  0
  1 14  1  0  0  0  0
  2  6  2  0  0  0  0
  2 15  1  0  0  0  0
  3  4  2  0  0  0  0
  3  6  1  0  0  0  0
  3 16  1  0  0  0  0
  4  5  1  0  0  0  0
  4  7  1  0  0  0  0
  5 12  1  0  0  0  0
  6 13  1  0  0  0  0
  7  9  2  0  0  0  0
  7 10  1  0  0  0  0
  8 12  1  0  0  0  0
  8 17  1  0  0  0  0
  8 18  1  0  0  0  0
  8 19  1  0  0  0  0
  9 11  1  0  0  0  0
 10 20  1  0  0  0  0
 10 21  1  0  0  0  0
 11 22  1  0  0  0  0
M  END
$$$$
