
  -OEChem-05262117483D

 22 22  0     0  0  0  0  0  0999 V2000
    1.8375   -0.9828    0.1444 C   0  0  0  0  0  0  0  0  0  0  0  0
    0.8535   -0.3742    0.9273 C   0  0  0  0  0  0  0  0  0  0  0  0
    2.0267   -1.0880    2.9226 C   0  0  0  0  0  0  0  0  0  0  0  0
    3.0238   -1.7017    2.1510 C   0  0  0  0  0  0  0  0  0  0  0  0
    2.9196   -1.6406    0.7420 C   0  0  0  0  0  0  0  0  0  0  0  0
    0.9615   -0.4305    2.3142 C   0  0  0  0  0  0  0  0  0  0  0  0
    4.1455   -2.3775    2.8606 C   0  0  0  0  0  0  0  0  0  0  0  0
    3.8818   -2.1326   -1.4109 C   0  0  0  0  0  0  0  0  0  0  0  0
    4.4729   -1.8741    4.0118 N   0  0  0  0  0  0  0  0  0  0  0  0
    4.6998   -3.5273    2.3365 N   0  0  0  0  0  0  0  0  0  0  0  0
    5.5195   -2.6538    4.5914 O   0  0  0  0  0  0  0  0  0  0  0  0
    3.9227   -2.2336    0.0120 O   0  0  0  0  0  0  0  0  0  0  0  0
   -0.3828    0.3978    3.4043 Br  0  0  0  0  0  0  0  0  0  0  0  0
    1.7475   -0.9312   -0.9339 H   0  0  0  0  0  0  0  0  0  0  0  0
    0.0177    0.1315    0.4550 H   0  0  0  0  0  0  0  0  0  0  0  0
    2.1074   -1.1382    4.0016 H   0  0  0  0  0  0  0  0  0  0  0  0
    4.7810   -2.6357   -1.7686 H   0  0  0  0  0  0  0  0  0  0  0  0
    3.8993   -1.0852   -1.7324 H   0  0  0  0  0  0  0  0  0  0  0  0
    2.9969   -2.6331   -1.8209 H   0  0  0  0  0  0  0  0  0  0  0  0
    4.6869   -3.5876    1.3267 H   0  0  0  0  0  0  0  0  0  0  0  0
    5.5741   -3.7929    2.7757 H   0  0  0  0  0  0  0  0  0  0  0  0
    5.7256   -2.1502    5.3939 H   0  0  0  0  0  0  0  0  0  0  0  0
  1  2  1  0  0  0  0
  1  5  2  0  0  0  0
  1 14  1  0  0  0  0
  2  6  2  0  0  0  0
  2 15  1  0  0  0  0
  3  4  2  0  0  0  0
  3  6  1  0  0  0  0
  3 16  1  0  0  0  0
  4  5  1  0  0  0  0
  4  7  1  0  0  0  0
  5 12  1  0  0  0  0
  6 13  1  0  0  0  0
  7  9  2  0  0  0  0
  7 10  1  0  0  0  0
  8 12  1  0  0  0  0
  8 17  1  0  0  0  0
  8 18  1  0  0  0  0
  8 19  1  0  0  0  0
  9 11  1  0  0  0  0
 10 20  1  0  0  0  0
 10 21  1  0  0  0  0
 11 22  1  0  0  0  0
M  END
$$$$
