
  -OEChem-05262117483D

 22 23  0     0  0  0  0  0  0999 V2000
    2.2296   -2.3261    3.6532 C   0  0  0  0  0  0  0  0  0  0  0  0
    1.1424   -1.4017    3.7748 C   0  0  0  0  0  0  0  0  0  0  0  0
    2.2196   -3.2436    4.6644 C   0  0  0  0  0  0  0  0  0  0  0  0
    0.3350   -1.6437    4.8597 C   0  0  0  0  0  0  0  0  0  0  0  0
   -0.6996   -4.2201    0.5501 C   0  0  0  0  0  0  0  0  0  0  0  0
   -0.7544   -2.0127    1.4541 C   0  0  0  0  0  0  0  0  0  0  0  0
   -0.4309   -5.5207   -0.1396 C   0  0  0  0  0  0  0  0  0  0  0  0
   -1.6544   -4.0473    1.4218 N   0  0  0  0  0  0  0  0  0  0  0  0
   -1.6814   -2.7825    1.9543 N   0  0  0  0  0  0  0  0  0  0  0  0
   -0.6370   -0.6631    1.8101 N   0  0  0  0  0  0  0  0  0  0  0  0
    1.8771   -0.3360    1.5211 O   0  0  0  0  0  0  0  0  0  0  0  0
    0.5353    1.1297    3.1384 O   0  0  0  0  0  0  0  0  0  0  0  0
    0.8903   -3.0127    5.7772 S   0  0  0  0  0  0  0  0  0  0  0  0
    0.2720   -2.7811    0.2680 S   0  0  0  0  0  0  0  0  0  0  0  0
    0.8406   -0.1566    2.5307 S   0  0  0  0  0  0  0  0  0  0  0  0
    3.3460   -4.5268    4.9169 Cl  0  0  0  0  0  0  0  0  0  0  0  0
   -1.0911   -0.8072    5.3293 Cl  0  0  0  0  0  0  0  0  0  0  0  0
    2.9603   -2.2869    2.8548 H   0  0  0  0  0  0  0  0  0  0  0  0
   -0.4984   -5.4159   -1.2269 H   0  0  0  0  0  0  0  0  0  0  0  0
    0.5687   -5.8966    0.1012 H   0  0  0  0  0  0  0  0  0  0  0  0
   -1.1724   -6.2493    0.1934 H   0  0  0  0  0  0  0  0  0  0  0  0
   -1.4273   -0.3661    2.3854 H   0  0  0  0  0  0  0  0  0  0  0  0
  1  2  1  0  0  0  0
  1  3  2  0  0  0  0
  1 18  1  0  0  0  0
  2  4  2  0  0  0  0
  2 15  1  0  0  0  0
  3 13  1  0  0  0  0
  3 16  1  0  0  0  0
  4 13  1  0  0  0  0
  4 17  1  0  0  0  0
  5  7  1  0  0  0  0
  5  8  2  0  0  0  0
  5 14  1  0  0  0  0
  6  9  2  0  0  0  0
  6 10  1  0  0  0  0
  6 14  1  0  0  0  0
  7 19  1  0  0  0  0
  7 20  1  0  0  0  0
  7 21  1  0  0  0  0
  8  9  1  0  0  0  0
 10 15  1  0  0  0  0
 10 22  1  0  0  0  0
 11 15  2  0  0  0  0
 12 15  2  0  0  0  0
M  END
$$$$
