
  -OEChem-05262117483D

 22 23  0     0  0  0  0  0  0999 V2000
   -1.7498   -0.8383    0.9791 C   0  0  0  0  0  0  0  0  0  0  0  0
   -0.9026    0.1876    0.5694 C   0  0  0  0  0  0  0  0  0  0  0  0
   -1.9394    1.7664    2.1470 C   0  0  0  0  0  0  0  0  0  0  0  0
   -4.3060   -0.6609    3.5431 C   0  0  0  0  0  0  0  0  0  0  0  0
   -2.8084    0.7406    2.5660 C   0  0  0  0  0  0  0  0  0  0  0  0
   -3.8526    0.6477    3.5647 C   0  0  0  0  0  0  0  0  0  0  0  0
   -2.6878   -0.5491    1.9759 C   0  0  0  0  0  0  0  0  0  0  0  0
   -1.0175    1.4555    1.1644 C   0  0  0  0  0  0  0  0  0  0  0  0
   -4.3573    1.6473    4.5130 C   0  0  0  0  0  0  0  0  0  0  0  0
   -4.5428    2.9140    4.3304 N   0  0  0  0  0  0  0  0  0  0  0  0
   -3.6215   -1.3753    2.5891 N   0  0  0  0  0  0  0  0  0  0  0  0
   -4.7611    1.1349    5.7620 N   0  0  0  0  0  0  0  0  0  0  0  0
   -4.3351    3.2957    2.9770 O   0  0  0  0  0  0  0  0  0  0  0  0
   -0.1661    2.4310    0.7336 F   0  0  0  0  0  0  0  0  0  0  0  0
   -1.6752   -1.8286    0.5374 H   0  0  0  0  0  0  0  0  0  0  0  0
   -0.1535    0.0296   -0.1998 H   0  0  0  0  0  0  0  0  0  0  0  0
   -2.0010    2.7676    2.5544 H   0  0  0  0  0  0  0  0  0  0  0  0
   -5.0903   -1.1139    4.1338 H   0  0  0  0  0  0  0  0  0  0  0  0
   -3.7843   -2.3455    2.3607 H   0  0  0  0  0  0  0  0  0  0  0  0
   -5.0763    1.8814    6.3774 H   0  0  0  0  0  0  0  0  0  0  0  0
   -4.0392    0.5741    6.2065 H   0  0  0  0  0  0  0  0  0  0  0  0
   -4.5506    4.2411    3.0042 H   0  0  0  0  0  0  0  0  0  0  0  0
  1  2  1  0  0  0  0
  1  7  2  0  0  0  0
  1 15  1  0  0  0  0
  2  8  2  0  0  0  0
  2 16  1  0  0  0  0
  3  5  2  0  0  0  0
  3  8  1  0  0  0  0
  3 17  1  0  0  0  0
  4  6  2  0  0  0  0
  4 11  1  0  0  0  0
  4 18  1  0  0  0  0
  5  6  1  0  0  0  0
  5  7  1  0  0  0  0
  6  9  1  0  0  0  0
  7 11  1  0  0  0  0
  8 14  1  0  0  0  0
  9 10  2  0  0  0  0
  9 12  1  0  0  0  0
 10 13  1  0  0  0  0
 11 19  1  0  0  0  0
 12 20  1  0  0  0  0
 12 21  1  0  0  0  0
 13 22  1  0  0  0  0
M  END
$$$$
