32
0 1 C13H12N6O
C                    -1.374537360206    -1.993975369890     4.613354682752
C                    -1.317178270686    -2.680480526655     3.379872016350
C                    -2.180662776730    -0.870838180110     4.776621277760
C                    -2.066301670595    -2.255862239809     2.284518349956
C                    -4.313160547550     0.596776630649     2.180050629824
C                    -2.948831534331    -0.418357617725     3.687797515268
C                    -3.873268137322     0.679018024207     3.491152379767
C                    -2.874359351244    -1.126254641521     2.455787374414
C                    -7.866508717711     6.607717278066     5.022346414193
C                    -7.661433879204     5.777634792108     3.891170329361
C                    -6.237675021371     4.529452238973     5.085735017645
C                    -4.256108878238     1.665218106268     4.480855662589
C                    -8.789338320639     7.791686282811     4.999429680696
N                    -7.209644094167     6.316806456337     6.144274307044
N                    -6.853020088751     4.737324244714     3.905018309578
N                    -6.383258524871     5.274176519936     6.199826695607
N                    -5.091257521599     2.612584682769     4.214808052183
N                    -3.716887529561    -0.480657793615     1.562333282176
N                    -5.371936357995     3.476737846553     5.225015406721
O                    -8.320811200189     6.061042611254     2.747287440259
H                    -0.777148037599    -2.352190161378     5.447365812073
H                    -0.678336364583    -3.554060739025     3.283704673605
H                    -2.211168959199    -0.356260936932     5.733731414321
H                    -2.021896849775    -2.784447777439     1.335408044586
H                    -5.009477755781     1.236792156553     1.656103610909
H                    -3.800797302445     1.570956600540     5.476290405570
H                    -9.813665446101     7.490130056053     4.755083103814
H                    -8.781315073357     8.270264325320     5.980533108872
H                    -8.479787395709     8.519847671630     4.241899909204
H                    -3.872154086999    -0.756325491163     0.602942640550
H                    -4.942751451741     3.381895029076     6.145507972583
H                    -8.048015236237     5.383879935266     2.098443317568
