29
1 1 C11FH14N2O
C                    -0.924835650233     5.002289581888     2.836376482175
C                    -0.212608459283     5.554227455821     3.908704124102
C                    -0.393663901863     3.922023609746     2.131823927144
C                     1.024726331458     5.023230960360     4.278306195318
C                     0.847969151938     3.369171180008     2.482273725704
C                     1.525284024584     3.942531062905     3.560136084995
C                     0.409367330841     0.347326901585     3.012793374289
C                    -0.176889897164    -1.212888232386     4.614023652707
C                     0.669413161494    -0.080738530279     5.223711334153
C                     1.651194862559     2.462553624734     0.237771258992
C                     1.449435758495     2.198979896620     1.730098820118
N                    -0.450824380593    -0.644885030472     3.280361115026
N                     0.582235883379     0.981070090012     1.869936178791
O                     1.138349235384     0.686799352835     4.057614342471
F                     2.726375648086     3.423960018774     3.927053698431
H                    -1.884307171304     5.419932773337     2.547167007512
H                    -0.617382563686     6.400972864292     4.454995968244
H                    -0.950357983523     3.507665301708     1.294243762126
H                     1.602456371431     5.432548209870     5.101190003215
H                     0.373789286439    -2.153812182183     4.527945396282
H                    -1.104633979431    -1.378289522969     5.163092618850
H                     0.087313641790     0.607577783115     5.837570101502
H                     1.554096940523    -0.418901558980     5.758926843097
H                     0.705722248337     2.693044760000    -0.263821806390
H                     2.117662266552     1.603552112223    -0.253782981322
H                     2.306775585771     3.326745069197     0.115267057520
H                     2.407618754224     1.941096104131     2.181033587077
H                    -0.984852183037    -1.128368773270     2.567870340907
H                     0.008379478797     0.709910093281     1.078716329598
