40
-1 1 C15ClH18O5S
C                     6.093376270178    -1.498112399390    -5.178311718387
C                     5.438051234811    -0.946802224881    -6.273161846206
C                     5.501414882266    -1.538025839218    -3.901857031380
C                     3.521819712572    -0.447032143240    -4.850936797934
C                     4.147093065193    -0.428584343037    -6.109266070078
C                     4.217713833040    -0.995114368514    -3.765887735862
C                     6.284945987675    -2.162461361437    -2.730034792079
C                    -0.522416596088    -0.539493075883    -2.105309952804
C                    -1.329893266619    -1.550876489729    -2.972443754853
C                    -0.118497594431     0.608772395376    -3.059309485177
C                    -1.314951609402    -0.981116943362    -4.414485590063
C                    -0.102639529288    -0.029912948357    -4.460783754026
C                     4.487571746909     2.740188506811    -6.739520774162
C                     1.177768000355    -0.808268208511    -4.731624656898
C                     3.146411985260     2.067884841807    -7.013103899799
O                     7.136708101939    -1.397455167934    -2.218169211681
O                     5.973609385998    -3.353107058551    -2.491167120240
O                     4.284402824795     0.291236186337    -8.644617540038
O                     1.977438603223    -0.222002767675    -7.704878047591
O                     2.282087913112     0.129312992347    -4.699832393886
S                     3.335606242134     0.327941404657    -7.510448508279
Cl                    3.442510849779    -0.961400774178    -2.183550004634
H                     7.096999570110    -1.898913615924    -5.291316622708
H                     5.902480824991    -0.899554288370    -7.253171475670
H                    -1.103196114990    -0.171308257656    -1.253377205348
H                     0.371838670447    -1.017202246455    -1.696454923712
H                    -0.860300986528    -2.538981144073    -2.943240549555
H                    -2.354184027023    -1.680147063232    -2.607633584367
H                    -0.875042037956     1.403622982329    -3.037990194801
H                     0.843903187089     1.054797816015    -2.797829954708
H                    -1.269691881631    -1.763505666300    -5.179935837331
H                    -2.227123996066    -0.401998162467    -4.600773214105
H                    -0.207251910594     0.720059140671    -5.252541675898
H                     5.002693338808     2.264873783741    -5.900326258811
H                     5.135150374052     2.688292568728    -7.618549998356
H                     4.325799368424     3.793236730674    -6.485496117608
H                     1.146247448675    -1.267838607787    -5.723516875960
H                     1.348343405785    -1.581821169602    -3.975302642429
H                     2.616998454632     2.519165500158    -7.858320637019
H                     2.490563233791     2.052170786950    -6.141182599774
