41
0 1 C15ClH19O5S
C                     1.002603459028    -4.368077272573    -8.395644943606
C                    -0.228884272791    -3.723907361600    -8.414013134389
C                     1.865324071310    -4.279990762175    -7.289736811287
C                     0.208801315008    -2.839928737663    -6.186378921532
C                    -0.616078835084    -2.963826395025    -7.312717755147
C                     1.445405407272    -3.512906558558    -6.186577357694
C                     3.159660920999    -5.064808085712    -7.445989871464
C                    -0.911813398136     1.750437608624    -2.356114407278
C                    -1.144409642681     0.399172594292    -1.615320896969
C                    -0.270139256225     1.385754832259    -3.717815261880
C                    -0.539845814828    -0.688244795094    -2.529207643167
C                    -0.648687068187    -0.089902016864    -3.940942499377
C                    -4.531689949476    -2.216960528598    -5.910760924308
C                     0.212552075451    -0.760879706657    -4.987305114235
C                    -3.158513294382    -2.877875426886    -6.018767612288
O                     3.261900741573    -5.919515568580    -8.298776340514
O                    -2.018186915353    -0.692305542256    -7.073203682762
O                    -2.845340648872    -2.515803954845    -8.649590144201
O                     4.214406470181    -4.771074484571    -6.657989208331
O                    -0.225158505388    -2.155671552148    -5.093232310406
S                    -2.220384913705    -2.119102983259    -7.377142445243
Cl                    2.384651574264    -3.377532174644    -4.700134151899
H                     1.326512506881    -4.972649974728    -9.235200738822
H                    -0.895715568091    -3.799853239718    -9.266996060478
H                    -1.862001886198     2.270983425686    -2.509542825340
H                    -0.271174056969     2.427891945923    -1.784296922488
H                    -0.696184802801     0.387846169943    -0.617536125621
H                    -2.216632740358     0.222048859010    -1.480983012457
H                    -0.603243154996     2.033678530570    -4.533821057231
H                     0.822367087518     1.474406154662    -3.655959060378
H                     0.519841434569    -0.845249360996    -2.287995853871
H                    -1.039159348831    -1.656481850904    -2.434521075844
H                    -1.690242293299    -0.141360288351    -4.282480091150
H                    -4.435366266617    -1.148597519376    -5.702785326836
H                    -5.106922939779    -2.345234158694    -6.830750163266
H                    -5.085951112451    -2.680408500344    -5.089420091321
H                     1.269404152106    -0.751458817693    -4.697397527829
H                     0.087318023378    -0.287858527578    -5.963807537068
H                    -3.225516040597    -3.941116159462    -6.263635703895
H                    -2.554202968872    -2.740311852727    -5.120659623444
H                     3.982946570195    -4.108626311190    -5.980792675585
