
  -OEChem-05262117483D

 40 41  0     0  0  0  0  0  0999 V2000
    6.0934   -1.4981   -5.1783 C   0  0  0  0  0  0  0  0  0  0  0  0
    5.4381   -0.9468   -6.2732 C   0  0  0  0  0  0  0  0  0  0  0  0
    5.5014   -1.5380   -3.9019 C   0  0  0  0  0  0  0  0  0  0  0  0
    3.5218   -0.4470   -4.8509 C   0  0  0  0  0  0  0  0  0  0  0  0
    4.1471   -0.4286   -6.1093 C   0  0  0  0  0  0  0  0  0  0  0  0
    4.2177   -0.9951   -3.7659 C   0  0  0  0  0  0  0  0  0  0  0  0
    6.2849   -2.1625   -2.7300 C   0  0  0  0  0  0  0  0  0  0  0  0
   -0.5224   -0.5395   -2.1053 C   0  0  0  0  0  0  0  0  0  0  0  0
   -1.3299   -1.5509   -2.9724 C   0  0  0  0  0  0  0  0  0  0  0  0
   -0.1185    0.6088   -3.0593 C   0  0  0  0  0  0  0  0  0  0  0  0
   -1.3150   -0.9811   -4.4145 C   0  0  0  0  0  0  0  0  0  0  0  0
   -0.1026   -0.0299   -4.4608 C   0  0  0  0  0  0  0  0  0  0  0  0
    4.4876    2.7402   -6.7395 C   0  0  0  0  0  0  0  0  0  0  0  0
    1.1778   -0.8083   -4.7316 C   0  0  0  0  0  0  0  0  0  0  0  0
    3.1464    2.0679   -7.0131 C   0  0  0  0  0  0  0  0  0  0  0  0
    7.1367   -1.3975   -2.2182 O   0  5  0  0  0  0  0  0  0  0  0  0
    5.9736   -3.3531   -2.4912 O   0  0  0  0  0  0  0  0  0  0  0  0
    4.2844    0.2912   -8.6446 O   0  0  0  0  0  0  0  0  0  0  0  0
    1.9774   -0.2220   -7.7049 O   0  0  0  0  0  0  0  0  0  0  0  0
    2.2821    0.1293   -4.6998 O   0  0  0  0  0  0  0  0  0  0  0  0
    3.3356    0.3279   -7.5104 S   0  0  0  0  0  0  0  0  0  0  0  0
    3.4425   -0.9614   -2.1836 Cl  0  0  0  0  0  0  0  0  0  0  0  0
    7.0970   -1.8989   -5.2913 H   0  0  0  0  0  0  0  0  0  0  0  0
    5.9025   -0.8996   -7.2532 H   0  0  0  0  0  0  0  0  0  0  0  0
   -1.1032   -0.1713   -1.2534 H   0  0  0  0  0  0  0  0  0  0  0  0
    0.3718   -1.0172   -1.6965 H   0  0  0  0  0  0  0  0  0  0  0  0
   -0.8603   -2.5390   -2.9432 H   0  0  0  0  0  0  0  0  0  0  0  0
   -2.3542   -1.6801   -2.6076 H   0  0  0  0  0  0  0  0  0  0  0  0
   -0.8750    1.4036   -3.0380 H   0  0  0  0  0  0  0  0  0  0  0  0
    0.8439    1.0548   -2.7978 H   0  0  0  0  0  0  0  0  0  0  0  0
   -1.2697   -1.7635   -5.1799 H   0  0  0  0  0  0  0  0  0  0  0  0
   -2.2271   -0.4020   -4.6008 H   0  0  0  0  0  0  0  0  0  0  0  0
   -0.2073    0.7201   -5.2525 H   0  0  0  0  0  0  0  0  0  0  0  0
    5.0027    2.2649   -5.9003 H   0  0  0  0  0  0  0  0  0  0  0  0
    5.1352    2.6883   -7.6185 H   0  0  0  0  0  0  0  0  0  0  0  0
    4.3258    3.7932   -6.4855 H   0  0  0  0  0  0  0  0  0  0  0  0
    1.1462   -1.2678   -5.7235 H   0  0  0  0  0  0  0  0  0  0  0  0
    1.3483   -1.5818   -3.9753 H   0  0  0  0  0  0  0  0  0  0  0  0
    2.6170    2.5192   -7.8583 H   0  0  0  0  0  0  0  0  0  0  0  0
    2.4906    2.0522   -6.1412 H   0  0  0  0  0  0  0  0  0  0  0  0
  1  2  1  0  0  0  0
  1  3  2  0  0  0  0
  1 23  1  0  0  0  0
  2  5  2  0  0  0  0
  2 24  1  0  0  0  0
  3  6  1  0  0  0  0
  3  7  1  0  0  0  0
  4  5  1  0  0  0  0
  4  6  2  0  0  0  0
  4 20  1  0  0  0  0
  5 21  1  0  0  0  0
  6 22  1  0  0  0  0
  7 16  1  0  0  0  0
  7 17  2  0  0  0  0
  8  9  1  0  0  0  0
  8 10  1  0  0  0  0
  8 25  1  0  0  0  0
  8 26  1  0  0  0  0
  9 11  1  0  0  0  0
  9 27  1  0  0  0  0
  9 28  1  0  0  0  0
 10 12  1  0  0  0  0
 10 29  1  0  0  0  0
 10 30  1  0  0  0  0
 11 12  1  0  0  0  0
 11 31  1  0  0  0  0
 11 32  1  0  0  0  0
 12 14  1  0  0  0  0
 12 33  1  0  0  0  0
 13 15  1  0  0  0  0
 13 34  1  0  0  0  0
 13 35  1  0  0  0  0
 13 36  1  0  0  0  0
 14 20  1  0  0  0  0
 14 37  1  0  0  0  0
 14 38  1  0  0  0  0
 15 21  1  0  0  0  0
 15 39  1  0  0  0  0
 15 40  1  0  0  0  0
 18 21  2  0  0  0  0
 19 21  2  0  0  0  0
M  CHG  1  16  -1
M  END
$$$$
