28
0 1 C11FH13N2O
C                    -2.877939478496     1.802536719005     4.813828695836
C                    -3.832523624684     2.109105852063     3.839572762557
C                    -1.561843089450     1.519025969599     4.435886929366
C                    -3.468048275203     2.130097729916     2.489205634949
C                    -1.163223596471     1.542456793465     3.093337865869
C                    -2.150689533921     1.847966444955     2.153405191990
C                    -0.090162054546    -1.156932118653     2.185226707918
C                    -0.784711572763    -3.242009282438     2.312417244558
C                    -0.496294324011    -2.720697100356     3.742245590369
C                     0.995361594815     2.420577166383     2.071918817893
C                     0.269083309560     1.220832002543     2.690013733481
N                    -0.622195181704    -2.062545025701     1.450563249918
N                     0.356203658790     0.074770009313     1.769200105222
O                     0.123277398170    -1.425575999457     3.516160262848
F                    -1.811190793148     1.865708164005     0.829123071800
H                    -3.157831465422     1.777488941254     5.863289595637
H                    -4.858508350132     2.326727842075     4.123060064120
H                    -0.824058724183     1.262650919546     5.192303454884
H                    -4.183184152193     2.357061322270     1.704358201229
H                    -0.080881000660    -4.029203087911     2.012928571371
H                    -1.796129764136    -3.650232627402     2.220923594938
H                    -1.406276747831    -2.556935936327     4.328360951256
H                     0.203983156505    -3.331535107223     4.315489980340
H                     0.521906448090     2.736152011841     1.138095299116
H                     0.976506878505     3.267694628767     2.763286996805
H                     2.036359199441     2.156944583180     1.863530335194
H                     0.801418676282     0.928773601823     3.596940741005
H                     0.032384332934     0.271394221147     0.827374432166
