
  -OEChem-05262117483D

 41 42  0     0  0  0  0  0  0999 V2000
   -0.0323   -3.3243   -8.6291 C   0  0  0  0  0  0  0  0  0  0  0  0
   -1.0646   -2.4321   -8.3781 C   0  0  0  0  0  0  0  0  0  0  0  0
    0.8402   -3.7366   -7.6081 C   0  0  0  0  0  0  0  0  0  0  0  0
   -0.4279   -2.3272   -6.0296 C   0  0  0  0  0  0  0  0  0  0  0  0
   -1.2775   -1.9502   -7.0832 C   0  0  0  0  0  0  0  0  0  0  0  0
    0.6287   -3.2213   -6.3192 C   0  0  0  0  0  0  0  0  0  0  0  0
    1.9079   -4.7211   -8.0570 C   0  0  0  0  0  0  0  0  0  0  0  0
   -2.1022   -1.4644   -0.2482 C   0  0  0  0  0  0  0  0  0  0  0  0
   -1.6471   -0.1110   -0.8728 C   0  0  0  0  0  0  0  0  0  0  0  0
   -2.1344   -2.4816   -1.4157 C   0  0  0  0  0  0  0  0  0  0  0  0
   -1.5186   -0.3681   -2.3892 C   0  0  0  0  0  0  0  0  0  0  0  0
   -1.2095   -1.8711   -2.4846 C   0  0  0  0  0  0  0  0  0  0  0  0
   -5.3875   -1.2533   -6.4931 C   0  0  0  0  0  0  0  0  0  0  0  0
   -1.4277   -2.4684   -3.8582 C   0  0  0  0  0  0  0  0  0  0  0  0
   -4.0808   -2.0144   -6.7068 C   0  0  0  0  0  0  0  0  0  0  0  0
    1.7482   -5.3844   -9.0584 O   0  0  0  0  0  0  0  0  0  0  0  0
   -2.5901   -0.0639   -5.6387 O   0  0  0  0  0  0  0  0  0  0  0  0
   -2.8761   -0.1496   -8.1741 O   0  0  0  0  0  0  0  0  0  0  0  0
    3.0580   -4.8169   -7.3590 O   0  0  0  0  0  0  0  0  0  0  0  0
   -0.5204   -1.8128   -4.7798 O   0  0  0  0  0  0  0  0  0  0  0  0
   -2.7019   -0.8337   -6.8828 S   0  0  0  0  0  0  0  0  0  0  0  0
    1.6506   -3.6496   -4.9492 Cl  0  0  0  0  0  0  0  0  0  0  0  0
    0.1291   -3.7233   -9.6241 H   0  0  0  0  0  0  0  0  0  0  0  0
   -1.7037   -2.0877   -9.1848 H   0  0  0  0  0  0  0  0  0  0  0  0
   -1.3942   -1.7898    0.5205 H   0  0  0  0  0  0  0  0  0  0  0  0
   -3.0793   -1.3879    0.2377 H   0  0  0  0  0  0  0  0  0  0  0  0
   -2.3470    0.7016   -0.6578 H   0  0  0  0  0  0  0  0  0  0  0  0
   -0.6794    0.1887   -0.4572 H   0  0  0  0  0  0  0  0  0  0  0  0
   -1.8311   -3.4886   -1.1112 H   0  0  0  0  0  0  0  0  0  0  0  0
   -3.1523   -2.5572   -1.8205 H   0  0  0  0  0  0  0  0  0  0  0  0
   -2.4652   -0.1648   -2.9027 H   0  0  0  0  0  0  0  0  0  0  0  0
   -0.7593    0.2505   -2.8727 H   0  0  0  0  0  0  0  0  0  0  0  0
   -0.1634   -2.0446   -2.1992 H   0  0  0  0  0  0  0  0  0  0  0  0
   -5.3442   -0.6491   -5.5838 H   0  0  0  0  0  0  0  0  0  0  0  0
   -5.6009   -0.5970   -7.3402 H   0  0  0  0  0  0  0  0  0  0  0  0
   -6.2087   -1.9694   -6.3955 H   0  0  0  0  0  0  0  0  0  0  0  0
   -2.4579   -2.2897   -4.1855 H   0  0  0  0  0  0  0  0  0  0  0  0
   -1.2273   -3.5474   -3.8672 H   0  0  0  0  0  0  0  0  0  0  0  0
   -4.0897   -2.6084   -7.6243 H   0  0  0  0  0  0  0  0  0  0  0  0
   -3.8372   -2.6646   -5.8631 H   0  0  0  0  0  0  0  0  0  0  0  0
    3.0322   -4.2716   -6.5508 H   0  0  0  0  0  0  0  0  0  0  0  0
  1  2  1  0  0  0  0
  1  3  2  0  0  0  0
  1 23  1  0  0  0  0
  2  5  2  0  0  0  0
  2 24  1  0  0  0  0
  3  6  1  0  0  0  0
  3  7  1  0  0  0  0
  4  5  1  0  0  0  0
  4  6  2  0  0  0  0
  4 20  1  0  0  0  0
  5 21  1  0  0  0  0
  6 22  1  0  0  0  0
  7 16  2  0  0  0  0
  7 19  1  0  0  0  0
  8  9  1  0  0  0  0
  8 10  1  0  0  0  0
  8 25  1  0  0  0  0
  8 26  1  0  0  0  0
  9 11  1  0  0  0  0
  9 27  1  0  0  0  0
  9 28  1  0  0  0  0
 10 12  1  0  0  0  0
 10 29  1  0  0  0  0
 10 30  1  0  0  0  0
 11 12  1  0  0  0  0
 11 31  1  0  0  0  0
 11 32  1  0  0  0  0
 12 14  1  0  0  0  0
 12 33  1  0  0  0  0
 13 15  1  0  0  0  0
 13 34  1  0  0  0  0
 13 35  1  0  0  0  0
 13 36  1  0  0  0  0
 14 20  1  0  0  0  0
 14 37  1  0  0  0  0
 14 38  1  0  0  0  0
 15 21  1  0  0  0  0
 15 39  1  0  0  0  0
 15 40  1  0  0  0  0
 17 21  2  0  0  0  0
 18 21  2  0  0  0  0
 19 41  1  0  0  0  0
M  END
$$$$
