34
0 1 C12H16N2O4
C                     0.187289070745     2.784508225352     1.717938052644
C                     1.521394460958     2.865491881099     1.114457529918
C                    -0.365721307807     1.596549113311     2.022567555430
C                     2.136021805288     1.762621945650     0.656956578668
C                    -1.000224373541    -1.585957462103    -1.093774622764
C                     3.215179394595    -0.918307561409     1.744734443570
C                    -0.557618226157    -0.835532873642     1.263605613444
C                     0.561095534276     0.251338251401    -0.608276244115
C                     0.358133033609     0.291518962763     1.784377505594
C                     1.425219339309     0.430310212176     0.661422410984
C                    -2.491413970826    -3.396205743012    -1.349995200697
C                     4.828022170562    -2.421541290218     2.588712075309
N                    -0.421575311506    -0.747341961872    -0.196368217066
N                     2.370898115680    -0.689643092956     0.696814317303
O                    -0.812502790386    -1.562029089948    -2.304843750279
O                     3.371672346677    -0.186554900867     2.710555958874
O                    -1.827293650377    -2.474018047915    -0.466565386445
O                     3.881945368260    -2.094902148342     1.553994094932
H                    -0.338427151630     3.707258171235     1.951399406677
H                     2.012557925069     3.833260075316     1.052853629527
H                    -1.330070525109     1.550040389737     2.525002621131
H                     3.129429175123     1.795673359375     0.218798980672
H                    -0.224859292717    -1.817016822566     1.617030419823
H                    -1.597554015542    -0.703628902669     1.573849072590
H                     0.081966893463     1.200522752709    -0.865542523843
H                     1.130294824856    -0.092559476023    -1.474386008885
H                     0.831960657590    -0.013333519424     2.724132862773
H                    -3.103462851570    -4.025250430486    -0.702839989408
H                    -1.763010631603    -4.001422914216    -1.894871617511
H                    -3.117781053364    -2.859374629586    -2.066359530831
H                     5.264888020527    -3.374645190162     2.289757797020
H                     4.325631502829    -2.516480931250     3.554379377791
H                     5.600473458785    -1.652091664470     2.660199455507
H                     2.270316196724    -1.436362694802     0.021084748453
