28
0 1 C11FH13N2O
C                    -3.871962408430     1.529523030381     3.175077017336
C                    -4.113133249992     2.225371726277     4.362830305901
C                    -2.567540901634     1.163087079334     2.826805412719
C                    -3.045417556793     2.553840064433     5.204815680694
C                    -1.478686901957     1.483264935717     3.647898109219
C                    -1.763865184005     2.176352824145     4.826119789073
C                    -0.438108813148    -1.200360872108     2.590619817363
C                    -1.205987047170    -3.259097049583     2.471796927117
C                    -1.073185813901    -2.854822631345     3.961123296735
C                     0.721520098406     2.348970022799     2.763823751833
C                    -0.036284019719     1.127994004678     3.300891301637
N                    -0.912698505230    -2.023917602914     1.728789207065
N                     0.081556437160     0.041696973407     2.324703188900
O                    -0.389234450480    -1.572472476285     3.907966535739
F                    -0.726049347319     2.501593874538     5.651691250981
H                    -4.697862060752     1.265396036910     2.520523099000
H                    -5.124584086307     2.509994060039     4.639181806240
H                    -2.398962113572     0.602099502500     1.912496377815
H                    -3.192146787164     3.089575505861     6.137852471712
H                    -0.492833092295    -4.046036717700     2.194657291408
H                    -2.210116039428    -3.623507955864     2.233555864598
H                    -2.039959684140    -2.695547942835     4.448828021554
H                    -0.465597378449    -3.532613514767     4.563647072356
H                     0.263224619324     2.711886320965     1.836441976035
H                     0.695088633376     3.161996698623     3.492438544978
H                     1.764714428760     2.087701448825     2.562996941595
H                     0.456306407782     0.791462916161     4.215401053457
H                    -0.059353791266     0.302402026570     1.355062384704
