29
1 1 C11FH14N2O
C                     0.503079619418     4.867691522110     3.799329221985
C                    -0.833081454922     5.275663910073     3.856523377553
C                     0.951273645309     4.086407731771     2.730390161035
C                    -1.727260683984     4.904421421255     2.845908694149
C                     0.079575631608     3.707396603993     1.701603410505
C                    -1.246454842460     4.135059892929     1.798376327774
C                    -0.135826814554     0.555942142010     0.891131083660
C                    -0.333124092174    -1.671775506218     1.479750775696
C                     0.855657027871    -1.011349864011     2.200045426685
C                     0.632098817870     3.717715152135    -0.786544372741
C                     0.568828041016     2.906988010588     0.511651644635
N                    -0.985603746971    -0.480171786682     0.908272398247
N                    -0.304343932304     1.714439011217     0.289440645727
O                     0.976706002598     0.311690446602     1.561906426671
F                    -2.118375941397     3.760171060914     0.804953918723
H                     1.194798780407     5.156857027438     4.584460479902
H                    -1.184857122858     5.882797650007     4.685142397476
H                     1.991511287959     3.772219272395     2.688061715170
H                    -2.769968467643     5.205838432073     2.861368881530
H                    -0.019641237690    -2.358947627355     0.688737485536
H                    -1.001323876782    -2.187138238880     2.170797871044
H                     0.668733221696    -0.832357233575     3.259528741768
H                     1.805796477081    -1.522141521594     2.058365028455
H                    -0.352746126023     4.101889996426    -1.065259824099
H                     1.025467851608     3.108765381850    -1.605417086174
H                     1.294826460320     4.573148629094    -0.638432968538
H                     1.560963364088     2.515276725006     0.736920388219
H                    -1.820932850344    -0.521982855987     0.336042917249
H                    -1.206652212340     1.898717936775    -0.139571902217
