
  -OEChem-05262117483D

 40 41  0     0  0  0  0  0  0999 V2000
    0.4510   -2.8614   -8.3416 C   0  0  0  0  0  0  0  0  0  0  0  0
   -0.6789   -2.0891   -8.1139 C   0  0  0  0  0  0  0  0  0  0  0  0
    1.2779   -3.2885   -7.2859 C   0  0  0  0  0  0  0  0  0  0  0  0
   -0.1883   -2.0774   -5.7244 C   0  0  0  0  0  0  0  0  0  0  0  0
   -1.0168   -1.7090   -6.8037 C   0  0  0  0  0  0  0  0  0  0  0  0
    0.9435   -2.8637   -5.9955 C   0  0  0  0  0  0  0  0  0  0  0  0
    2.4796   -4.1994   -7.6038 C   0  0  0  0  0  0  0  0  0  0  0  0
   -0.5340   -1.2838   -0.0722 C   0  0  0  0  0  0  0  0  0  0  0  0
   -1.8521   -2.0909    0.1206 C   0  0  0  0  0  0  0  0  0  0  0  0
   -0.0615   -1.6080   -1.5018 C   0  0  0  0  0  0  0  0  0  0  0  0
   -2.2314   -2.6288   -1.2863 C   0  0  0  0  0  0  0  0  0  0  0  0
   -1.3725   -1.8177   -2.2745 C   0  0  0  0  0  0  0  0  0  0  0  0
   -5.1979   -1.7547   -6.5069 C   0  0  0  0  0  0  0  0  0  0  0  0
   -1.2094   -2.4959   -3.6195 C   0  0  0  0  0  0  0  0  0  0  0  0
   -3.7691   -2.2677   -6.6612 C   0  0  0  0  0  0  0  0  0  0  0  0
    3.4831   -3.5991   -8.0539 O   0  5  0  0  0  0  0  0  0  0  0  0
    2.2484   -5.4160   -7.4009 O   0  0  0  0  0  0  0  0  0  0  0  0
   -2.7319   -0.2289   -5.2957 O   0  0  0  0  0  0  0  0  0  0  0  0
   -2.8412   -0.0791   -7.8352 O   0  0  0  0  0  0  0  0  0  0  0  0
   -0.4284   -1.6278   -4.4532 O   0  0  0  0  0  0  0  0  0  0  0  0
   -2.5875   -0.8724   -6.6138 S   0  0  0  0  0  0  0  0  0  0  0  0
    1.9771   -3.3032   -4.6389 Cl  0  0  0  0  0  0  0  0  0  0  0  0
    0.7208   -3.1461   -9.3548 H   0  0  0  0  0  0  0  0  0  0  0  0
   -1.3032   -1.7570   -8.9382 H   0  0  0  0  0  0  0  0  0  0  0  0
   -0.7374   -0.2102    0.0135 H   0  0  0  0  0  0  0  0  0  0  0  0
    0.2200   -1.5262    0.6839 H   0  0  0  0  0  0  0  0  0  0  0  0
   -1.7213   -2.9129    0.8321 H   0  0  0  0  0  0  0  0  0  0  0  0
   -2.6441   -1.4509    0.5233 H   0  0  0  0  0  0  0  0  0  0  0  0
    0.5661   -0.8300   -1.9422 H   0  0  0  0  0  0  0  0  0  0  0  0
    0.5182   -2.5400   -1.5156 H   0  0  0  0  0  0  0  0  0  0  0  0
   -1.9682   -3.6916   -1.3659 H   0  0  0  0  0  0  0  0  0  0  0  0
   -3.3030   -2.5461   -1.4962 H   0  0  0  0  0  0  0  0  0  0  0  0
   -1.8421   -0.8426   -2.4540 H   0  0  0  0  0  0  0  0  0  0  0  0
   -5.3227   -1.2365   -5.5524 H   0  0  0  0  0  0  0  0  0  0  0  0
   -5.4500   -1.0615   -7.3138 H   0  0  0  0  0  0  0  0  0  0  0  0
   -5.8981   -2.5961   -6.5404 H   0  0  0  0  0  0  0  0  0  0  0  0
   -2.1917   -2.6616   -4.0804 H   0  0  0  0  0  0  0  0  0  0  0  0
   -0.7022   -3.4644   -3.5144 H   0  0  0  0  0  0  0  0  0  0  0  0
   -3.6051   -2.7696   -7.6179 H   0  0  0  0  0  0  0  0  0  0  0  0
   -3.4828   -2.9479   -5.8554 H   0  0  0  0  0  0  0  0  0  0  0  0
  1  2  1  0  0  0  0
  1  3  2  0  0  0  0
  1 23  1  0  0  0  0
  2  5  2  0  0  0  0
  2 24  1  0  0  0  0
  3  6  1  0  0  0  0
  3  7  1  0  0  0  0
  4  5  1  0  0  0  0
  4  6  2  0  0  0  0
  4 20  1  0  0  0  0
  5 21  1  0  0  0  0
  6 22  1  0  0  0  0
  7 16  1  0  0  0  0
  7 17  2  0  0  0  0
  8  9  1  0  0  0  0
  8 10  1  0  0  0  0
  8 25  1  0  0  0  0
  8 26  1  0  0  0  0
  9 11  1  0  0  0  0
  9 27  1  0  0  0  0
  9 28  1  0  0  0  0
 10 12  1  0  0  0  0
 10 29  1  0  0  0  0
 10 30  1  0  0  0  0
 11 12  1  0  0  0  0
 11 31  1  0  0  0  0
 11 32  1  0  0  0  0
 12 14  1  0  0  0  0
 12 33  1  0  0  0  0
 13 15  1  0  0  0  0
 13 34  1  0  0  0  0
 13 35  1  0  0  0  0
 13 36  1  0  0  0  0
 14 20  1  0  0  0  0
 14 37  1  0  0  0  0
 14 38  1  0  0  0  0
 15 21  1  0  0  0  0
 15 39  1  0  0  0  0
 15 40  1  0  0  0  0
 18 21  2  0  0  0  0
 19 21  2  0  0  0  0
M  CHG  1  16  -1
M  END
$$$$
