23
0 1 C7H8N6S2
C                    -0.033262952315     0.256165120161    -2.397113025520
C                    -0.099740945241    -0.844241955756    -1.493390842187
C                    -1.278441742141     0.689405931605    -2.783107927201
C                    -1.396124234331    -1.230082787492    -1.206797259813
C                    -4.609215643822    -3.979650452352     0.978028718078
C                    -6.254155928091    -5.113616010182     1.880282789200
C                    -1.798551834688    -2.307246463529    -0.330354172274
N                    -5.737888847450    -3.464096205165     0.528008972601
N                    -6.771647482462    -4.187555912676     1.114932286545
N                    -3.040945607188    -2.587577466452    -0.130816776394
N                    -4.859148723350    -5.022947675923     1.834280482925
N                    -3.859453654023    -5.768433405851     2.474044617903
N                    -3.316097806756    -3.616483318896     0.708315057917
S                    -2.551878018214    -0.232882402413    -2.054571648079
S                    -7.095100003844    -6.285264806360     2.893414329378
H                     0.891269574628     0.705287777972    -2.744518414669
H                     0.769315817999    -1.336825694458    -1.067384856899
H                    -1.520781266282     1.501784973901    -3.456925451786
H                    -0.986043509108    -2.868373457390     0.152085974855
H                    -3.968308951745    -6.749752124483     2.218450606955
H                    -3.992090932316    -5.695588246891     3.482735927359
H                    -2.580091635670    -4.151526416612     1.169717410487
H                    -7.322925482997    -7.209703610728     1.931502930942
