
  -OEChem-05262117483D

 23 24  0     0  0  0  0  0  0999 V2000
   -2.0812    0.3539   -3.7245 C   0  0  0  0  0  0  0  0  0  0  0  0
   -2.1396   -0.6606   -2.7279 C   0  0  0  0  0  0  0  0  0  0  0  0
   -3.3069    0.6173   -4.2915 C   0  0  0  0  0  0  0  0  0  0  0  0
   -3.4138   -1.1634   -2.5434 C   0  0  0  0  0  0  0  0  0  0  0  0
   -4.7148   -4.2468    0.2214 C   0  0  0  0  0  0  0  0  0  0  0  0
   -6.2585   -5.5118    1.1253 C   0  0  0  0  0  0  0  0  0  0  0  0
   -3.8868   -2.1942   -1.6338 C   0  0  0  0  0  0  0  0  0  0  0  0
   -5.8612   -3.9514   -0.3572 N   0  0  0  0  0  0  0  0  0  0  0  0
   -6.8448   -4.7678    0.2295 N   0  0  0  0  0  0  0  0  0  0  0  0
   -3.0359   -2.7715   -0.8458 N   0  0  0  0  0  0  0  0  0  0  0  0
   -4.9009   -5.2348    1.1757 N   0  0  0  0  0  0  0  0  0  0  0  0
   -3.8819   -5.7704    1.9694 N   0  0  0  0  0  0  0  0  0  0  0  0
   -3.4583   -3.7425    0.0154 N   0  0  0  0  0  0  0  0  0  0  0  0
   -4.5497   -0.3745   -3.6118 S   0  0  0  0  0  0  0  0  0  0  0  0
   -6.9693   -6.7283    2.1833 S   0  0  0  0  0  0  0  0  0  0  0  0
   -1.1715    0.8706   -4.0136 H   0  0  0  0  0  0  0  0  0  0  0  0
   -1.2897   -1.0200   -2.1587 H   0  0  0  0  0  0  0  0  0  0  0  0
   -3.5476    1.3344   -5.0659 H   0  0  0  0  0  0  0  0  0  0  0  0
   -4.9458   -2.4504   -1.6425 H   0  0  0  0  0  0  0  0  0  0  0  0
   -3.8063   -6.7733    1.8019 H   0  0  0  0  0  0  0  0  0  0  0  0
   -4.0909   -5.6070    2.9540 H   0  0  0  0  0  0  0  0  0  0  0  0
   -2.7241   -4.1294    0.5944 H   0  0  0  0  0  0  0  0  0  0  0  0
   -8.2092   -6.5376    1.6918 H   0  0  0  0  0  0  0  0  0  0  0  0
  1  2  1  0  0  0  0
  1  3  2  0  0  0  0
  1 16  1  0  0  0  0
  2  4  2  0  0  0  0
  2 17  1  0  0  0  0
  3 14  1  0  0  0  0
  3 18  1  0  0  0  0
  4  7  1  0  0  0  0
  4 14  1  0  0  0  0
  5  8  2  0  0  0  0
  5 11  1  0  0  0  0
  5 13  1  0  0  0  0
  6  9  2  0  0  0  0
  6 11  1  0  0  0  0
  6 15  1  0  0  0  0
  7 10  2  0  0  0  0
  7 19  1  0  0  0  0
  8  9  1  0  0  0  0
 10 13  1  0  0  0  0
 11 12  1  0  0  0  0
 12 20  1  0  0  0  0
 12 21  1  0  0  0  0
 13 22  1  0  0  0  0
 15 23  1  0  0  0  0
M  END
$$$$
