
  -OEChem-05262117483D

 41 43  0     1  0  0  0  0  0999 V2000
    3.7383    4.0879    5.5686 C   0  0  0  0  0  0  0  0  0  0  0  0
    3.9232    3.9440    4.1904 C   0  0  0  0  0  0  0  0  0  0  0  0
    2.4877    3.8085    6.1312 C   0  0  0  0  0  0  0  0  0  0  0  0
    2.8621    3.5254    3.3814 C   0  0  0  0  0  0  0  0  0  0  0  0
    1.4320    3.3895    5.3186 C   0  0  0  0  0  0  0  0  0  0  0  0
    1.6076    3.2454    3.9362 C   0  0  0  0  0  0  0  0  0  0  0  0
    0.2849    1.2570    3.0832 C   0  0  0  0  0  0  0  0  0  0  0  0
   -0.1221   -1.3332    0.9768 C   0  0  0  0  0  0  0  0  0  0  0  0
   -0.5409    1.5100   -0.0997 C   0  0  0  0  0  0  0  0  0  0  0  0
   -0.8281   -0.7142    2.1941 C   0  0  0  0  0  0  0  0  0  0  0  0
   -1.3512    1.5075    1.2114 C   0  0  0  0  0  0  0  0  0  0  0  0
   -0.3534   -2.0928   -1.4594 C   0  0  0  0  0  0  0  0  0  0  0  0
   -0.8648   -1.1297   -0.3550 C   0  0  2  0  0  0  0  0  0  0  0  0
   -0.7556    0.2771   -0.9842 C   0  0  2  0  0  0  0  0  0  0  0  0
    0.4698    2.7833    3.0595 C   0  0  0  0  0  0  0  0  0  0  0  0
    0.8926   -1.5574   -2.0352 N   0  0  0  0  0  0  0  0  0  0  0  0
   -0.7113    0.7389    2.2745 N   0  0  0  0  0  0  0  0  0  0  0  0
    0.9656    0.5371    3.8090 O   0  0  0  0  0  0  0  0  0  0  0  0
    1.8736    0.7939   -1.7086 O   0  0  0  0  0  0  0  0  0  0  0  0
    0.1329    0.4211   -3.5358 O   0  0  0  0  0  0  0  0  0  0  0  0
    0.6571    0.1313   -2.2005 S   0  0  0  0  0  0  0  0  0  0  0  0
    4.5609    4.4149    6.1996 H   0  0  0  0  0  0  0  0  0  0  0  0
    4.8913    4.1580    3.7446 H   0  0  0  0  0  0  0  0  0  0  0  0
    2.3367    3.9153    7.2024 H   0  0  0  0  0  0  0  0  0  0  0  0
    3.0142    3.4120    2.3098 H   0  0  0  0  0  0  0  0  0  0  0  0
    0.4655    3.1627    5.7632 H   0  0  0  0  0  0  0  0  0  0  0  0
    0.9059   -0.9561    0.9322 H   0  0  0  0  0  0  0  0  0  0  0  0
   -0.0524   -2.4128    1.1586 H   0  0  0  0  0  0  0  0  0  0  0  0
   -0.8029    2.3953   -0.6888 H   0  0  0  0  0  0  0  0  0  0  0  0
    0.5196    1.6088    0.1467 H   0  0  0  0  0  0  0  0  0  0  0  0
   -1.8940   -0.9760    2.1752 H   0  0  0  0  0  0  0  0  0  0  0  0
   -0.3956   -1.1184    3.1082 H   0  0  0  0  0  0  0  0  0  0  0  0
   -1.4983    2.5346    1.5451 H   0  0  0  0  0  0  0  0  0  0  0  0
   -2.3535    1.0951    1.0489 H   0  0  0  0  0  0  0  0  0  0  0  0
   -0.1590   -3.0947   -1.0712 H   0  0  0  0  0  0  0  0  0  0  0  0
   -1.0869   -2.1805   -2.2667 H   0  0  0  0  0  0  0  0  0  0  0  0
   -1.9265   -1.3445   -0.1836 H   0  0  0  0  0  0  0  0  0  0  0  0
   -1.6161    0.4316   -1.6400 H   0  0  0  0  0  0  0  0  0  0  0  0
   -0.4701    3.2483    3.3807 H   0  0  0  0  0  0  0  0  0  0  0  0
    0.6413    3.1142    2.0307 H   0  0  0  0  0  0  0  0  0  0  0  0
    1.6880   -1.6853   -1.4085 H   0  0  0  0  0  0  0  0  0  0  0  0
  1  2  1  0  0  0  0
  1  3  2  0  0  0  0
  1 22  1  0  0  0  0
  2  4  2  0  0  0  0
  2 23  1  0  0  0  0
  3  5  1  0  0  0  0
  3 24  1  0  0  0  0
  4  6  1  0  0  0  0
  4 25  1  0  0  0  0
  5  6  2  0  0  0  0
  5 26  1  0  0  0  0
  6 15  1  0  0  0  0
  7 15  1  0  0  0  0
  7 17  1  0  0  0  0
  7 18  2  0  0  0  0
  8 10  1  0  0  0  0
  8 13  1  0  0  0  0
  8 27  1  0  0  0  0
  8 28  1  0  0  0  0
  9 11  1  0  0  0  0
  9 14  1  0  0  0  0
  9 29  1  0  0  0  0
  9 30  1  0  0  0  0
 10 17  1  0  0  0  0
 10 31  1  0  0  0  0
 10 32  1  0  0  0  0
 11 17  1  0  0  0  0
 11 33  1  0  0  0  0
 11 34  1  0  0  0  0
 12 13  1  0  0  0  0
 12 16  1  0  0  0  0
 12 35  1  0  0  0  0
 12 36  1  0  0  0  0
 13 14  1  0  0  0  0
 13 37  1  0  0  0  0
 14 21  1  0  0  0  0
 14 38  1  0  0  0  0
 15 39  1  0  0  0  0
 15 40  1  0  0  0  0
 16 21  1  0  0  0  0
 16 41  1  0  0  0  0
 19 21  2  0  0  0  0
 20 21  2  0  0  0  0
M  END
$$$$
