
  -OEChem-05262117483D

 41 43  0     1  0  0  0  0  0999 V2000
   -4.6399   -3.4364   -4.5565 C   0  0  0  0  0  0  0  0  0  0  0  0
   -3.3977   -4.0741   -4.4600 C   0  0  0  0  0  0  0  0  0  0  0  0
   -5.1102   -2.6780   -3.4805 C   0  0  0  0  0  0  0  0  0  0  0  0
   -2.6332   -3.9520   -3.2974 C   0  0  0  0  0  0  0  0  0  0  0  0
   -4.3398   -2.5557   -2.3192 C   0  0  0  0  0  0  0  0  0  0  0  0
   -3.0953   -3.1896   -2.2138 C   0  0  0  0  0  0  0  0  0  0  0  0
   -0.7721   -2.8374   -1.2203 C   0  0  0  0  0  0  0  0  0  0  0  0
   -0.6714    0.7682   -1.9708 C   0  0  0  0  0  0  0  0  0  0  0  0
    1.7985   -0.6600   -1.2132 C   0  0  0  0  0  0  0  0  0  0  0  0
   -1.3110   -0.5999   -2.2363 C   0  0  0  0  0  0  0  0  0  0  0  0
    1.0046   -1.5265   -2.2391 C   0  0  0  0  0  0  0  0  0  0  0  0
    0.5172    2.3802   -0.3890 C   0  0  0  0  0  0  0  0  0  0  0  0
   -0.1386    0.9584   -0.5445 C   0  0  2  0  0  0  0  0  0  0  0  0
    0.8917   -0.1091   -0.1129 C   0  0  2  0  0  0  0  0  0  0  0  0
   -2.2598   -3.0707   -0.9528 C   0  0  0  0  0  0  0  0  0  0  0  0
    1.7918    2.3058    0.3518 N   0  0  0  0  0  0  0  0  0  0  0  0
   -0.4063   -1.6992   -1.8964 N   0  0  0  0  0  0  0  0  0  0  0  0
    0.0656   -3.6674   -0.8589 O   0  0  0  0  0  0  0  0  0  0  0  0
    3.2583    0.3921    1.2386 O   0  0  0  0  0  0  0  0  0  0  0  0
    1.0124    0.8942    2.3487 O   0  0  0  0  0  0  0  0  0  0  0  0
    1.8547    0.8047    1.1550 S   0  0  0  0  0  0  0  0  0  0  0  0
   -5.2352   -3.5312   -5.4608 H   0  0  0  0  0  0  0  0  0  0  0  0
   -3.0256   -4.6687   -5.2905 H   0  0  0  0  0  0  0  0  0  0  0  0
   -6.0748   -2.1807   -3.5438 H   0  0  0  0  0  0  0  0  0  0  0  0
   -1.6697   -4.4518   -3.2280 H   0  0  0  0  0  0  0  0  0  0  0  0
   -4.7130   -1.9619   -1.4869 H   0  0  0  0  0  0  0  0  0  0  0  0
    0.1370    0.9477   -2.6878 H   0  0  0  0  0  0  0  0  0  0  0  0
   -1.4272    1.5364   -2.1741 H   0  0  0  0  0  0  0  0  0  0  0  0
    2.5802   -1.2621   -0.7459 H   0  0  0  0  0  0  0  0  0  0  0  0
    2.3039    0.1611   -1.7338 H   0  0  0  0  0  0  0  0  0  0  0  0
   -2.2213   -0.6896   -1.6457 H   0  0  0  0  0  0  0  0  0  0  0  0
   -1.6089   -0.6649   -3.2912 H   0  0  0  0  0  0  0  0  0  0  0  0
    1.0548   -1.0798   -3.2365 H   0  0  0  0  0  0  0  0  0  0  0  0
    1.4449   -2.5204   -2.2939 H   0  0  0  0  0  0  0  0  0  0  0  0
    0.7177    2.8208   -1.3689 H   0  0  0  0  0  0  0  0  0  0  0  0
   -0.1669    3.0434    0.1444 H   0  0  0  0  0  0  0  0  0  0  0  0
   -0.9765    0.8992    0.1557 H   0  0  0  0  0  0  0  0  0  0  0  0
    0.4183   -0.9254    0.4333 H   0  0  0  0  0  0  0  0  0  0  0  0
   -2.6612   -2.2837   -0.3053 H   0  0  0  0  0  0  0  0  0  0  0  0
   -2.2987   -4.0012   -0.3812 H   0  0  0  0  0  0  0  0  0  0  0  0
    2.6129    2.3734   -0.2465 H   0  0  0  0  0  0  0  0  0  0  0  0
  1  2  1  0  0  0  0
  1  3  2  0  0  0  0
  1 22  1  0  0  0  0
  2  4  2  0  0  0  0
  2 23  1  0  0  0  0
  3  5  1  0  0  0  0
  3 24  1  0  0  0  0
  4  6  1  0  0  0  0
  4 25  1  0  0  0  0
  5  6  2  0  0  0  0
  5 26  1  0  0  0  0
  6 15  1  0  0  0  0
  7 15  1  0  0  0  0
  7 17  1  0  0  0  0
  7 18  2  0  0  0  0
  8 10  1  0  0  0  0
  8 13  1  0  0  0  0
  8 27  1  0  0  0  0
  8 28  1  0  0  0  0
  9 11  1  0  0  0  0
  9 14  1  0  0  0  0
  9 29  1  0  0  0  0
  9 30  1  0  0  0  0
 10 17  1  0  0  0  0
 10 31  1  0  0  0  0
 10 32  1  0  0  0  0
 11 17  1  0  0  0  0
 11 33  1  0  0  0  0
 11 34  1  0  0  0  0
 12 13  1  0  0  0  0
 12 16  1  0  0  0  0
 12 35  1  0  0  0  0
 12 36  1  0  0  0  0
 13 14  1  0  0  0  0
 13 37  1  0  0  0  0
 14 21  1  0  0  0  0
 14 38  1  0  0  0  0
 15 39  1  0  0  0  0
 15 40  1  0  0  0  0
 16 21  1  0  0  0  0
 16 41  1  0  0  0  0
 19 21  2  0  0  0  0
 20 21  2  0  0  0  0
M  END
$$$$
