
  -OEChem-05262117483D

 41 43  0     1  0  0  0  0  0999 V2000
   -2.1696   -6.7157    1.2894 C   0  0  0  0  0  0  0  0  0  0  0  0
   -2.4228   -5.5470    0.5598 C   0  0  0  0  0  0  0  0  0  0  0  0
   -0.9016   -7.2999    1.2325 C   0  0  0  0  0  0  0  0  0  0  0  0
   -1.4229   -4.9754   -0.2321 C   0  0  0  0  0  0  0  0  0  0  0  0
    0.1000   -6.7207    0.4471 C   0  0  0  0  0  0  0  0  0  0  0  0
   -0.1501   -5.5651   -0.3054 C   0  0  0  0  0  0  0  0  0  0  0  0
    0.3683   -4.7372   -2.6122 C   0  0  0  0  0  0  0  0  0  0  0  0
   -0.8888   -6.8052   -5.3454 C   0  0  0  0  0  0  0  0  0  0  0  0
    0.5786   -8.0567   -2.7547 C   0  0  0  0  0  0  0  0  0  0  0  0
   -0.2188   -5.5195   -4.8374 C   0  0  0  0  0  0  0  0  0  0  0  0
    1.3262   -6.9106   -3.4467 C   0  0  0  0  0  0  0  0  0  0  0  0
   -2.4519   -7.0039   -3.2531 C   0  0  0  0  0  0  0  0  0  0  0  0
   -1.5562   -7.7166   -4.3020 C   0  0  2  0  0  0  0  0  0  0  0  0
   -0.5990   -8.6516   -3.5355 C   0  0  2  0  0  0  0  0  0  0  0  0
    0.9286   -4.9807   -1.2099 C   0  0  0  0  0  0  0  0  0  0  0  0
   -2.6531   -7.9221   -2.1084 N   0  0  0  0  0  0  0  0  0  0  0  0
    0.5227   -5.6966   -3.5843 N   0  0  0  0  0  0  0  0  0  0  0  0
   -0.2856   -3.7096   -2.8190 O   0  0  0  0  0  0  0  0  0  0  0  0
   -1.2047   -9.7703   -1.0636 O   0  0  0  0  0  0  0  0  0  0  0  0
   -2.6427  -10.3177   -3.0884 O   0  0  0  0  0  0  0  0  0  0  0  0
   -1.8041   -9.3747   -2.3446 S   0  0  0  0  0  0  0  0  0  0  0  0
   -2.9554   -7.1712    1.8855 H   0  0  0  0  0  0  0  0  0  0  0  0
   -3.4062   -5.0854    0.5985 H   0  0  0  0  0  0  0  0  0  0  0  0
   -0.6976   -8.2191    1.7727 H   0  0  0  0  0  0  0  0  0  0  0  0
   -1.6269   -4.0798   -0.8111 H   0  0  0  0  0  0  0  0  0  0  0  0
    1.0791   -7.1925    0.4028 H   0  0  0  0  0  0  0  0  0  0  0  0
   -1.6474   -6.4956   -6.0734 H   0  0  0  0  0  0  0  0  0  0  0  0
   -0.1750   -7.4138   -5.9120 H   0  0  0  0  0  0  0  0  0  0  0  0
    1.2836   -8.8635   -2.5293 H   0  0  0  0  0  0  0  0  0  0  0  0
    0.2292   -7.6913   -1.7901 H   0  0  0  0  0  0  0  0  0  0  0  0
    0.4498   -5.1312   -5.6171 H   0  0  0  0  0  0  0  0  0  0  0  0
   -0.9613   -4.7456   -4.6485 H   0  0  0  0  0  0  0  0  0  0  0  0
    2.2354   -6.6901   -2.8836 H   0  0  0  0  0  0  0  0  0  0  0  0
    1.6607   -7.2032   -4.4466 H   0  0  0  0  0  0  0  0  0  0  0  0
   -1.9924   -6.0843   -2.8890 H   0  0  0  0  0  0  0  0  0  0  0  0
   -3.4176   -6.7518   -3.7007 H   0  0  0  0  0  0  0  0  0  0  0  0
   -2.2067   -8.3923   -4.8664 H   0  0  0  0  0  0  0  0  0  0  0  0
   -0.2792   -9.4697   -4.1849 H   0  0  0  0  0  0  0  0  0  0  0  0
    1.2321   -3.9968   -0.8420 H   0  0  0  0  0  0  0  0  0  0  0  0
    1.8077   -5.6264   -1.1944 H   0  0  0  0  0  0  0  0  0  0  0  0
   -2.4022   -7.5225   -1.2050 H   0  0  0  0  0  0  0  0  0  0  0  0
  1  2  1  0  0  0  0
  1  3  2  0  0  0  0
  1 22  1  0  0  0  0
  2  4  2  0  0  0  0
  2 23  1  0  0  0  0
  3  5  1  0  0  0  0
  3 24  1  0  0  0  0
  4  6  1  0  0  0  0
  4 25  1  0  0  0  0
  5  6  2  0  0  0  0
  5 26  1  0  0  0  0
  6 15  1  0  0  0  0
  7 15  1  0  0  0  0
  7 17  1  0  0  0  0
  7 18  2  0  0  0  0
  8 10  1  0  0  0  0
  8 13  1  0  0  0  0
  8 27  1  0  0  0  0
  8 28  1  0  0  0  0
  9 11  1  0  0  0  0
  9 14  1  0  0  0  0
  9 29  1  0  0  0  0
  9 30  1  0  0  0  0
 10 17  1  0  0  0  0
 10 31  1  0  0  0  0
 10 32  1  0  0  0  0
 11 17  1  0  0  0  0
 11 33  1  0  0  0  0
 11 34  1  0  0  0  0
 12 13  1  0  0  0  0
 12 16  1  0  0  0  0
 12 35  1  0  0  0  0
 12 36  1  0  0  0  0
 13 14  1  0  0  0  0
 13 37  1  0  0  0  0
 14 21  1  0  0  0  0
 14 38  1  0  0  0  0
 15 39  1  0  0  0  0
 15 40  1  0  0  0  0
 16 21  1  0  0  0  0
 16 41  1  0  0  0  0
 19 21  2  0  0  0  0
 20 21  2  0  0  0  0
M  END
$$$$
