
  -OEChem-05262117483D

 22 23  0     1  0  0  0  0  0999 V2000
    2.6298    3.3269   -1.7850 C   0  0  0  0  0  0  0  0  0  0  0  0
    1.3564    3.0037   -1.2195 C   0  0  0  0  0  0  0  0  0  0  0  0
    2.9649    2.3054   -2.6571 C   0  0  0  0  0  0  0  0  0  0  0  0
    0.9552    1.7929   -1.7595 C   0  0  0  0  0  0  0  0  0  0  0  0
   -1.1229   -0.6953    0.3683 C   0  0  0  0  0  0  0  0  0  0  0  0
   -0.1172    0.2335    1.0223 C   0  0  0  0  0  0  0  0  0  0  0  0
    0.0320   -0.1256   -0.4316 C   0  0  0  0  0  0  0  0  0  0  0  0
   -0.2416    0.9206   -1.5021 C   0  0  2  0  0  0  0  0  0  0  0  0
    1.9450    1.3792   -2.6234 N   0  0  0  0  0  0  0  0  0  0  0  0
   -0.5990    0.2218   -2.7557 N   0  0  0  0  0  0  0  0  0  0  0  0
    3.2276    4.2066   -1.5825 H   0  0  0  0  0  0  0  0  0  0  0  0
    0.8010    3.5848   -0.4936 H   0  0  0  0  0  0  0  0  0  0  0  0
    3.8268    2.1717   -3.2965 H   0  0  0  0  0  0  0  0  0  0  0  0
   -1.1031   -1.7488    0.6321 H   0  0  0  0  0  0  0  0  0  0  0  0
   -2.1173   -0.2991    0.1750 H   0  0  0  0  0  0  0  0  0  0  0  0
   -0.4409    1.2428    1.2619 H   0  0  0  0  0  0  0  0  0  0  0  0
    0.5913   -0.1875    1.7291 H   0  0  0  0  0  0  0  0  0  0  0  0
    0.8361   -0.8126   -0.6853 H   0  0  0  0  0  0  0  0  0  0  0  0
   -1.0499    1.5705   -1.1292 H   0  0  0  0  0  0  0  0  0  0  0  0
    1.8473    0.5531   -3.1996 H   0  0  0  0  0  0  0  0  0  0  0  0
   -0.9596    0.8934   -3.4325 H   0  0  0  0  0  0  0  0  0  0  0  0
   -1.3439   -0.4471   -2.5655 H   0  0  0  0  0  0  0  0  0  0  0  0
  1  2  1  0  0  0  0
  1  3  2  0  0  0  0
  1 11  1  0  0  0  0
  2  4  2  0  0  0  0
  2 12  1  0  0  0  0
  3  9  1  0  0  0  0
  3 13  1  0  0  0  0
  4  8  1  0  0  0  0
  4  9  1  0  0  0  0
  5  6  1  0  0  0  0
  5  7  1  0  0  0  0
  5 14  1  0  0  0  0
  5 15  1  0  0  0  0
  6  7  1  0  0  0  0
  6 16  1  0  0  0  0
  6 17  1  0  0  0  0
  7  8  1  0  0  0  0
  7 18  1  0  0  0  0
  8 10  1  0  0  0  0
  8 19  1  0  0  0  0
  9 20  1  0  0  0  0
 10 21  1  0  0  0  0
 10 22  1  0  0  0  0
M  END
$$$$
