28
0 1 C10H15NO2
C                     3.237457786915    -0.064079280256     0.243669764521
C                     4.119256470624    -0.973010742260     0.937831522846
C                     2.099490665103    -0.756319638463    -0.052814997187
C                     3.447123396477    -2.163913016236     1.011472114530
C                     1.696639733561    -0.189507847288    -3.032561281128
C                     1.401538278124     1.310414544542    -2.973881211828
C                     0.557401565131     1.097630684180    -0.779609965779
C                     0.825915749893    -0.416717930388    -0.766707154270
C                     5.490511032378    -0.651071138524     1.457513061229
C                     3.766601415999    -3.498901783134     1.591848839615
N                     0.832290678957    -0.976910397295    -2.140625043759
O                     2.212518165291    -2.044125377726     0.412290500461
O                     1.464759407573     1.796368999861    -1.630202582532
H                     3.431365472830     0.968261630799    -0.016040038602
H                     1.576178156122    -0.561350618859    -4.056173816268
H                     2.735627814188    -0.365513330580    -2.735992184448
H                     2.137108486565     1.888584976373    -3.541320490756
H                     0.400155578003     1.516568825181    -3.390571349829
H                    -0.476179313964     1.269437876570    -1.124949833397
H                     0.669087410586     1.535515829997     0.215529258189
H                     0.004171652121    -0.905606816218    -0.229328257763
H                     5.457312004670     0.168507402057     2.184560341515
H                     5.948419386580    -1.512785832554     1.951019505065
H                     6.159535021076    -0.338815229029     0.647279546767
H                     3.057448585890    -3.771238669981     2.382324469854
H                     3.728497354765    -4.283723017291     0.827781612863
H                     4.769962730878    -3.492612496110     2.023511083689
H                    -0.123531673111    -0.952730755926    -2.496570008978
