32
0 1 C10H18N2O2
C                     0.614479968476     2.348938203373    -3.673411192491
C                    -1.122914601970    -1.669686558011     1.413969063561
C                    -1.475504832386    -1.057870716327     0.052095316180
C                    -0.590906145053     1.161882984217    -1.112357733579
C                     0.883479001274    -0.359342510458    -0.956926967161
C                    -0.637270133368    -0.434609157875     2.180705153241
C                    -0.382544010088    -0.005879381065    -0.122967041028
C                     1.125383060196     4.719192056383    -3.933312446638
C                     2.597841112458     3.330733827091    -2.510766060797
C                     0.968491605923     0.982537318496    -3.072633161905
N                     0.786938578012     0.958342251611    -1.630758700155
N                     1.394534300234     3.419756616020    -3.330069482145
O                    -0.356987174444     2.446015535124    -4.430524157553
O                    -0.063215948804     0.447380045505     1.198710543016
H                    -1.965679936345    -2.166106551026     1.902614072782
H                    -0.312203245778    -2.398468798701     1.305002903213
H                    -1.499957010603    -1.781372101835    -0.766198064627
H                    -2.453347253627    -0.563147434786     0.096670960696
H                    -1.372668015251     0.952179136310    -1.857452099917
H                    -0.763562428736     2.143242454786    -0.660913210213
H                     1.807158727391    -0.509822368978    -0.388510499013
H                     0.719259617407    -1.210679324998    -1.636977733612
H                    -1.472841091894     0.079027536312     2.675873689779
H                     0.125086697387    -0.661107201287     2.932695307188
H                     0.994056834318     5.477703938444    -3.152349824532
H                     0.218122798033     4.650234010958    -4.531227247507
H                     1.960634951323     5.025192540903    -4.576937310376
H                     3.503065698685     3.287083025587    -3.132987013431
H                     2.547449439973     2.464135684673    -1.853707552014
H                     2.664648534073     4.222585856491    -1.878541245833
H                     0.319557808862     0.260161111908    -3.593103327793
H                     2.010378127719     0.723317009585    -3.299528109392
