
  -OEChem-05262117483D

 41 43  0     1  0  0  0  0  0999 V2000
    3.5179   -1.3916   -7.2713 C   0  0  0  0  0  0  0  0  0  0  0  0
    2.7082   -2.2803   -6.5538 C   0  0  0  0  0  0  0  0  0  0  0  0
    3.5282   -0.0373   -6.9277 C   0  0  0  0  0  0  0  0  0  0  0  0
    1.9154   -1.8161   -5.5029 C   0  0  0  0  0  0  0  0  0  0  0  0
    2.7301    0.4232   -5.8745 C   0  0  0  0  0  0  0  0  0  0  0  0
    1.9157   -0.4583   -5.1535 C   0  0  0  0  0  0  0  0  0  0  0  0
    1.5382   -0.4120   -2.6378 C   0  0  0  0  0  0  0  0  0  0  0  0
   -1.0275    1.1689   -0.4343 C   0  0  0  0  0  0  0  0  0  0  0  0
    0.7627   -1.3814    0.3209 C   0  0  0  0  0  0  0  0  0  0  0  0
   -0.0584    1.2299   -1.6198 C   0  0  0  0  0  0  0  0  0  0  0  0
    1.5092   -0.1616   -0.2243 C   0  0  0  0  0  0  0  0  0  0  0  0
   -2.8787   -0.1105    0.7465 C   0  0  0  0  0  0  0  0  0  0  0  0
   -1.6210   -0.2256   -0.1509 C   0  0  2  0  0  0  0  0  0  0  0  0
   -0.7190   -1.1785    0.6599 C   0  0  2  0  0  0  0  0  0  0  0  0
    1.0554    0.0515   -4.0223 C   0  0  0  0  0  0  0  0  0  0  0  0
   -2.4558    0.1850    2.1334 N   0  0  0  0  0  0  0  0  0  0  0  0
    1.0041    0.2286   -1.5442 N   0  0  0  0  0  0  0  0  0  0  0  0
    2.3599   -1.3190   -2.5093 O   0  0  0  0  0  0  0  0  0  0  0  0
    0.0408    0.4736    2.7253 O   0  0  0  0  0  0  0  0  0  0  0  0
   -1.0868   -1.7325    3.2863 O   0  0  0  0  0  0  0  0  0  0  0  0
   -0.9340   -0.5823    2.3964 S   0  0  0  0  0  0  0  0  0  0  0  0
    4.1358   -1.7533   -8.0893 H   0  0  0  0  0  0  0  0  0  0  0  0
    2.6993   -3.3363   -6.8115 H   0  0  0  0  0  0  0  0  0  0  0  0
    4.1546    0.6609   -7.4772 H   0  0  0  0  0  0  0  0  0  0  0  0
    1.3039   -2.5145   -4.9378 H   0  0  0  0  0  0  0  0  0  0  0  0
    2.7445    1.4792   -5.6116 H   0  0  0  0  0  0  0  0  0  0  0  0
   -0.5508    1.5684    0.4640 H   0  0  0  0  0  0  0  0  0  0  0  0
   -1.8490    1.8553   -0.6727 H   0  0  0  0  0  0  0  0  0  0  0  0
    0.8319   -2.1705   -0.4329 H   0  0  0  0  0  0  0  0  0  0  0  0
    1.2819   -1.7596    1.2088 H   0  0  0  0  0  0  0  0  0  0  0  0
   -0.6301    1.0694   -2.5351 H   0  0  0  0  0  0  0  0  0  0  0  0
    0.3632    2.2442   -1.6754 H   0  0  0  0  0  0  0  0  0  0  0  0
    1.4451    0.6877    0.4575 H   0  0  0  0  0  0  0  0  0  0  0  0
    2.5615   -0.4239   -0.3372 H   0  0  0  0  0  0  0  0  0  0  0  0
   -3.5568    0.6787    0.4145 H   0  0  0  0  0  0  0  0  0  0  0  0
   -3.4352   -1.0530    0.7483 H   0  0  0  0  0  0  0  0  0  0  0  0
   -1.8898   -0.7079   -1.0981 H   0  0  0  0  0  0  0  0  0  0  0  0
   -1.2046   -2.1585    0.6963 H   0  0  0  0  0  0  0  0  0  0  0  0
    1.0127    1.1439   -4.0545 H   0  0  0  0  0  0  0  0  0  0  0  0
    0.0232   -0.3005   -4.1517 H   0  0  0  0  0  0  0  0  0  0  0  0
   -2.3075    1.1828    2.2814 H   0  0  0  0  0  0  0  0  0  0  0  0
  1  2  1  0  0  0  0
  1  3  2  0  0  0  0
  1 22  1  0  0  0  0
  2  4  2  0  0  0  0
  2 23  1  0  0  0  0
  3  5  1  0  0  0  0
  3 24  1  0  0  0  0
  4  6  1  0  0  0  0
  4 25  1  0  0  0  0
  5  6  2  0  0  0  0
  5 26  1  0  0  0  0
  6 15  1  0  0  0  0
  7 15  1  0  0  0  0
  7 17  1  0  0  0  0
  7 18  2  0  0  0  0
  8 10  1  0  0  0  0
  8 13  1  0  0  0  0
  8 27  1  0  0  0  0
  8 28  1  0  0  0  0
  9 11  1  0  0  0  0
  9 14  1  0  0  0  0
  9 29  1  0  0  0  0
  9 30  1  0  0  0  0
 10 17  1  0  0  0  0
 10 31  1  0  0  0  0
 10 32  1  0  0  0  0
 11 17  1  0  0  0  0
 11 33  1  0  0  0  0
 11 34  1  0  0  0  0
 12 13  1  0  0  0  0
 12 16  1  0  0  0  0
 12 35  1  0  0  0  0
 12 36  1  0  0  0  0
 13 14  1  0  0  0  0
 13 37  1  0  0  0  0
 14 21  1  0  0  0  0
 14 38  1  0  0  0  0
 15 39  1  0  0  0  0
 15 40  1  0  0  0  0
 16 21  1  0  0  0  0
 16 41  1  0  0  0  0
 19 21  2  0  0  0  0
 20 21  2  0  0  0  0
M  END
$$$$
