32
0 1 C10H18N2O2
C                     2.568984454731     0.067002751507    -3.098553002532
C                    -0.501699668131    -1.496113591230     2.270737120153
C                    -1.023968311562    -1.140379497837     0.871794011739
C                    -0.357037467446     0.859513258624    -0.756506670856
C                     1.239082398479    -0.478940433647    -0.339110568123
C                    -0.024494422433    -0.128452148028     2.790597075924
C                    -0.039178264513    -0.058159025543     0.442536290701
C                     4.204337429094    -0.189715385299    -4.896876931179
C                     1.885502402702     0.450205761850    -5.473260024647
C                     1.130937902169     0.412192560343    -2.694567292796
N                     1.012774763611     0.647411698192    -1.278173862054
N                     2.835347126665     0.039144106124    -4.448387216938
O                     3.419671794205    -0.208608355830    -2.253583756201
O                     0.226564386359     0.690027519032     1.632599898174
H                    -1.257756448398    -1.950564883632     2.916687215014
H                     0.339125951304    -2.193214955419     2.191071734798
H                    -1.050514041827    -1.989823366118     0.184710358447
H                    -2.032830534673    -0.713879096990     0.931875749759
H                    -1.148876824399     0.437585515097    -1.399065046719
H                    -0.597070519796     1.899284976616    -0.510989543401
H                     2.187566433204    -0.422306867249     0.197506646583
H                     1.144088977167    -1.469449542233    -0.811806673641
H                    -0.793832344164     0.366317182514     3.396624454480
H                     0.891669913063    -0.200485157556     3.387053152186
H                     4.232187560016    -1.004360666041    -5.630173778448
H                     4.814519012799    -0.455554182377    -4.035307914343
H                     4.616256246067     0.714700395896    -5.363855520357
H                     1.944371102511     1.527422736615    -5.685418344628
H                     0.861469012927     0.203481385382    -5.191525627886
H                     2.108241372297    -0.089116231041    -6.398883736166
H                     0.799053613991     1.315331325801    -3.219587657723
H                     0.474252368069    -0.414945012103    -3.044635062452
