
  -OEChem-05262117483D

 32 33  0     0  0  0  0  0  0999 V2000
    0.6145    2.3489   -3.6734 C   0  0  0  0  0  0  0  0  0  0  0  0
   -1.1229   -1.6697    1.4140 C   0  0  0  0  0  0  0  0  0  0  0  0
   -1.4755   -1.0579    0.0521 C   0  0  0  0  0  0  0  0  0  0  0  0
   -0.5909    1.1619   -1.1124 C   0  0  0  0  0  0  0  0  0  0  0  0
    0.8835   -0.3593   -0.9569 C   0  0  0  0  0  0  0  0  0  0  0  0
   -0.6373   -0.4346    2.1807 C   0  0  0  0  0  0  0  0  0  0  0  0
   -0.3825   -0.0059   -0.1230 C   0  0  0  0  0  0  0  0  0  0  0  0
    1.1254    4.7192   -3.9333 C   0  0  0  0  0  0  0  0  0  0  0  0
    2.5978    3.3307   -2.5108 C   0  0  0  0  0  0  0  0  0  0  0  0
    0.9685    0.9825   -3.0726 C   0  0  0  0  0  0  0  0  0  0  0  0
    0.7869    0.9583   -1.6308 N   0  0  0  0  0  0  0  0  0  0  0  0
    1.3945    3.4198   -3.3301 N   0  0  0  0  0  0  0  0  0  0  0  0
   -0.3570    2.4460   -4.4305 O   0  0  0  0  0  0  0  0  0  0  0  0
   -0.0632    0.4474    1.1987 O   0  0  0  0  0  0  0  0  0  0  0  0
   -1.9657   -2.1661    1.9026 H   0  0  0  0  0  0  0  0  0  0  0  0
   -0.3122   -2.3985    1.3050 H   0  0  0  0  0  0  0  0  0  0  0  0
   -1.5000   -1.7814   -0.7662 H   0  0  0  0  0  0  0  0  0  0  0  0
   -2.4533   -0.5631    0.0967 H   0  0  0  0  0  0  0  0  0  0  0  0
   -1.3727    0.9522   -1.8575 H   0  0  0  0  0  0  0  0  0  0  0  0
   -0.7636    2.1432   -0.6609 H   0  0  0  0  0  0  0  0  0  0  0  0
    1.8072   -0.5098   -0.3885 H   0  0  0  0  0  0  0  0  0  0  0  0
    0.7193   -1.2107   -1.6370 H   0  0  0  0  0  0  0  0  0  0  0  0
   -1.4728    0.0790    2.6759 H   0  0  0  0  0  0  0  0  0  0  0  0
    0.1251   -0.6611    2.9327 H   0  0  0  0  0  0  0  0  0  0  0  0
    0.9941    5.4777   -3.1523 H   0  0  0  0  0  0  0  0  0  0  0  0
    0.2181    4.6502   -4.5312 H   0  0  0  0  0  0  0  0  0  0  0  0
    1.9606    5.0252   -4.5769 H   0  0  0  0  0  0  0  0  0  0  0  0
    3.5031    3.2871   -3.1330 H   0  0  0  0  0  0  0  0  0  0  0  0
    2.5474    2.4641   -1.8537 H   0  0  0  0  0  0  0  0  0  0  0  0
    2.6646    4.2226   -1.8785 H   0  0  0  0  0  0  0  0  0  0  0  0
    0.3196    0.2602   -3.5931 H   0  0  0  0  0  0  0  0  0  0  0  0
    2.0104    0.7233   -3.2995 H   0  0  0  0  0  0  0  0  0  0  0  0
  1 10  1  0  0  0  0
  1 12  1  0  0  0  0
  1 13  2  0  0  0  0
  2  3  1  0  0  0  0
  2  6  1  0  0  0  0
  2 15  1  0  0  0  0
  2 16  1  0  0  0  0
  3  7  1  0  0  0  0
  3 17  1  0  0  0  0
  3 18  1  0  0  0  0
  4  7  1  0  0  0  0
  4 11  1  0  0  0  0
  4 19  1  0  0  0  0
  4 20  1  0  0  0  0
  5  7  1  0  0  0  0
  5 11  1  0  0  0  0
  5 21  1  0  0  0  0
  5 22  1  0  0  0  0
  6 14  1  0  0  0  0
  6 23  1  0  0  0  0
  6 24  1  0  0  0  0
  7 14  1  0  0  0  0
  8 12  1  0  0  0  0
  8 25  1  0  0  0  0
  8 26  1  0  0  0  0
  8 27  1  0  0  0  0
  9 12  1  0  0  0  0
  9 28  1  0  0  0  0
  9 29  1  0  0  0  0
  9 30  1  0  0  0  0
 10 11  1  0  0  0  0
 10 31  1  0  0  0  0
 10 32  1  0  0  0  0
M  END
$$$$
