9    
torsion grid (-165,)
C        1.0719201331   -0.3035373286    0.0147649861
C        1.9287453091    0.8732983938   -0.4502662838
O        1.5030316625    1.4102190334   -1.7085130149
H        0.0116877042   -0.0568339711   -0.1040803836
H        1.2803740751   -1.2140778386   -0.5594320498
H        1.2453056336   -0.5163307671    1.0758257520
H        2.9912435637    0.5910463929   -0.4861684175
H        1.8354820539    1.7059789123    0.2523307338
H        1.5755043442    0.7089707561   -2.3749650807
9    
torsion grid (-150,)
C        1.0833290774   -0.3170792645    0.0156211843
C        1.9490767050    0.8549495603   -0.4609309086
O        1.4637484251    1.4573841537   -1.6676892210
H        0.0395565098   -0.1175819221   -0.2505184659
H        1.3776182617   -1.2712121654   -0.4348332644
H        1.1133126497   -0.4134513195    1.1064459722
H        3.0000251008    0.5513285052   -0.5702814103
H        1.9195007367    1.6632006764    0.2746008551
H        1.4973798223    0.7917242715   -2.3727327307
9    
torsion grid (-135,)
C        1.0891579802   -0.3255118886    0.0176354126
C        1.9674698994    0.8398866791   -0.4731572252
O        1.4306991545    1.5091324407   -1.6220543489
H        0.0825994719   -0.2081174328   -0.3982925726
H        1.4724682813   -1.3056813613   -0.2833704539
H        0.9706201472   -0.3101596057    1.1059946793
H        2.9965815118    0.5054761413   -0.6648943056
H        2.0195644377    1.6200803115    0.2901831607
H        1.4181714662    0.8796260038   -2.3601060968
9    
torsion grid (-120,)
C        1.0873483794   -0.3268677094    0.0166837351
C        1.9835422020    0.8267256821   -0.4841194169
O        1.4076942125    1.5660230549   -1.5692480990
H        0.1482730837   -0.3307290626   -0.5463978754
H        1.5602453606   -1.3066225083   -0.1044311222
H        0.8188227856   -0.2069088344    1.0708568468
H        2.9778157185    0.4525415342   -0.7650559044
H        2.1316539131    1.5693864630    0.3030794687
H        1.3254970846    0.9690205185   -2.3291835842
9    
torsion grid (-105,)
C        1.0814938644   -0.3226112566    0.0086039081
C        1.9967109621    0.8123065715   -0.4964408320
O        1.3925891295    1.6231690025   -1.5121747440
H        0.2441848497   -0.4749978412   -0.6799573032
H        1.6268618074   -1.2693842974    0.0876184108
H        0.6670960215   -0.1066984190    0.9979356186
H        2.9456880047    0.3991544858   -0.8669527176
H        2.2421112154    1.5060600537    0.3106475653
H        1.2231950434    1.0589565350   -2.2822539795
9    
torsion grid (-90,)
C        1.0803169584   -0.3193435556   -0.0045131355
C        2.0109807759    0.7932495931   -0.5108745902
O        1.3860180080    1.6724694851   -1.4538286226
H        0.3651246023   -0.6190379570   -0.7779154292
H        1.6621918847   -1.2074102852    0.2698163840
H        0.5288730978   -0.0165149116    0.8905361615
H        2.9130148733    0.3516684461   -0.9595548929
H        2.3390387530    1.4336760462    0.3111634655
H        1.1156033785    1.1427602820   -2.2194364853
9    
torsion grid (-75,)
C        1.0846652181   -0.3191372400   -0.0213629845
C        2.0236142521    0.7754771711   -0.5317604580
O        1.3774023256    1.7130382950   -1.4004922588
H        0.4904703425   -0.7454524711   -0.8381433789
H        1.6651346868   -1.1356366042    0.4250474919
H        0.4088661789    0.0592859772    0.7515073803
H        2.8841879130    0.3206861364   -1.0452450243
H        2.4153610931    1.3684098109    0.2985518337
H        1.0131450659    1.2199275911   -2.1517188259
9    
torsion grid (-60,)
C        1.0950086164   -0.3273468635   -0.0233421073
C        2.0390853193    0.7522411956   -0.5471621713
O        1.3698604179    1.7453391714   -1.3326806811
H        0.6089713925   -0.8627224221   -0.8484782627
H        1.6467637072   -1.0652241628    0.5708743111
H        0.3174467410    0.1111353477    0.6098000311
H        2.8574445563    0.2947454726   -1.1232205564
H        2.4908206415    1.3009866810    0.2836454091
H        0.9499577774    1.2987879815   -2.0843520746
9    
torsion grid (-45,)
C        1.1027315450   -0.3363034471   -0.0255959789
C        2.0494690674    0.7337287247   -0.5683266985
O        1.3641027318    1.7795927488   -1.2673512515
H        0.7252504220   -0.9780170973   -0.8318982464
H        1.6080667664   -0.9803702479    0.7024166688
H        0.2386244144    0.1360838200    0.4522112959
H        2.8237209816    0.2805336831   -1.2046280090
H        2.5593062269    1.2397756100    0.2562214246
H        0.8979841190    1.3831342885   -2.0202042077
9    
torsion grid (-30,)
C        1.1069113306   -0.3469123759   -0.0269597532
C        2.0556072214    0.7177028521   -0.5917356727
O        1.3654493766    1.8167546364   -1.1999103677
H        0.8466391656   -1.0955683430   -0.7854731117
H        1.5494660631   -0.8759341037    0.8231321666
H        0.1718512252    0.1266211525    0.2886435355
H        2.7764316423    0.2714547326   -1.2914315133
H        2.6302946512    1.1759432333    0.2177335617
H        0.8626674300    1.4765987528   -1.9568035284
9    
torsion grid (-15,)
C        0.9651753158   -0.2637305022   -0.0383536159
C        1.6104540277    1.0089354930   -0.6190081855
O        2.3072646990    0.7790642465   -1.8508475714
H        1.5414896533   -0.6655493953    0.8029980480
H       -0.0549609748   -0.0839620397    0.3141055214
H        0.9364176037   -1.0414791294   -0.8079894909
H        2.2719453693    1.4860137679    0.1172685327
H        0.8401953376    1.7388870195   -0.8801622349
H        3.0558941543    0.1894411339   -1.6691683877
9    
torsion grid (0,)
C        0.9725442461   -0.2659447860   -0.0276688666
C        1.6279753074    1.0112320745   -0.5974477808
O        2.2375768706    0.8157580452   -1.8803086765
H        1.4157977201   -0.5656525703    0.9277126597
H       -0.1031318281   -0.1404580782    0.1287938430
H        1.1036726602   -1.0941378712   -0.7314988513
H        2.3610198906    1.4202315107    0.1117002179
H        0.8784360695    1.7875550930   -0.7667113454
H        2.9682799293    0.1871938400   -1.7726907116
9    
torsion grid (15,)
C        0.9840042718   -0.2642230074   -0.0199690683
C        1.6461208257    1.0141617053   -0.5741508388
O        2.1691616498    0.8562764404   -1.8989251679
H        1.2700687563   -0.4592579783    1.0182718724
H       -0.1081787076   -0.2050461941   -0.0632701048
H        1.2663045707   -1.1295874313   -0.6292550142
H        2.4440586854    1.3529656153    0.1021760865
H        0.9227832100    1.8288678997   -0.6504791797
H        2.8612528912    0.1779794572   -1.8667982161
9    
torsion grid (30,)
C        0.9952668615   -0.2632830246   -0.0186189202
C        1.6659193454    1.0100281487   -0.5569605647
O        2.1013004512    0.8871889198   -1.9159269014
H        1.1186640284   -0.3611152435    1.0645938387
H       -0.0763733633   -0.2724092465   -0.2434870290
H        1.4124171244   -1.1511753374   -0.5078101779
H        2.5185614391    1.2845264598    0.0818523266
H        0.9716895191    1.8534860490   -0.5486602032
H        2.7561428399    0.1732954028   -1.9544333437
9    
torsion grid (45,)
C        1.0018294791   -0.2593698491   -0.0149476581
C        1.6862520167    1.0085469340   -0.5301754029
O        2.0384326110    0.9300400128   -1.9158310568
H        0.9665944315   -0.2766631645    1.0795902393
H       -0.0218799007   -0.3326399797   -0.3964682447
H        1.5318875847   -1.1541844401   -0.3640741167
H        2.5809684294    1.2248481983    0.0730692020
H        1.0206923607    1.8713927179   -0.4462246717
H        2.6392006878    0.1771920574   -2.0278283178
9    
torsion grid (60,)
C        1.0096778492   -0.2625377420   -0.0186457231
C        1.7110916796    0.9985228836   -0.5178145536
O        1.9792904007    0.9668548132   -1.9241837592
H        0.8238581449   -0.2036085996    1.0598844050
H        0.0515710074   -0.3988837323   -0.5300726738
H        1.6215683420   -1.1538397182   -0.2065143487
H        2.6409351931    1.1654523745    0.0464707287
H        1.0752776197    1.8751572687   -0.3671355815
H        2.5422754257    0.1977495442   -2.1038408722
9    
torsion grid (75,)
C        1.0138056114   -0.2689742567   -0.0161675439
C        1.7354854261    0.9864283321   -0.5041088109
O        1.9183368961    1.0098508055   -1.9249376198
H        0.6808534277   -0.1395801680    1.0205399047
H        0.1357236091   -0.4703722291   -0.6371191856
H        1.6730448171   -1.1455280481   -0.0318880600
H        2.6974298240    1.1061928350    0.0156226448
H        1.1343897251    1.8739894963   -0.2879740205
H        2.4526180263    0.2387624344   -2.1722300415
9    
torsion grid (90,)
C        1.0197512455   -0.2775641628   -0.0093737499
C        1.7621241486    0.9734414078   -0.4937528817
O        1.8570754951    1.0553239081   -1.9217681605
H        0.5368340027   -0.0849233642    0.9559946151
H        0.2407129022   -0.5564083048   -0.7248282656
H        1.6969765019   -1.1244746323    0.1504269302
H        2.7560503344    1.0438381909   -0.0293690653
H        1.2064919299    1.8713270629   -0.2103242606
H        2.3669638736    0.2916473676   -2.2350910976
9    
torsion grid (105,)
C        1.0204480766   -0.2838627475    0.0071169255
C        1.7829819436    0.9622396153   -0.4808134140
O        1.7848674866    1.1037462212   -1.9078415022
H        0.3850650579   -0.0413254275    0.8662844303
H        0.3675756506   -0.6585624727   -0.7865048167
H        1.6932351873   -1.0828797953    0.3367599259
H        2.8091688571    0.9739939906   -0.0880646765
H        1.2909624612    1.8703814126   -0.1240810914
H        2.2767967707    0.3574471829   -2.2848493609
9    
torsion grid (120,)
C        1.0268242439   -0.2833855514    0.0151466076
C        1.8080461787    0.9553343607   -0.4755180012
O        1.7261166399    1.1566507657   -1.8927426582
H        0.2377989032   -0.0111525473    0.7232289227
H        0.5394555096   -0.7754011390   -0.8324992753
H        1.6754054343   -1.0127913321    0.5111404330
H        2.8594790627    0.9003638290   -0.1609129471
H        1.3922599178    1.8693292443   -0.0456213939
H        2.1522579199    0.4020049306   -2.3281056608
9    
torsion grid (135,)
C        1.0303910200   -0.2784564826    0.0276153350
C        1.8333723778    0.9460802949   -0.4567505621
O        1.6744549527    1.2156523049   -1.8552216603
H        0.1163057424    0.0036273563    0.5575948577
H        0.7271910207   -0.8852602012   -0.8331624402
H        1.6297257462   -0.9257618426    0.6762225715
H        2.8997451304    0.8165907531   -0.2226538779
H        1.5027604592    1.8570974824    0.0469600218
H        2.0158046125    0.4525002054   -2.3462916347
9    
torsion grid (150,)
C        1.0353722180   -0.2746876402    0.0204927103
C        1.8559127869    0.9332358781   -0.4547924106
O        1.6282795261    1.2679811470   -1.8285783445
H        0.0367060333    0.0053246076    0.3659336349
H        0.9088349189   -0.9842365436   -0.8071926347
H        1.5599552180   -0.8237603899    0.8099867803
H        2.9271377611    0.7431864444   -0.2918954353
H        1.5979853003    1.8324205256    0.1098775993
H        1.8700263453    0.4980466943   -2.3659467315
9    
torsion grid (165,)
C        1.0465962519   -0.2782953164    0.0216113062
C        1.8840212463    0.9153103334   -0.4404790190
O        1.5911129552    1.3202048415   -1.7823524555
H        0.0037962273   -0.0017154391    0.2007274890
H        1.0589637266   -1.0662776594   -0.7428539412
H        1.4706703911   -0.7227227330    0.9292111996
H        2.9545476325    0.6794162989   -0.3437390801
H        1.6866187100    1.7942398659    0.1786140200
H        1.7497056613    0.5603752447   -2.3635740702
9    
torsion grid (180,)
C        1.0594514004   -0.2891089733    0.0136613182
C        1.9064403468    0.8949525369   -0.4465084430
O        1.5453792752    1.3650486466   -1.7501966848
H       -0.0013336324   -0.0217092040    0.0406772119
H        1.1794359828   -1.1438943722   -0.6641219609
H        1.3657349048   -0.6187665156    1.0132202673
H        2.9747483269    0.6331895579   -0.4147317114
H        1.7596327929    1.7514759866    0.2170644330
H        1.6576490200    0.6311063143   -2.3743003812
