22   
torsion grid (-165,)
C        0.8192670933   -0.1801579898   -0.0393777643
C        0.4875182904   -0.4867303773    1.2261447036
C        1.4128778578    1.7568558879    2.1875514787
C       -0.0817730347    1.8907062467    2.1202043175
C        0.5460992871    0.5146606098    2.3549904878
C       -0.0022601529   -1.8814942928    1.5516809978
C        0.4890123905   -0.0114592531    3.7805689585
N       -1.7363245900    0.4129552740    4.4102635973
O       -0.7523266683   -0.6192787538    4.1608343474
H        0.7340990376   -0.9187743063   -0.8318469427
H        1.1727403618    0.8022658678   -0.3402914112
H        1.9922211263    1.8457310311    1.2754596592
H        1.9184519286    2.1337556198    3.0726023479
H       -0.5969389452    2.3530327914    2.9558506626
H       -0.5359496841    2.0459466575    1.1463509346
H        0.6400052017   -2.3730447601    2.2910737020
H       -1.0057944294   -1.8611462701    1.9861991108
H       -0.0162943823   -2.5022990243    0.6521308318
H        0.7100046096    0.7998669276    4.4828155339
H        1.2283956012   -0.8057233688    3.9282274717
H       -2.2171953510    0.0589614222    5.2396451828
H       -2.4033143262    0.3177940824    3.6397266817
22   
torsion grid (-150,)
C        1.1402219459   -0.3511047982    0.0470616291
C        0.5798760652   -0.5438831406    1.2522378286
C        1.3424492183    1.7979436354    2.1456339918
C       -0.1619808161    1.7921766305    2.0986825215
C        0.6027778918    0.4884973159    2.3505501407
C       -0.2070787426   -1.8093299256    1.5180124365
C        0.5988735006   -0.0160740753    3.7879891607
N       -1.6290555856    0.2960658015    4.4786012724
O       -0.5965003684   -0.6820089656    4.2115352605
H        1.0440724259   -1.0983285843   -0.7365713218
H        1.7140318358    0.5348738351   -0.2065523754
H        1.8912513363    1.9492644836    1.2237152193
H        1.8213023377    2.2360718218    3.0169802720
H       -0.7086677863    2.2231800383    2.9308535800
H       -0.6332143181    1.8880184393    1.1251731991
H        0.1902932415   -2.3653784481    2.3726980273
H       -1.2498199862   -1.5808516746    1.7640872479
H       -0.1894085154   -2.4639383439    0.6424606897
H        0.7968370759    0.8159490093    4.4727550390
H        1.3819301987   -0.7705232998    3.9244497391
H       -2.0544025760   -0.0645799560    5.3351164987
H       -2.3197868839    0.1416792605    3.7391598575
22   
torsion grid (-135,)
C        1.3440946684   -0.4693386243    0.1597290401
C        0.6048460751   -0.5457828550    1.2772298046
C        1.2801992508    1.8509155707    2.0871409655
C       -0.2251725233    1.7546249191    2.1125814033
C        0.6286961872    0.5088645106    2.3515063374
C       -0.3897456410   -1.6713650764    1.4587624433
C        0.7134804995    0.0278614394    3.7958970633
N       -1.5120717555    0.1796179486    4.5463511004
O       -0.4104161495   -0.7180632271    4.2747801024
H        1.2535165483   -1.2191565270   -0.6226182483
H        2.0728200649    0.3176593803   -0.0087044095
H        1.7632490418    2.0194261902    1.1319438045
H        1.7736369545    2.3396640288    2.9226891271
H       -0.7598475095    2.1684745238    2.9610055365
H       -0.7417527393    1.8129406340    1.1589159035
H       -0.1669473559   -2.2690675766    2.3469086447
H       -1.4022211972   -1.2734942686    1.6014893847
H       -0.3976065684   -2.3293129204    0.5853008302
H        0.8781568438    0.8830928448    4.4612835937
H        1.5529142771   -0.6680551816    3.9069895264
H       -1.8855131080   -0.1929035563    5.4217578209
H       -2.2055692324   -0.0489620897    3.8289468101
22   
torsion grid (-120,)
C        1.4623502542   -0.5811781005    0.2957085699
C        0.5673079795   -0.5295578320    1.2932336581
C        1.2047978643    1.8934086595    2.0363426785
C       -0.2977707840    1.7593841643    2.1279980288
C        0.5933923625    0.5435988719    2.3488761309
C       -0.5716275419   -1.5206114427    1.3738047620
C        0.7625597438    0.0817173811    3.7917694810
N       -1.4598048484    0.0198936499    4.5546663795
O       -0.2721946969   -0.7666201628    4.2981990039
H        1.4027823473   -1.3451854244   -0.4762595266
H        2.2893678781    0.1196916987    0.2250421711
H        1.6372242932    2.0493015775    1.0545110602
H        1.7222850582    2.4128657315    2.8384147458
H       -0.8087455793    2.1723853286    2.9916146281
H       -0.8546674929    1.7993382132    1.1958654165
H       -0.5165280232   -2.1104276256    2.2932441064
H       -1.5351136289   -0.9944580882    1.3910543833
H       -0.5689433593   -2.1999068140    0.5166859456
H        0.8608271157    0.9535900180    4.4495863378
H        1.6663682253   -0.5317272627    3.8789785309
H       -1.8063409158   -0.3886435500    5.4248953655
H       -2.1186133144   -0.2733024765    3.8278374906
22   
torsion grid (-105,)
C        1.5689832458   -0.7041872587    0.4525780527
C        0.5466836893   -0.5203338975    1.2998790972
C        1.1377320084    1.9259054796    1.9847331999
C       -0.3583839536    1.7620536570    2.1405774072
C        0.5621339916    0.5702658790    2.3384382586
C       -0.6746437766   -1.4090862079    1.2822206442
C        0.8143372731    0.1168183723    3.7705678532
N       -1.3733300106   -0.0590371369    4.6036654216
O       -0.1590115393   -0.7876197931    4.3017561384
H        1.5556174730   -1.5000204748   -0.2889805420
H        2.4508138865   -0.0688081295    0.4764107337
H        1.5266341514    2.0650159764    0.9817230418
H        1.6771712616    2.4697512868    2.7558438653
H       -0.8403284574    2.1784854718    3.0192988831
H       -0.9551215151    1.7867515798    1.2326666169
H       -0.7631271276   -1.9548757570    2.2272868556
H       -1.5862620777   -0.8089101534    1.1675967699
H       -0.6353798065   -2.1319305299    0.4623109340
H        0.8893611658    0.9895844667    4.4306570763
H        1.7503818810   -0.4503044375    3.8167335747
H       -1.6818050072   -0.5031654996    5.4706909645
H       -2.0364298076   -0.3612527026    3.8843045514
22   
torsion grid (-90,)
C        1.6469748754   -0.8216026699    0.6089583430
C        0.5328864677   -0.5063763458    1.2834317298
C        1.0652134788    1.9603228267    1.9337307723
C       -0.4199633372    1.7622073300    2.1484101243
C        0.5302996961    0.5936579248    2.3144573867
C       -0.7438013642   -1.2991135577    1.1440310481
C        0.8622822313    0.1435628403    3.7297427310
N       -1.2786696693   -0.1173910743    4.6512634353
O       -0.0585066685   -0.8041977774    4.2803424904
H        1.6719359739   -1.6476106395   -0.0984663531
H        2.5662680505   -0.2545707463    0.7382272337
H        1.4162466952    2.0943038130    0.9157749299
H        1.6210842453    2.5201287614    2.6816906967
H       -0.8750347036    2.1740422565    3.0435572237
H       -1.0538380314    1.7751214924    1.2658354286
H       -0.9780444558   -1.7979195261    2.0915447518
H       -1.5898267318   -0.6444101786    0.9027081845
H       -0.6652035462   -2.0610961120    0.3632238771
H        0.9266313708    1.0113773442    4.3976092028
H        1.8196732287   -0.3877506693    3.7305563145
H       -1.5387812079   -0.5921055040    5.5179224489
H       -1.9636514202   -0.4182962596    3.9521972573
22   
torsion grid (-75,)
C        1.7070047699   -0.9563182017    0.8401433936
C        0.5347528916   -0.5090902100    1.3100940272
C        0.9433144073    2.0054502972    1.8652828537
C       -0.5202920554    1.7415501620    2.1406499415
C        0.4882857773    0.6248103014    2.3063760041
C       -0.7679904355   -1.2048496495    1.0034079830
C        0.8936073631    0.2375735425    3.7198587643
N       -1.1959525561   -0.1216154854    4.7218096103
O        0.0452101174   -0.7492699185    4.3163475596
H        1.7678714841   -1.8174583522    0.1786490621
H        2.6432305416   -0.4620344653    1.0919332289
H        1.2552846722    2.1183079527    0.8319572074
H        1.4987439195    2.6132369572    2.5754386757
H       -0.9609289280    2.1572885960    3.0411205214
H       -1.1884532048    1.7029139390    1.2850186952
H       -1.2031048359   -1.6055783000    1.9271848555
H       -1.5034170199   -0.5139661652    0.5753876900
H       -0.6291976091   -2.0336205063    0.3033188790
H        0.9241106034    1.1244846866    4.3647367091
H        1.8803272877   -0.2357833254    3.7044967975
H       -1.3913344979   -0.5832229629    5.6122892239
H       -1.8913948650   -0.4828043957    4.0631424663
22   
torsion grid (-60,)
C        1.6671347914   -1.1189794656    1.0265211894
C        0.5033853463   -0.5258777273    1.3261379235
C        0.8021482106    2.0140210948    1.8342458747
C       -0.6217514084    1.6788314017    2.2086467472
C        0.4514324581    0.6141949907    2.3183144536
C       -0.8029689485   -1.0270537851    0.7620474790
C        0.9417842385    0.2728321914    3.7161752306
N       -1.0822897892   -0.1850425759    4.8117242322
O        0.1759289061   -0.7466783578    4.3647085093
H        1.7163348521   -1.9722339072    0.3543518878
H        2.6112903418   -0.7657900161    1.4355987428
H        1.0414809286    2.1242630326    0.7811383830
H        1.3757660303    2.6570178463    2.4975525693
H       -1.0188203116    2.0770185463    3.1365863286
H       -1.3474689881    1.6013477187    1.4049985520
H       -1.5060391883   -1.2620945532    1.5702771793
H       -1.2885405547   -0.2723447557    0.1316709266
H       -0.6580137001   -1.9260177975    0.1566762062
H        0.9543297072    1.1724125629    4.3440085150
H        1.9516277890   -0.1460999434    3.6710715519
H       -1.2015488273   -0.6216578234    5.7279821685
H       -1.7822597649   -0.6201609187    4.2049450833
22   
torsion grid (-45,)
C        1.5912501973   -1.3183581559    1.2387950129
C        0.4884749264   -0.5664599730    1.3696069685
C        0.6798834142    1.9942294861    1.7740314614
C       -0.6934154491    1.6064923690    2.2576632521
C        0.4401714401    0.5964813392    2.3329664815
C       -0.7382658424   -0.8519661332    0.5367333638
C        1.0088347482    0.3468069638    3.7206629973
N       -0.9437753630   -0.2279715744    4.8871927501
O        0.3521424777   -0.6970656500    4.4413074450
H        1.6249423071   -2.1553379271    0.5458462558
H        2.4916783848   -1.1368581251    1.8193881133
H        0.8434657692    2.0716802383    0.7032464293
H        1.2694984938    2.6867912559    2.3698663524
H       -1.0434444777    2.0148945653    3.1997058032
H       -1.4706133299    1.4673453696    1.5138111769
H       -1.6183850976   -1.0067145997    1.1720250465
H       -0.9760426155   -0.0172735613   -0.1347795041
H       -0.5959617454   -1.7432530490   -0.0799494688
H        0.9768359050    1.2728294739    4.3083227619
H        2.0483140217    0.0100854667    3.6616232462
H       -1.0069477817   -0.6268585823    5.8259535134
H       -1.6102738005   -0.7560177270    4.3174997848
22   
torsion grid (-30,)
C        1.4143127959   -1.4738697066    1.4514776205
C        0.4225994811   -0.5700664215    1.4174954211
C        0.5531670520    2.0038014551    1.7336235478
C       -0.7780801462    1.5887939948    2.2995298427
C        0.3938159874    0.6156669553    2.3454201063
C       -0.6753441109   -0.6891584407    0.3851544730
C        1.0396312161    0.4461754953    3.7121310414
N       -0.8255087438   -0.2918385223    4.9229445340
O        0.5143373354   -0.6288917976    4.4878458025
H        1.4354613473   -2.3074960288    0.7540013978
H        2.2152334794   -1.4390031832    2.1831264300
H        0.6595279142    2.0598391839    0.6543917044
H        1.1534251290    2.7273707288    2.2796235454
H       -1.0918739135    2.0099422868    3.2485694129
H       -1.5881748787    1.4023340601    1.6033371657
H       -1.6535559507   -0.8246611554    0.8613905254
H       -0.7486949092    0.2078430333   -0.2421111948
H       -0.4977996533   -1.5422310941   -0.2744695133
H        0.9523639779    1.3832136545    4.2765953813
H        2.1033097423    0.2051956285    3.6153288024
H       -0.8486867692   -0.6818076189    5.8671705601
H       -1.4293105195   -0.8969178164    4.3594209230
22   
torsion grid (-15,)
C        1.2412416479   -1.6015621413    1.5990637899
C        0.3851712850   -0.5825335614    1.4165868450
C        0.4449685267    2.0015120916    1.7095591401
C       -0.8537124022    1.5425086846    2.3129305253
C        0.3530236371    0.6090481920    2.3306724031
C       -0.5701479995   -0.6041388774    0.2429194124
C        1.0657902608    0.4912074705    3.6691819500
N       -0.7195496965   -0.3182394591    4.9513637050
O        0.6282699085   -0.5864295704    4.4944379641
H        1.2638973383   -2.4389209039    0.9058789244
H        1.9161477852   -1.6585929081    2.4458559882
H        0.5199262934    2.0687287683    0.6290323259
H        1.0349539881    2.7430318236    2.2421107603
H       -1.1580048984    1.9542024319    3.2691463524
H       -1.6733167348    1.3187555045    1.6390277926
H       -1.6083794202   -0.7044698552    0.5804453382
H       -0.5166780397    0.3118259001   -0.3567150080
H       -0.3511117569   -1.4470981817   -0.4169769097
H        0.9651591654    1.4353434677    4.2193893668
H        2.1328991623    0.2934741403    3.5207569289
H       -0.7041763471   -0.7021730674    5.8981283636
H       -1.2996692361   -0.9590188788    4.4021271061
22   
torsion grid (0,)
C        1.0791501702   -1.7248531446    1.7026790479
C        0.3801356452   -0.6141745962    1.4106688446
C        0.3287010227    1.9752890907    1.7452516455
C       -0.9231968837    1.4385509484    2.3805591982
C        0.3293111269    0.5655247317    2.3384133714
C       -0.3874966696   -0.5375151596    0.1077085125
C        1.1039379897    0.4718973019    3.6440166790
N       -0.6064506939   -0.3177740689    5.0419876836
O        0.7141378170   -0.5907409730    4.5154136174
H        1.1110156449   -2.5563212547    1.0026341301
H        1.6115163351   -1.8559674139    2.6376036521
H        0.3585060453    2.0786824329    0.6664493934
H        0.8959143059    2.7338732901    2.2780210540
H       -1.2147189527    1.8119925972    3.3561608609
H       -1.7524991560    1.1820158752    1.7302037718
H       -1.4660451865   -0.4454849772    0.2789704248
H       -0.0852000657    0.3201674845   -0.5030325491
H       -0.2238491675   -1.4403790334   -0.4853937444
H        1.0264446069    1.4237523384    4.1838246683
H        2.1617019816    0.2715224143    3.4417035053
H       -0.5365758965   -0.6826037502    5.9938102233
H       -1.2145426044   -0.9697910905    4.5381099009
22   
torsion grid (15,)
C        0.8916689764   -1.8276920097    1.7700795290
C        0.3732730212   -0.6403712865    1.4105963738
C        0.1764242847    1.9360785305    1.7917021702
C       -1.0064734272    1.3042498364    2.4693413385
C        0.3029641451    0.5228524000    2.3593380913
C       -0.1516024339   -0.4464307016    0.0037121728
C        1.1382677580    0.4544971985    3.6287066087
N       -0.4816534882   -0.3071627535    5.1523861468
O        0.7988608294   -0.5937756402    4.5412680729
H        0.9346892633   -2.6483083726    1.0576265910
H        1.2706311077   -2.0201094426    2.7673354618
H        0.1475268486    2.0588929886    0.7152030190
H        0.7050886274    2.7293536352    2.3132385064
H       -1.2817628901    1.6421837314    3.4623005428
H       -1.8401950331    0.9858362251    1.8513727216
H       -1.1657195137   -0.0310032862   -0.0093372843
H        0.4836234456    0.2410626724   -0.5666386973
H       -0.1764247557   -1.3985858662   -0.5317639188
H        1.0837559911    1.4140239710    4.1572399747
H        2.1837581036    0.2495203795    3.3745246859
H       -0.3489257894   -0.6603919971    6.1018954200
H       -1.1266841852   -0.9609764058    4.6992010220
22   
torsion grid (30,)
C        0.7362883972   -1.9038669369    1.8441356941
C        0.4173464977   -0.6681839463    1.4220222146
C        0.1069728609    1.9001758835    1.8101359207
C       -1.0277957921    1.2028823327    2.5070456381
C        0.3186296162    0.4957028785    2.3724435513
C        0.0974722461   -0.4257955950   -0.0363828489
C        1.2041975551    0.4733599848    3.6098455740
N       -0.3284504996   -0.2757975100    5.2276377603
O        0.9244585638   -0.5605634307    4.5607321314
H        0.7902467505   -2.7314793242    1.1403866311
H        0.9649421974   -2.1173958735    2.8825060926
H        0.0498499696    2.0273462267    0.7354939381
H        0.5975902459    2.7208135141    2.3262628170
H       -1.3105884798    1.5282140629    3.5022849295
H       -1.8464208189    0.8304391514    1.8977592317
H       -0.8881288338    0.0368365495   -0.1706678262
H        0.8311484129    0.2456280007   -0.4974550054
H        0.1012291133   -1.3655642451   -0.5941620613
H        1.1498628403    1.4421193544    4.1209197275
H        2.2413344098    0.2810573939    3.3160933299
H       -0.1435887330   -0.6008918354    6.1784917839
H       -0.9864335498   -0.9496429434    4.8250300597
22   
torsion grid (45,)
C        0.4505583368   -1.9272531405    1.8400681787
C        0.3578867598   -0.6617063251    1.3991886890
C       -0.0244149241    1.8956171541    1.8181299627
C       -1.0995909577    1.1532797428    2.5648552003
C        0.2623707654    0.4995005346    2.3594393177
C        0.2891324423   -0.3725956743   -0.0825741666
C        1.2162774854    0.4940647946    3.5466036214
N       -0.1958768019   -0.2504918113    5.2702097599
O        1.0016913216   -0.5432790689    4.5104526392
H        0.5136118599   -2.7573113743    1.1398189457
H        0.5053378567   -2.1630398209    2.8975276556
H       -0.1397137693    2.0281161584    0.7486092778
H        0.4571780949    2.7329096055    2.3158864880
H       -1.3502891692    1.4692050200    3.5719778380
H       -1.9274819673    0.7487184365    1.9890957792
H       -0.6576016616    0.1088349403   -0.3591326970
H        1.0930990540    0.3048446715   -0.3932184722
H        0.3725054761   -1.2950424599   -0.6631362731
H        1.1758778164    1.4620223337    4.0603313817
H        2.2378233243    0.3153502785    3.1956682710
H        0.0571483817   -0.5793373152    6.2039641893
H       -0.8894101729   -0.9172240023    4.9183305744
22   
torsion grid (60,)
C       -0.3841174339   -1.5094695636    1.4481368084
C        0.5563155506   -0.5595056954    1.3532393533
C        1.1392535622    1.9485125704    1.8795542762
C       -0.3551216766    1.7887398361    2.0267117803
C        0.5677564466    0.6120744770    2.3093347767
C        1.6861216592   -0.6675986234    0.3593319375
C        0.7114237306    0.2432992558    3.7772089161
N        3.0177045727    0.5322527463    4.0997146600
O        1.9350240338   -0.4299946479    4.0869348928
H       -0.3786083181   -2.3843823130    0.8025567777
H       -1.1967683833   -1.4402934072    2.1680794718
H        1.5375421448    2.0423944602    0.8740450575
H        1.6733715788    2.5210854980    2.6306657632
H       -0.8484379394    2.2680015333    2.8689820535
H       -0.9546229243    1.7369328739    1.1231512500
H        1.6659530064    0.1527060012   -0.3682245012
H        2.6547553597   -0.6115128824    0.8706335208
H        1.6414623200   -1.6087279681   -0.1955683657
H       -0.0632247649   -0.4740522332    4.0646283483
H        0.6211438177    1.1391197174    4.4040530201
H        3.5753265560    0.2951357514    3.2749146221
H        3.5699952862    0.2268076068    4.9034917363
22   
torsion grid (75,)
C       -0.5227572804   -1.3653920562    1.2828756492
C        0.5316351171   -0.5408682752    1.3416748204
C        1.0281502138    1.9823120184    1.8470110049
C       -0.4461219690    1.7551011892    2.0970388125
C        0.5448647537    0.6225213136    2.3043894464
C        1.8061228683   -0.8166290497    0.5834439526
C        0.7815829977    0.2356662291    3.7557628719
N        3.0844365707    0.6224921242    3.9713614840
O        2.0479738296   -0.3895590002    3.9898441041
H       -0.5236408899   -2.2497478988    0.6498226401
H       -1.4263568163   -1.1702820108    1.8570477768
H        1.3468333986    2.0897619802    0.8140858081
H        1.5877159127    2.5812220905    2.5583758963
H       -0.8948367317    2.2109497528    2.9762909208
H       -1.1044016601    1.6869698985    1.2368934781
H        2.0950808144    0.0349067672   -0.0432653224
H        2.6287091304   -0.9909979678    1.2878713043
H        1.7128887495   -1.6975327783   -0.0580899838
H        0.0521317342   -0.5215544235    4.0597956109
H        0.6876876932    1.1146923682    4.4053055614
H        3.5959501160    0.4477764257    3.1020114561
H        3.7026898532    0.3131769371    4.7238885782
22   
torsion grid (90,)
C       -0.5802124685   -1.2375344863    1.0648619252
C        0.5328966385   -0.5399813054    1.3291608430
C        0.9429959273    1.9741800993    1.8892743567
C       -0.5098233585    1.6837382450    2.1993982694
C        0.5276507461    0.5858450942    2.3319281882
C        1.8726154612   -0.9073418137    0.7390812040
C        0.8464633253    0.1703465627    3.7608004960
N        3.1369475133    0.6583607980    3.8891801574
O        2.1483214712   -0.3991444791    3.9348190353
H       -0.5751216567   -2.0848403729    0.3826565237
H       -1.5337765092   -0.9738742695    1.5171114752
H        1.2087285397    2.1119247050    0.8446361028
H        1.5124948327    2.5772911082    2.5892126082
H       -0.9328883674    2.1024553646    3.1090801841
H       -1.2024922868    1.6198719004    1.3666109100
H        2.3355811250   -0.0446492319    0.2450595955
H        2.5536575089   -1.2312888617    1.5345208763
H        1.7862555026   -1.7164943355    0.0081321572
H        0.1652301917   -0.6288145060    4.0707840921
H        0.7358067295    1.0265628727    4.4374983216
H        3.6093820624    0.5279799631    2.9901798593
H        3.8062521723    0.3596403261    4.6011400292
22   
torsion grid (105,)
C       -0.6178365977   -1.1116019468    0.8806769656
C        0.5138977479   -0.5540193343    1.3335737523
C        0.8726519244    1.9554597464    1.8890842445
C       -0.5592787895    1.6355154053    2.2588632249
C        0.5002634547    0.5570384120    2.3502439217
C        1.8742635254   -1.0199567620    0.8708042016
C        0.8982607253    0.1631205368    3.7668057313
N        3.1736904355    0.7394539247    3.7968767502
O        2.2267156459   -0.3506244958    3.9039780636
H       -0.6011858093   -1.9204986009    0.1534535540
H       -1.5942417578   -0.7801037199    1.2251039867
H        1.0915439503    2.0913466014    0.8333276229
H        1.4612320552    2.5689627003    2.5636416170
H       -0.9535410691    2.0452747136    3.1851631244
H       -1.2833249048    1.5673541685    1.4540396267
H        2.4547194313   -0.1782844749    0.4719790757
H        2.4413480281   -1.4352873167    1.7103092964
H        1.7953324158   -1.7818057679    0.0900002110
H        0.2630414182   -0.6601776962    4.1112126066
H        0.7745916936    1.0194277065    4.4409843664
H        3.6181619219    0.6011497194    2.8848272385
H        3.8779027507    0.4828104653    4.4913948723
22   
torsion grid (120,)
C       -0.5615353493   -0.2053667644    0.3441125152
C        0.2755100504   -0.4985679021    1.3494011622
C        1.8711867727    1.2877948541    2.3565424587
C        0.5320068112    1.9688641650    2.1777792689
C        0.5854455072    0.4822324027    2.4446823314
C        0.9416469011   -1.8491996554    1.4646400993
C        0.2188392140    0.0100954523    3.8457409156
N       -2.0410345066    0.6093767687    3.7485639663
O       -1.1130815104   -0.4859808295    3.9516305984
H       -0.7732804295   -0.9224910459   -0.4458239152
H       -1.0537714927    0.7610677709    0.2724424207
H        2.4855362778    1.1484488365    1.4715821211
H        2.4300521743    1.4637231304    3.2730848702
H        0.1607213320    2.6001772499    2.9785843801
H        0.2771338888    2.3080118390    1.1792644447
H        2.0225324392   -1.7398000037    1.6134610349
H        0.5509605260   -2.4024097296    2.3264525112
H        0.7730639749   -2.4574089268    0.5718619092
H        0.3774941302    0.8228017431    4.5666712831
H        0.8369913601   -0.8445363106    4.1415905747
H       -2.8135166299    0.3486052138    4.3642118288
H       -2.3835994218    0.4663086138    2.7938482243
22   
torsion grid (135,)
C       -0.3746216399   -0.1585038784    0.1952495206
C        0.2729727885   -0.4861881294    1.3232905532
C        1.8169824049    1.3544368867    2.2997539598
C        0.4505272582    1.9877036304    2.1812370398
C        0.5589885570    0.4995861079    2.4209061082
C        0.8000972202   -1.8855326558    1.5438173134
C        0.2747997411    0.0025332983    3.8305929534
N       -1.9993857147    0.5514593601    3.8583865470
O       -1.0403103198   -0.5279388937    3.9913712407
H       -0.5261086232   -0.8875996407   -0.5972861807
H       -0.7787510847    0.8350916139    0.0244632592
H        2.4016363212    1.2432534420    1.3915759403
H        2.4005026490    1.5351289803    3.1998600795
H        0.0845876277    2.5883454349    3.0075871543
H        0.1478271937    2.3415255472    1.2019112396
H        1.8630102122   -1.8649517369    1.8141076338
H        0.2652114046   -2.3787411622    2.3627607302
H        0.6843772135   -2.4989061200    0.6463708648
H        0.4433273630    0.8101569478    4.5544222965
H        0.9279250503   -0.8378021496    4.0871190994
H       -2.7380893878    0.2586108979    4.5004213496
H       -2.3819356728    0.4282194224    2.9161807025
22   
torsion grid (150,)
C       -0.1156278505   -0.1349724315    0.0736640289
C        0.3032725601   -0.4858481277    1.2996444177
C        1.7489898486    1.4342288988    2.2690468117
C        0.3496566466    1.9888783191    2.1867744878
C        0.5413260822    0.5039982975    2.4075605289
C        0.6589944983   -1.9238708832    1.6054699298
C        0.3176423779   -0.0068965920    3.8216757141
N       -1.9510321418    0.5462056782    4.0055635724
O       -0.9908985936   -0.5394067142    4.0387359296
H       -0.2108069496   -0.8746974060   -0.7172867654
H       -0.3850689156    0.8841083517   -0.1870038336
H        2.3178186516    1.3531954316    1.3482492705
H        2.3407423279    1.6406461329    3.1581325778
H       -0.0315860797    2.5547506355    3.0303425522
H       -0.0031593573    2.3358779828    1.2220600323
H        1.6911021745   -2.0036204077    1.9692413889
H        0.0071010554   -2.3333836372    2.3840455341
H        0.5632880001   -2.5492513148    0.7141638155
H        0.5136309156    0.7943321415    4.5449474473
H        0.9822811385   -0.8468636372    4.0455165312
H       -2.6413060828    0.2411483727    4.6941743782
H       -2.4053119491    0.4507385269    3.0927063564
22   
torsion grid (165,)
C        0.1936919827   -0.1240489968   -0.0059765380
C        0.3598736985   -0.4941166804    1.2744899579
C        1.6538219046    1.5322715133    2.2498842201
C        0.2139770862    1.9618177788    2.1900251810
C        0.5373656089    0.4932141687    2.3999222739
C        0.4820119158   -1.9605483885    1.6272824927
C        0.3652069264   -0.0303136625    3.8153422884
N       -1.8900561949    0.5208460616    4.1567657049
O       -0.9346363773   -0.5662329983    4.0849466364
H        0.1277132420   -0.8667050521   -0.7966261935
H        0.1175007251    0.9139755845   -0.3175695366
H        2.2178836994    1.4942188034    1.3236948499
H        2.2357662008    1.7893824002    3.1320124542
H       -0.2020602641    2.4883623276    3.0424042630
H       -0.1962792888    2.2641831440    1.2324399068
H        1.4635292240   -2.1779872144    2.0671871217
H       -0.2734205412   -2.2582468658    2.3608253121
H        0.3686539814   -2.5839365103    0.7367414522
H        0.5840907289    0.7660693158    4.5365923742
H        1.0400336131   -0.8689561455    4.0111459104
H       -2.5244369783    0.1999786662    4.8905791085
H       -2.4170121630    0.4513664221    3.2816579432
22   
torsion grid (180,)
C        0.5199947055   -0.1425066132   -0.0410119059
C        0.4241361376   -0.5045328565    1.2494996117
C        1.5317534806    1.6339019757    2.2278866939
C        0.0593062341    1.9189280453    2.1579956932
C        0.5314867305    0.4864965974    2.3837811360
C        0.2625908608   -1.9655332749    1.6100106883
C        0.4072967345   -0.0398956436    3.8030118244
N       -1.8284013982    0.4899787157    4.2990239170
O       -0.8769699999   -0.5884624206    4.1272051251
H        0.4584373832   -0.8818479184   -0.8348368680
H        0.6561455193    0.8883757638   -0.3582734878
H        2.1112008593    1.6466342969    1.3108380451
H        2.0754496417    1.9553786447    3.1128079994
H       -0.4085847148    2.4182095482    2.9999245995
H       -0.3791610066    2.1417051315    1.1903250157
H        1.1380369203   -2.3355408652    2.1579801512
H       -0.6052585211   -2.1265257520    2.2557020473
H        0.1531378310   -2.5744871145    0.7090278173
H        0.6407062503    0.7585677579    4.5164792162
H        1.0988740178   -0.8702030193    3.9759619602
H       -2.3947625791    0.1552292134    5.0808867437
H       -2.4299826140    0.4302280204    3.4729086938
