14   
torsion grid (-60,)
C        0.1493467921   -0.2661149901    1.1734915163
C        1.3790143773   -0.2206967775    3.1764043479
C       -0.6196106289   -1.3605106243    1.6043922016
C        1.4191141065   -0.2844193360    1.7789705448
C        0.3586724517   -1.0753601511    3.6515689661
N       -0.5235147270   -1.7431305926    2.9010778038
O        1.1201564718   -0.2945010542    6.0559112327
O        1.0821750651   -2.8061974369    5.3739982064
S        0.2305203553   -1.3330253821    5.4577618261
Cl       2.8066608494    0.3177676952    0.9045677587
H        0.0635286391    0.0828462088    0.1458849664
H        2.1756418069    0.1381945723    3.8201195412
H       -1.4259444868   -1.7865161903    1.0126670470
H        0.8320277567   -3.3306352846    6.1580800157
14   
torsion grid (-45,)
C        0.1877406795   -0.3414082524    1.1123657849
C        1.3751061537   -0.2447445246    3.1703897485
C       -0.6399033472   -1.3474664391    1.6341433331
C        1.4180757485   -0.2217741063    1.7724837758
C        0.3510275905   -1.0648172105    3.6629208084
N       -0.5686509510   -1.6963360917    2.9331155715
O        1.1922062465   -0.3249549744    6.0601751154
O        1.0391908442   -2.8276632457    5.3619372216
S        0.2497557913   -1.3222591323    5.4737841291
Cl       2.7911607601    0.4698525332    0.9450299151
H        0.1001805409   -0.0490514506    0.0691912135
H        2.1639780322    0.1245766113    3.8180153421
H       -1.4552326033   -1.7705495996    1.0518777130
H        0.7928039830   -3.3440734927    6.1525087061
14   
torsion grid (-30,)
C        0.2281431363   -0.4248781859    1.0618556141
C        1.3816218311   -0.2550158513    3.1578147170
C       -0.6562214371   -1.3351022946    1.6545255022
C        1.4095322882   -0.1652736149    1.7641894491
C        0.3515500258   -1.0459619880    3.6682921052
N       -0.6064839601   -1.6394426873    2.9614810614
O        1.2690415280   -0.3464496980    6.0549684084
O        1.0108091531   -2.8373844068    5.3448301762
S        0.2793861467   -1.3049698311    5.4823941798
Cl       2.7555628061    0.6017963980    0.9603620407
H        0.1470254209   -0.1854787435    0.0059614885
H        2.1675785389    0.1225816203    3.8043591298
H       -1.4816907416   -1.7564020294    1.0848837643
H        0.7684589228   -3.3478607076    6.1404819853
14   
torsion grid (-15,)
C        0.2769470499   -0.5053745566    1.0397125392
C        1.3894475797   -0.2596693888    3.1648452836
C       -0.6670792288   -1.3190639431    1.6738385367
C        1.3961219636   -0.1112323573    1.7778863013
C        0.3480631294   -1.0278087908    3.6811833992
N       -0.6434355418   -1.5785977311    2.9893870355
O        1.3238395318   -0.3823708464    6.0625989113
O        0.9688898131   -2.8546938760    5.3307569385
S        0.2929221873   -1.2994004019    5.4952279455
Cl       2.7103555192    0.7276176701    0.9931922953
H        0.2125135978   -0.3114758334   -0.0259013190
H        2.1699315111    0.1229048822    3.8149813837
H       -1.4989270106   -1.7364200754    1.1105705829
H        0.7219420618   -3.3648651585    6.1251706673
14   
torsion grid (0,)
C        0.3154801852   -0.6011947084    1.0080057547
C        1.4014163906   -0.2659541174    3.1391899874
C       -0.6788261670   -1.3170312316    1.6817961694
C        1.3679346954   -0.0714519893    1.7583597307
C        0.3560749736   -1.0118657169    3.6757972073
N       -0.6703724828   -1.5236292157    3.0059593290
O        1.4119483147   -0.4170355914    6.0384827586
O        0.9352936187   -2.8683238420    5.3038099613
S        0.3304804548   -1.2862129549    5.4903240699
Cl       2.6331515068    0.8364763554    0.9703801793
H        0.2647515441   -0.4582104029   -0.0661785526
H        2.1828676447    0.1302049264    3.7799780244
H       -1.5177698389   -1.7362842876    1.1304025497
H        0.6966092532   -3.3676080410    6.1076389527
14   
torsion grid (15,)
C        0.3639203162   -0.6576459854    0.9963964495
C        1.4056995405   -0.2476128090    3.1324946005
C       -0.6880763536   -1.2803054666    1.6761733888
C        1.3325972312   -0.0023923870    1.7609423477
C        0.3489755362   -0.9787545650    3.6700634549
N       -0.7038392796   -1.4447045058    3.0067283882
O        1.4507189271   -0.4530527778    6.0293246031
O        0.8770685659   -2.8748673487    5.2665916423
S        0.3323818796   -1.2742666598    5.4810980629
Cl       2.5470574020    0.9784511695    0.9802579602
H        0.3391662172   -0.5545124985   -0.0834437144
H        2.1816332915    0.1567110039    3.7747254463
H       -1.5283530516   -1.6961506347    1.1245034624
H        0.6400585253   -3.3730324689    6.0716427337
14   
torsion grid (30,)
C        0.4199711053   -0.7492977062    1.0086801954
C        1.4246559902   -0.2545679039    3.1308347793
C       -0.6896316416   -1.2676941250    1.6896422729
C        1.2982685493    0.0295499435    1.7686014827
C        0.3569355395   -0.9639839629    3.6806538086
N       -0.7237944151   -1.3825753998    3.0267117572
O        1.5105394179   -0.4996893037    6.0279799314
O        0.8371317845   -2.8915488102    5.2536539593
S        0.3548409128   -1.2733568405    5.4880594261
Cl       2.4544079991    1.0702528020    0.9772314852
H        0.4207645144   -0.6877022072   -0.0753184980
H        2.2022176148    0.1608303770    3.7638892598
H       -1.5345470786   -1.6777637000    1.1408444917
H        0.5940143805   -3.3866109683    6.0587904307
14   
torsion grid (45,)
C        0.4721253129   -0.8281982886    1.0277014424
C        1.4450490036   -0.2516241103    3.1211410308
C       -0.6954614804   -1.2454430994    1.6873260040
C        1.2471890521    0.0692996059    1.7733032758
C        0.3628966322   -0.9449119124    3.6775139667
N       -0.7426214905   -1.3172476085    3.0306877231
O        1.5639956112   -0.5537472419    6.0114382707
O        0.7919323048   -2.9090997470    5.2187232317
S        0.3725564311   -1.2768252791    5.4786889434
Cl       2.3302871622    1.1729747877    0.9627242852
H        0.5042137052   -0.8021903620   -0.0584472348
H        2.2228609692    0.1754538022    3.7457324859
H       -1.5434523091   -1.6493556052    1.1393438313
H        0.5473359966   -3.4030523615    6.0240906713
14   
torsion grid (60,)
C        0.5202939339   -0.9102981054    1.0645190568
C        1.4739776980   -0.2508814194    3.1117639712
C       -0.7074799532   -1.2181765858    1.6788579825
C        1.1863427036    0.0962004863    1.7853860820
C        0.3670640722   -0.9228433816    3.6739530312
N       -0.7610735499   -1.2478291893    3.0316115359
O        1.5969779003   -0.5940058321    5.9990346923
O        0.7535036785   -2.9173924574    5.1868573597
S        0.3805677304   -1.2763862560    5.4681419172
Cl       2.1837317958    1.2546499528    0.9388165024
H        0.5953118694   -0.9163737998   -0.0215640987
H        2.2510193849    0.1920321836    3.7257175427
H       -1.5595111289   -1.6137544588    1.1320104779
H        0.5075484556   -3.4121473001    5.9913256908
