39   
torsion grid (-90,)
C        2.6353825695   -0.3403124055    1.0345220759
C        1.3899399858   -0.8749937736    1.4528417822
C        2.7380336730    0.6762037310    0.0805894810
C       -0.1589464727    2.1530834654   -1.6120413665
C        0.3026256293    0.6294713451   -0.0325854398
C        0.1999535604   -0.3869258300    0.9247692419
C       -0.7586273809    1.2574660831   -0.7568227317
C        1.5365803003    1.1584048438   -0.4631841938
C       -1.3298558005   -2.2499511088    1.7645550351
C       -2.3825667296   -2.8596942870    2.3936599332
C       -2.1696349616    0.8189588165   -0.4709218003
C       -1.2119873617   -0.8221078935    1.2718455570
C       -2.1529572154   -0.6607395717    0.0195505810
C       -2.6021746549   -2.9116205761    3.8950837519
C       -2.8991646118   -1.9923956645   -1.9007893287
C       -2.8931488068   -4.1396348511    1.7391006420
N        1.2289626810    2.1068968199   -1.4281453543
N       -1.7848316901   -1.6039148600   -1.0385647778
O       -4.1730339969   -3.7936695845    1.1604604761
H        3.5480603436   -0.7396466943    1.4698704033
H        1.3692814297   -1.6735098998    2.1908909542
H        3.7092712472    1.0595790019   -0.2222696659
H       -0.5873519455    2.8290984519   -2.3408435348
H       -1.0302858083   -2.8384138890    0.8896477391
H       -2.6190944507    1.4502906866    0.3073463479
H       -2.8140658069    0.8985496720   -1.3532840980
H       -1.5999136522   -0.1160969533    2.0228454333
H       -3.1563644508   -0.9304982775    0.3580525776
H       -3.6478583016   -3.0891664624    4.1725313584
H       -2.0111327989   -3.7547880328    4.2698247245
H       -2.2567868517   -2.0075554909    4.4083924559
H       -3.6306911794   -2.5473338664   -1.3045364240
H       -3.4212600088   -1.1497269925   -2.3890229046
H       -2.5290595417   -2.6574649084   -2.6882035851
H       -2.2058751884   -4.4788893722    0.9545286464
H       -3.0318494914   -4.9513538617    2.4691824012
H        1.8974516901    2.6494342773   -1.9552021268
H       -1.0269664074   -1.2118073420   -1.5933029181
H       -4.5944207030   -4.6165297931    0.8657624098
39   
torsion grid (-75,)
C        2.6420502504   -0.4238618799    1.0379259572
C        1.3967067820   -0.9844685105    1.4218763485
C        2.7444633570    0.6279823883    0.1230486309
C       -0.1522350947    2.1394624871   -1.5416042977
C        0.3102949870    0.5626771227   -0.0163223379
C        0.2062727146   -0.4897688935    0.9007119530
C       -0.7508134236    1.2073061806   -0.7257668349
C        1.5434223490    1.1180502726   -0.4147802808
C       -1.3188097793   -2.3820174811    1.6981450775
C       -2.2990767173   -2.9050363262    2.4824369329
C       -2.1584221712    0.7418791878   -0.4700618353
C       -1.2067051346   -0.9519101302    1.2189359346
C       -2.1295373997   -0.7581437530   -0.0374562847
C       -2.4223245036   -2.6646802300    3.9762545957
C       -2.7234822467   -1.8510125987   -2.1613906119
C       -2.8005987153   -4.2975903054    2.1250866401
N        1.2347340754    2.0970733588   -1.3480219537
N       -1.7261484581   -1.6702153932   -1.1100497667
O       -4.2393494976   -4.2459991104    2.1989035129
H        3.5537973134   -0.8304329400    1.4684973916
H        1.3767605255   -1.8094696951    2.1300591907
H        3.7149078978    1.0314117595   -0.1552831851
H       -0.5801429085    2.8381368823   -2.2490143791
H       -1.0785783666   -3.0204916507    0.8428766875
H       -2.6200913885    1.3318558472    0.3330952000
H       -2.7982520926    0.8592834115   -1.3506209958
H       -1.6072549745   -0.2722847479    1.9862347092
H       -3.1380435225   -1.0504148419    0.2705930641
H       -3.4431912331   -2.8050504046    4.3456264993
H       -1.7835427650   -3.4044966064    4.4720559326
H       -2.0750782293   -1.6698206879    4.2747136531
H       -3.6270768718   -2.2943634555   -1.7287743018
H       -3.0199535868   -0.9280650005   -2.6891596453
H       -2.3347079788   -2.5521077473   -2.9070129576
H       -2.4789547761   -4.5722432804    1.1133801959
H       -2.4212775971   -5.0505437041    2.8357321985
H        1.9018187505    2.6733406229   -1.8398903242
H       -0.8500000943   -1.3458308725   -1.5147038692
H       -4.5750446212   -5.1471714757    2.0762141966
39   
torsion grid (-60,)
C        2.5855861424   -0.4952237310    1.0435145019
C        1.3351059906   -1.0718055055    1.3846362529
C        2.7031510015    0.5952947204    0.1769509627
C       -0.1651456576    2.1848184832   -1.4623788868
C        0.2725041202    0.5394477783   -0.0036189658
C        0.1546046045   -0.5520524468    0.8648137476
C       -0.7770327483    1.2177444330   -0.6987036148
C        1.5117237611    1.1108377979   -0.3582756230
C       -1.3907024395   -2.4670913735    1.5668890265
C       -2.2811066024   -2.9539368150    2.4610018532
C       -2.1891915187    0.7451359938   -0.4849879081
C       -1.2645342624   -1.0226563993    1.1442846065
C       -2.1688436328   -0.7710350335   -0.1129587356
C       -2.3619504877   -2.5104939710    3.9082793953
C       -2.7284249428   -1.7723860760   -2.2918490124
C       -2.7694613636   -4.3790266061    2.2811229856
N        1.2188134917    2.1317510784   -1.2508455708
N       -1.7504000243   -1.6413369310   -1.2151551060
O       -4.2036567438   -4.3543619722    2.4224120571
H        3.4905646396   -0.9206791122    1.4700668757
H        1.3039149273   -1.9264168260    2.0563646857
H        3.6782652465    1.0091116803   -0.0677644324
H       -0.5818187754    2.9157426652   -2.1434097664
H       -1.1746311490   -3.1135005011    0.7138285490
H       -2.6632604929    1.3030054569    0.3337846153
H       -2.8141890576    0.9001042636   -1.3703625643
H       -1.6698073830   -0.3782151605    1.9375490451
H       -3.1834267870   -1.0720867341    0.1664696756
H       -3.3763194074   -2.5781624201    4.3147108215
H       -1.7267088590   -3.1851462841    4.4943211031
H       -1.9926328285   -1.4910355319    4.0567820369
H       -3.6401994776   -2.2342718447   -1.8973182608
H       -3.0147887072   -0.8258598793   -2.7820756641
H       -2.3261476474   -2.4389097002   -3.0615737547
H       -2.4869703106   -4.7569496607    1.2905566160
H       -2.3345473411   -5.0404976206    3.0482491600
H        1.8937983320    2.7286102546   -1.7060302589
H       -0.8658490219   -1.3044197056   -1.5902974409
H       -4.5183074788   -5.2713736227    2.4195999007
39   
torsion grid (-45,)
C        2.5375249285   -0.5790805533    1.0997092577
C        1.2732477138   -1.1552175768    1.3866801828
C        2.6882236201    0.5394655130    0.2751156594
C       -0.1203751906    2.2144949690   -1.3819105805
C        0.2628597118    0.5140583779    0.0282476054
C        0.1119085579   -0.6064968166    0.8535432776
C       -0.7614677430    1.2274993977   -0.6694243536
C        1.5163218566    1.0851427956   -0.2731577241
C       -1.4668029287   -2.5245918092    1.4537134479
C       -2.2368311644   -3.0125063585    2.4468754122
C       -2.1831064741    0.7622148487   -0.5103508601
C       -1.3198750589   -1.0719568030    1.0790538210
C       -2.1861928621   -0.7661511480   -0.1911025372
C       -2.3073537134   -2.4247843498    3.8392634826
C       -2.6733024962   -1.6624309650   -2.4339783089
C       -2.6766236962   -4.4587272184    2.3851912340
N        1.2569821602    2.1395064736   -1.1367234565
N       -1.7442609665   -1.6051586165   -1.3085719942
O       -4.0980265653   -4.4906719740    2.6198497616
H        3.4268031418   -1.0279264342    1.5352243753
H        1.2166267964   -2.0325907905    2.0264141958
H        3.6732318524    0.9518374407    0.0709420259
H       -0.5120270759    2.9732522270   -2.0471721114
H       -1.2899866194   -3.1831202809    0.6029460634
H       -2.6735660985    1.2951631390    0.3153996336
H       -2.7829181519    0.9560822325   -1.4053037006
H       -1.7371430295   -0.4517318345    1.8833227318
H       -3.2121687261   -1.0653531075    0.0476867177
H       -3.3175338904   -2.4697952461    4.2593645340
H       -1.6577038303   -3.0198248319    4.4930768085
H       -1.9584217740   -1.3893887182    3.8767718829
H       -3.6219327976   -2.0953739957   -2.0976244466
H       -2.8954088568   -0.6909451310   -2.9081231113
H       -2.2626751775   -2.3238616728   -3.2037059929
H       -2.4376466161   -4.8868423516    1.4033909040
H       -2.1617725471   -5.0500168943    3.1600552966
H        1.9491610405    2.7464413421   -1.5509247582
H       -0.8333078054   -1.2822406751   -1.6289509218
H       -4.3640251531   -5.4186246173    2.7093731789
39   
torsion grid (-30,)
C        2.4369585638   -0.7097593292    1.2181905219
C        1.1485099183   -1.2654755195    1.4280128999
C        2.6513475333    0.4267248110    0.4332509693
C       -0.0377070598    2.2092149467   -1.3077524847
C        0.2404771833    0.4625262743    0.0698040002
C        0.0265913238   -0.6767555139    0.8547300959
C       -0.7336624264    1.2181227584   -0.6550032941
C        1.5190337897    1.0129874369   -0.1549031745
C       -1.6136036972   -2.5713249771    1.3361129865
C       -2.1711806979   -3.0643554055    2.4555116169
C       -2.1712124759    0.7824139938   -0.5760794667
C       -1.4258739434   -1.1143264582    1.0000423369
C       -2.2225610646   -0.7531358420   -0.2985275393
C       -2.1338320786   -2.3903941147    3.8073608492
C       -2.6080713913   -1.5671156009   -2.5934659176
C       -2.5660952699   -4.5213107102    2.5074045522
N        1.3242228305    2.0961600516   -0.9994266120
N       -1.7460868315   -1.5748896111   -1.4147115813
O       -3.9288838041   -4.5987549107    2.9677466655
H        3.2943992666   -1.1899801691    1.6831069226
H        1.0423040876   -2.1588664365    2.0382003462
H        3.6535882861    0.8222289218    0.2879719005
H       -0.3803545050    2.9946079545   -1.9691218415
H       -1.5346800274   -3.2190259189    0.4640830703
H       -2.6883383307    1.3044629139    0.2402888730
H       -2.7232453010    1.0146662691   -1.4923028082
H       -1.8634950402   -0.5055047383    1.8008299674
H       -3.2666818728   -1.0328469778   -0.1196102555
H       -3.1136244526   -2.4025528644    4.2961158424
H       -1.4457843620   -2.9447415329    4.4583791112
H       -1.7799675745   -1.3583500823    3.7541942532
H       -3.5891835787   -1.9758813826   -2.3269455578
H       -2.7689330944   -0.5752247967   -3.0495004180
H       -2.1748165975   -2.2201048372   -3.3579326735
H       -2.4668414565   -4.9760035252    1.5132671937
H       -1.9095173299   -5.0653420928    3.2059269004
H        2.0484418416    2.6982309375   -1.3628268011
H       -0.8067830386   -1.2777521087   -1.6717912929
H       -4.1321394804   -5.5305750786    3.1413309703
39   
torsion grid (-15,)
C        2.2322524232   -0.7592852401    1.2744755013
C        0.9273063651   -1.2954153694    1.4245339335
C        2.4968569730    0.3839920004    0.5155184593
C       -0.0892117608    2.2362959172   -1.3059575049
C        0.1025695801    0.4670227124    0.0579362230
C       -0.1616907529   -0.6794955440    0.8173251800
C       -0.8280488801    1.2497718700   -0.6948241589
C        1.3986974550    0.9973775538   -0.1083378486
C       -1.8506851393   -2.5446934220    1.2229467275
C       -2.1322035754   -3.0578829523    2.4311186887
C       -2.2750260634    0.8403519468   -0.6804951639
C       -1.6292552742   -1.0894838302    0.8992221565
C       -2.3666657786   -0.6963857819   -0.4222164323
C       -1.9683778709   -2.3294853333    3.7428529207
C       -2.6519367193   -1.4518020141   -2.7537840526
C       -2.4491422495   -4.5267056627    2.5628415077
N        1.2569465463    2.0942968952   -0.9454912227
N       -1.8661287759   -1.5212977793   -1.5251519699
O       -3.7015161019   -4.6649131299    3.2603248732
H        3.0620578988   -1.2613348808    1.7657493714
H        0.7835487451   -2.1967471839    2.0140255984
H        3.5105121078    0.7641145883    0.4154518469
H       -0.3913539251    3.0360164316   -1.9698890363
H       -1.9001221111   -3.1888546671    0.3469495892
H       -2.8156473824    1.3624590441    0.1204942073
H       -2.7844819116    1.0945489970   -1.6152199413
H       -2.0836850000   -0.4788970680    1.6893720532
H       -3.4236422070   -0.9542183921   -0.2877450402
H       -2.8826395883   -2.3853684629    4.3427026390
H       -1.1742655967   -2.8084218523    4.3305732915
H       -1.6942567457   -1.2808719345    3.6124357384
H       -3.6709913718   -1.8006811355   -2.5518370459
H       -2.7232087261   -0.4489001828   -3.2080680922
H       -2.2138013319   -2.1252659473   -3.4974306976
H       -2.5049023788   -4.9911028880    1.5696613700
H       -1.6514782316   -5.0286471649    3.1347038795
H        2.0055776110    2.6883780406   -1.2705224764
H       -0.8983186170   -1.2711873630   -1.7186610165
H       -3.8182296306   -5.6016801270    3.4806287675
39   
torsion grid (0,)
C        2.1761404753   -0.8257778066    1.3012626131
C        0.8563355523   -1.3271128374    1.4406668453
C        2.4791370077    0.3011728898    0.5326819596
C       -0.0336170150    2.1980158192   -1.3430417752
C        0.0935091970    0.4401744192    0.0438242608
C       -0.2091037734   -0.6910403392    0.8128144397
C       -0.8060525544    1.2387189607   -0.7301433159
C        1.4051263055    0.9351091841   -0.1119449939
C       -1.9442429851   -2.5047667515    1.2187228533
C       -2.0847112165   -3.0252753899    2.4480088991
C       -2.2633459622    0.8686874367   -0.7314785154
C       -1.6899650132   -1.0594455363    0.8787744418
C       -2.3989752518   -0.6612131162   -0.4561747029
C       -2.0129049067   -2.2472006678    3.7383119098
C       -2.6726117575   -1.4338456827   -2.7836195777
C       -2.2942037245   -4.5092224299    2.6098046153
N        1.3034251020    2.0253252742   -0.9634913240
N       -1.9071903454   -1.5135921156   -1.5425839764
O       -3.5043280079   -4.7340442122    3.3570468422
H        2.9864832996   -1.3429725756    1.8090423016
H        0.6835469100   -2.2178800661    2.0376058795
H        3.5032679946    0.6543847441    0.4411294336
H       -0.3063703146    2.9973596957   -2.0200200285
H       -1.9940477138   -3.1643990439    0.3545281197
H       -2.8004797854    1.4143791740    0.0560869004
H       -2.7530249262    1.1260209653   -1.6758796317
H       -2.1370325239   -0.4253567437    1.6547495550
H       -3.4643355347   -0.8888059021   -0.3328856899
H       -2.9481401220   -2.3504706570    4.2980569439
H       -1.2163690797   -2.6466134458    4.3798675292
H       -1.8089098434   -1.1866744911    3.5814858612
H       -3.7057986902   -1.7449049559   -2.5920521052
H       -2.7028272270   -0.4354265502   -3.2520413194
H       -2.2474749492   -2.1321480941   -3.5117597621
H       -2.3502253086   -4.9909528055    1.6248834050
H       -1.4390112547   -4.9411031136    3.1554032322
H        2.0716322653    2.5957906620   -1.2851153865
H       -0.9300541127   -1.2927175884   -1.7249516179
H       -3.5359947181   -5.6723292999    3.5984258676
39   
torsion grid (15,)
C        2.1676290394   -0.9260288209    1.3160134150
C        0.8371368514   -1.3940518196    1.4684245282
C        2.4924359468    0.1883254550    0.5382578983
C        0.0126498224    2.1434628837   -1.3207312666
C        0.1069183551    0.3824500989    0.0654244270
C       -0.2172503531   -0.7369709805    0.8435033965
C       -0.7784934902    1.2042830155   -0.7007052811
C        1.4292930871    0.8445283994   -0.1017597456
C       -1.9801530906   -2.5057115160    1.2663152297
C       -2.0703964585   -3.0376053158    2.4969332046
C       -2.2454713127    0.8755103769   -0.6861705478
C       -1.7077702502   -1.0651677169    0.9235941330
C       -2.4193285090   -0.6491509036   -0.4049569673
C       -2.2329534519   -2.2585629039    3.7783456994
C       -2.7460415184   -1.4240022682   -2.7247627115
C       -2.1367889892   -4.5358221276    2.6508089068
N        1.3481093151    1.9359010334   -0.9538424367
N       -1.9624513778   -1.5154453782   -1.4960592681
O       -3.3463077279   -4.8960076265    3.3433718303
H        2.9687173064   -1.4596458934    1.8214918190
H        0.6471641798   -2.2748738751    2.0745370330
H        3.5240661202    0.5162156724    0.4371737860
H       -0.2457444492    2.9496638977   -1.9951943658
H       -1.9415656395   -3.1766300955    0.4098615350
H       -2.7586394973    1.4385097356    0.1052543284
H       -2.7373614426    1.1437362641   -1.6263783492
H       -2.1287639192   -0.4181045817    1.7034018637
H       -3.4889003262   -0.8481728195   -0.2702222971
H       -3.2087502327   -2.4818593670    4.2207717363
H       -1.4766382429   -2.5522278566    4.5181807252
H       -2.1506468703   -1.1804541660    3.6298631617
H       -3.7813823662   -1.7162912139   -2.5161106658
H       -2.7660523226   -0.4259146906   -3.1946639385
H       -2.3452474784   -2.1308875508   -3.4584253278
H       -2.0950665265   -5.0165630346    1.6647310279
H       -1.2641648119   -4.8751819970    3.2334756246
H        2.1275694948    2.4882989060   -1.2798837934
H       -0.9841561287   -1.3150554534   -1.6949301817
H       -3.2847177725   -5.8328788253    3.5844097884
39   
torsion grid (30,)
C        2.2127070114   -1.0013473579    1.2519490139
C        0.8781053489   -1.4424092115    1.4431895907
C        2.5388431046    0.1052309685    0.4638037617
C        0.0500300391    2.1158817970   -1.3213557020
C        0.1454059131    0.3489898139    0.0574594627
C       -0.1788895907   -0.7636017349    0.8457856854
C       -0.7433551057    1.1927086211   -0.6807226920
C        1.4721600575    0.7833612592   -0.1465374580
C       -1.9425939741   -2.5022912890    1.3089167188
C       -2.0738807321   -3.0293382356    2.5407573957
C       -2.2163603480    0.8989409626   -0.6216357620
C       -1.6734236297   -1.0608970028    0.9666022783
C       -2.4152474950   -0.6219025976   -0.3383379059
C       -2.6049851124   -2.2953345599    3.7477481500
C       -2.8414341256   -1.3898420821   -2.6435710356
C       -1.9527154517   -4.5232973999    2.7131884382
N        1.3906201628    1.8780283523   -0.9941400610
N       -2.0115077566   -1.4935600406   -1.4466030923
O       -3.1701182680   -5.0600325307    3.2617311938
H        3.0165094686   -1.5505598944    1.7359276172
H        0.6872989303   -2.3163342503    2.0588391296
H        3.5738098189    0.4116812388    0.3335939245
H       -0.2101834979    2.9296953222   -1.9858805970
H       -1.7301671330   -3.1836738584    0.4861985958
H       -2.6909353122    1.4715648068    0.1868832273
H       -2.7309046595    1.1812842334   -1.5455176987
H       -2.0573776042   -0.4141726329    1.7656499301
H       -3.4839649867   -0.7983673108   -0.1712486544
H       -3.6014390693   -2.6815717918    3.9812732126
H       -1.9837036638   -2.4640077563    4.6372030346
H       -2.6757295751   -1.2176304478    3.5859267744
H       -3.8702717293   -1.6743334373   -2.3959009581
H       -2.8709628481   -0.3895521938   -3.1085648928
H       -2.4757680366   -2.0971012987   -3.3950197127
H       -1.7198346953   -4.9934534306    1.7488370880
H       -1.1164798423   -4.7296029330    3.4023634390
H        2.1722744645    2.4151317101   -1.3398575516
H       -1.0398687349   -1.3028474938   -1.6840942090
H       -3.0014844384   -5.9779621381    3.5236457861
39   
torsion grid (45,)
C        2.2037082980   -1.0670742413    1.2379412820
C        0.8598439554   -1.4715494636    1.4435383154
C        2.5498334325    0.0268683984    0.4411039105
C        0.0960741930    2.0976601526   -1.3226468540
C        0.1583906994    0.3306413893    0.0585766046
C       -0.1874806683   -0.7705725998    0.8542691177
C       -0.7148395810    1.1974976334   -0.6713942185
C        1.4942842281    0.7294356669   -0.1603906472
C       -1.9770035606   -2.4691565113    1.3323558650
C       -2.0797845309   -2.9874864008    2.5749790143
C       -2.1947156656    0.9475131042   -0.5926550167
C       -1.6884935549   -1.0296832603    0.9891842272
C       -2.4342854292   -0.5661844076   -0.3043739784
C       -2.8481261390   -2.3492859599    3.7085463827
C       -2.9197211632   -1.3254849505   -2.6009803653
C       -1.8021229620   -4.4595928280    2.7646174541
N        1.4331171032    1.8238447889   -1.0098854352
N       -2.0736207006   -1.4506847870   -1.4175397146
O       -2.9725337214   -5.1389486448    3.2519260583
H        2.9975737876   -1.6349262934    1.7168104833
H        0.6544761395   -2.3365074728    2.0664619988
H        3.5907945373    0.3062490734    0.2984734874
H       -0.1495413070    2.9174916221   -1.9853257507
H       -1.6661321655   -3.1516087073    0.5411197536
H       -2.6409394673    1.5349338603    0.2214524770
H       -2.7129154602    1.2442626910   -1.5099500672
H       -2.0478811973   -0.3812266908    1.7994702255
H       -3.5050693491   -0.7106694828   -0.1210839665
H       -3.8097998200   -2.8626157855    3.7935017119
H       -2.3425719298   -2.4568143220    4.6769664873
H       -3.0334399611   -1.2857425538    3.5363203689
H       -3.9513282832   -1.5838227029   -2.3367323330
H       -2.9313284793   -0.3247364468   -3.0659467322
H       -2.5844232982   -2.0417980176   -3.3579924119
H       -1.4609258249   -4.9002262824    1.8186271323
H       -0.9849023611   -4.5623588549    3.4988695392
H        2.2252873505    2.3391486547   -1.3647301241
H       -1.1010979858   -1.2876045805   -1.6715396968
H       -2.7085562503   -6.0300412165    3.5273396717
39   
torsion grid (60,)
C        2.1585285376   -1.1179060816    1.2713627413
C        0.8013447686   -1.4763604193    1.4738674329
C        2.5435849637   -0.0387360346    0.4726771666
C        0.1675498907    2.1118588933   -1.3003989923
C        0.1640835029    0.3446503102    0.0828728384
C       -0.2212022120   -0.7430696181    0.8801546747
C       -0.6758947032    1.2412825288   -0.6503859584
C        1.5137363035    0.6973325442   -0.1328292125
C       -2.0664736690   -2.3818032074    1.3527613198
C       -2.1058588018   -2.9123404229    2.5995008924
C       -2.1637629914    1.0455465220   -0.5748865476
C       -1.7315246474   -0.9484704591    1.0096579162
C       -2.4577219883   -0.4576633450   -0.2846105907
C       -3.0202453813   -2.4268658101    3.7029102035
C       -2.9719540126   -1.2036161284   -2.5795719133
C       -1.6987250922   -4.3604787066    2.7633175529
N        1.4931809204    1.7919535545   -0.9837885937
N       -2.1293109597   -1.3560706619   -1.3968846381
O       -2.7974522467   -5.1636137675    3.2264667539
H        2.9311950870   -1.7110259631    1.7542400550
H        0.5674282302   -2.3314409184    2.0995262237
H        3.5936652856    0.2052338223    0.3319934703
H       -0.0478556270    2.9392302160   -1.9642005550
H       -1.7110602020   -3.0472670618    0.5638756867
H       -2.5899378300    1.6499738005    0.2375209550
H       -2.6687496413    1.3595820760   -1.4938161342
H       -2.0703630829   -0.2892827809    1.8219054143
H       -3.5330298482   -0.5631439457   -0.1017583155
H       -3.9216351114   -3.0437302401    3.6713746508
H       -2.5871948081   -2.5399389466    4.7048500072
H       -3.3078524522   -1.3795226123    3.5670749515
H       -4.0114296107   -1.4265280958   -2.3139191168
H       -2.9501868710   -0.2035938691   -3.0458167980
H       -2.6620352309   -1.9318455215   -3.3360259743
H       -1.3050916922   -4.7477306209    1.8142213639
H       -0.8809006949   -4.3941553853    3.5039595107
H        2.3039531838    2.2787507403   -1.3368710655
H       -1.1520536615   -1.2273209198   -1.6524781559
H       -2.4477691533   -6.0309056146    3.4816664595
39   
torsion grid (75,)
C        2.1240546458   -1.1524893943    1.3024782100
C        0.7578080992   -1.4689623331    1.5122688592
C        2.5374904412   -0.1120388461    0.4677481020
C        0.2233224175    2.0417934009   -1.3800061032
C        0.1693264980    0.3183886373    0.0574167270
C       -0.2452336038   -0.7323049976    0.8899221606
C       -0.6441868491    1.2148151720   -0.7053852217
C        1.5284103164    0.6289652209   -0.1655438690
C       -2.1359693836   -2.3103080231    1.3994255103
C       -2.1105895029   -2.8590103450    2.6482853280
C       -2.1367259291    1.0653875006   -0.6248182296
C       -1.7615502512   -0.8922940386    1.0204144965
C       -2.4737016617   -0.4185241175   -0.2883250376
C       -3.1377559706   -2.5669614971    3.7235895251
C       -3.0163402750   -1.2175754495   -2.5589363476
C       -1.5571703733   -4.2673154777    2.7599926231
N        1.5391244488    1.6961758577   -1.0506256128
N       -2.1752348916   -1.3589668420   -1.3739077087
O       -2.5563283961   -5.2059457289    3.1911590043
H        2.8800300792   -1.7476207004    1.8087362261
H        0.5030121594   -2.2941474187    2.1681448506
H        3.5936326778    0.1005102783    0.3218025799
H        0.0310750213    2.8539347344   -2.0692259041
H       -1.7438824642   -2.9764624481    0.6264804862
H       -2.5443487421    1.7070135545    0.1683554220
H       -2.6327970191    1.3653399294   -1.5532616557
H       -2.0840235118   -0.2004015789    1.8130107111
H       -3.5510824959   -0.4864436313   -0.1006752530
H       -3.9550342598   -3.2767187579    3.5777158231
H       -2.7591930043   -2.7130683995    4.7427877918
H       -3.5383766677   -1.5506524906    3.6426357131
H       -4.0613185020   -1.4000025537   -2.2841543356
H       -2.9654667686   -0.2338037516   -3.0565196459
H       -2.7313693382   -1.9784043734   -3.2927772640
H       -1.1198769065   -4.5755929190    1.8013896580
H       -0.7405401093   -4.2338554365    3.5028173610
H        2.3635134937    2.1500162285   -1.4158691689
H       -1.1952313895   -1.2677480708   -1.6350773194
H       -2.1106578124   -6.0379293532    3.4121562220
39   
torsion grid (90,)
C        2.0784628361   -1.1562409270    1.3869611791
C        0.7001066154   -1.4167400516    1.5932531332
C        2.5356378041   -0.1685780351    0.5122019475
C        0.3161456726    1.9876272051   -1.4430823556
C        0.1867488203    0.3224343248    0.0555315734
C       -0.2722498855   -0.6779637365    0.9268005486
C       -0.5873374302    1.2183239708   -0.7480524768
C        1.5583994672    0.5773212251   -0.1635117784
C       -2.2372262659   -2.1663178167    1.4674537083
C       -2.1432030074   -2.7817126913    2.6928468138
C       -2.0848552331    1.1305155981   -0.6739761291
C       -1.7951599331   -0.7739119801    1.0488085817
C       -2.4802963094   -0.3247274199   -0.2837576789
C       -3.2081767382   -2.7165221654    3.7733502906
C       -3.0533270533   -1.1928193586   -2.5210980791
C       -1.4841952928   -4.1545947876    2.6908724508
N        1.6157732098    1.6085728291   -1.0882743037
N       -2.2124736648   -1.3137940620   -1.3336676409
O       -2.3950574197   -5.2053811564    3.0523877812
H        2.8079397266   -1.7525294207    1.9294386327
H        0.4125830345   -2.1992909160    2.2856939214
H        3.5997381881    0.0027939920    0.3700122453
H        0.1592286988    2.7802817483   -2.1631927376
H       -1.8409253595   -2.8185315972    0.6820770021
H       -2.4719446069    1.8180636788    0.0904430451
H       -2.5630739485    1.4124234899   -1.6173550691
H       -2.0939656761   -0.0335896918    1.8069455776
H       -3.5602477565   -0.3447285488   -0.1009383301
H       -3.9549382961   -3.4693250964    3.5129887938
H       -2.8332255785   -2.9624812272    4.7739987326
H       -3.6982688686   -1.7372165030    3.8129233830
H       -4.1019291432   -1.3362709895   -2.2373222155
H       -2.9772523277   -0.2296721691   -3.0546547357
H       -2.7917661498   -1.9876110253   -3.2271099497
H       -1.0282168362   -4.3537336339    1.7128625614
H       -0.6675524768   -4.1070010916    3.4337629280
H        2.4592573098    2.0197307529   -1.4604043352
H       -1.2310745403   -1.2611920658   -1.6001676415
H       -1.8792051214   -6.0149524752    3.1875629178
