
  -OEChem-05262117483D

 33 33  0     1  0  0  0  0  0999 V2000
   -1.8135    1.0286    5.5167 C   0  0  0  0  0  0  0  0  0  0  0  0
   -0.8759    0.9371    6.5591 C   0  0  0  0  0  0  0  0  0  0  0  0
   -0.6052   -0.6489    4.2866 C   0  0  0  0  0  0  0  0  0  0  0  0
   -1.6924    0.2429    4.3741 C   0  0  0  0  0  0  0  0  0  0  0  0
    0.1980    0.0533    6.4710 C   0  0  0  0  0  0  0  0  0  0  0  0
    0.3341   -0.7529    5.3110 C   0  0  0  0  0  0  0  0  0  0  0  0
   -5.8452   -1.9265    2.4366 C   0  0  0  0  0  0  0  0  0  0  0  0
    1.0666    0.6862    8.5986 C   0  0  0  0  0  0  0  0  0  0  0  0
    1.5977   -2.4091    4.1496 C   0  0  0  0  0  0  0  0  0  0  0  0
   -2.7193    0.2882    3.2656 C   0  0  0  0  0  0  0  0  0  0  0  0
   -3.7575   -0.8417    3.3854 C   0  0  0  0  0  0  0  0  0  0  0  0
   -4.7687   -0.8579    2.2423 C   0  0  1  0  0  0  0  0  0  0  0  0
   -4.0225   -1.0904    1.0328 O   0  0  0  0  0  0  0  0  0  0  0  0
    1.1650   -0.1098    7.4259 O   0  0  0  0  0  0  0  0  0  0  0  0
    1.4164   -1.5886    5.2964 O   0  0  0  0  0  0  0  0  0  0  0  0
   -2.6416    1.7276    5.6084 H   0  0  0  0  0  0  0  0  0  0  0  0
   -0.9950    1.5660    7.4342 H   0  0  0  0  0  0  0  0  0  0  0  0
   -0.5060   -1.2598    3.3952 H   0  0  0  0  0  0  0  0  0  0  0  0
   -5.3890   -2.9200    2.4986 H   0  0  0  0  0  0  0  0  0  0  0  0
   -6.4144   -1.7462    3.3551 H   0  0  0  0  0  0  0  0  0  0  0  0
   -6.5560   -1.9282    1.6010 H   0  0  0  0  0  0  0  0  0  0  0  0
    1.9194    0.4086    9.2200 H   0  0  0  0  0  0  0  0  0  0  0  0
    0.1372    0.4830    9.1465 H   0  0  0  0  0  0  0  0  0  0  0  0
    1.1220    1.7573    8.3642 H   0  0  0  0  0  0  0  0  0  0  0  0
    2.5040   -2.9870    4.3373 H   0  0  0  0  0  0  0  0  0  0  0  0
    1.7321   -1.8072    3.2418 H   0  0  0  0  0  0  0  0  0  0  0  0
    0.7526   -3.0949    4.0078 H   0  0  0  0  0  0  0  0  0  0  0  0
   -3.2382    1.2541    3.2847 H   0  0  0  0  0  0  0  0  0  0  0  0
   -2.2308    0.2100    2.2896 H   0  0  0  0  0  0  0  0  0  0  0  0
   -4.2954   -0.7432    4.3357 H   0  0  0  0  0  0  0  0  0  0  0  0
   -3.2453   -1.8112    3.4092 H   0  0  0  0  0  0  0  0  0  0  0  0
   -5.2516    0.1313    2.1832 H   0  0  0  0  0  0  0  0  0  0  0  0
   -4.6465   -1.0943    0.2903 H   0  0  0  0  0  0  0  0  0  0  0  0
  1  2  1  0  0  0  0
  1  4  2  0  0  0  0
  1 16  1  0  0  0  0
  2  5  2  0  0  0  0
  2 17  1  0  0  0  0
  3  4  1  0  0  0  0
  3  6  2  0  0  0  0
  3 18  1  0  0  0  0
  4 10  1  0  0  0  0
  5  6  1  0  0  0  0
  5 14  1  0  0  0  0
  6 15  1  0  0  0  0
  7 12  1  0  0  0  0
  7 19  1  0  0  0  0
  7 20  1  0  0  0  0
  7 21  1  0  0  0  0
  8 14  1  0  0  0  0
  8 22  1  0  0  0  0
  8 23  1  0  0  0  0
  8 24  1  0  0  0  0
  9 15  1  0  0  0  0
  9 25  1  0  0  0  0
  9 26  1  0  0  0  0
  9 27  1  0  0  0  0
 10 11  1  0  0  0  0
 10 28  1  0  0  0  0
 10 29  1  0  0  0  0
 11 12  1  0  0  0  0
 11 30  1  0  0  0  0
 11 31  1  0  0  0  0
 12 13  1  0  0  0  0
 12 32  1  0  0  0  0
 13 33  1  0  0  0  0
M  END
$$$$
