30
1 1 C11H15N2O2
C                    -0.720623995009     2.203854253743     0.190704951974
C                    -2.080610585329     2.143119177663     0.270775157895
C                    -0.261910852230     0.839432285255     0.296488794038
C                    -1.380018524837     0.061199085117     0.424352565801
C                     2.358612388301     1.286383739554    -1.622348777793
C                    -1.459688969126    -1.416861551486     0.586768656612
C                    -0.098081069793    -2.021597107927     0.192300828731
C                     1.077734727040    -1.217885168118     0.774919571822
C                     3.647974739371     3.186131201177    -1.896090545466
C                     3.364197655075     2.511010604169    -3.250337060621
C                     1.111779750355     0.242474930006     0.280778311128
N                     2.736909222095     2.422226288950    -1.024517412295
N                     1.696033693360     0.279316422041    -1.098419211142
O                    -2.494668595883     0.841301603752     0.414073282609
O                     2.736715162229     1.228310027961    -2.890853508561
H                    -0.136990358821     3.109292172471     0.082747948443
H                    -2.864242012153     2.886439450943     0.248337816617
H                    -1.698906495894    -1.664579294123     1.628977246242
H                    -2.264430682495    -1.832543172975    -0.027390085422
H                    -0.033679626451    -3.055346159540     0.541531884549
H                    -0.026877376206    -2.065629012275    -0.902888962064
H                     0.988288120083    -1.186913225035     1.865655447371
H                     2.032691895536    -1.701247464746     0.546025461626
H                     4.685196008419     3.064562796684    -1.571660670818
H                     3.386130727515     4.244953515715    -1.898324001385
H                     2.642340068612     3.057788788627    -3.858391743530
H                     4.255692966118     2.279557879826    -3.829616700805
H                     1.806060044374     0.803987434757     0.914904999570
H                     2.641773499740     2.586621735367    -0.030447946517
H                     1.388294851120    -0.430759012660    -1.757877623243
