30
1 1 C11H15N2O2
C                    -0.040824391937     1.918921652798    -0.304685188104
C                    -1.382307131605     2.159179668965    -0.269773594772
C                     0.105374592285     0.505054275930    -0.057436100680
C                    -1.156273838078    -0.000017330554     0.102785322901
C                     3.124437779876    -0.898295582165    -1.603706764262
C                    -1.552955801619    -1.402438741941     0.407430981467
C                    -0.340790732225    -2.316432408394     0.140925018929
C                     0.963330133121    -1.717087347360     0.693788302092
C                     5.298912188968    -1.665104386085    -1.430003085418
C                     4.958588339212    -1.288589646508    -2.883761893634
C                     1.319027485740    -0.361582602259     0.044524695334
N                     4.113850671412    -1.131977645428    -0.733239733173
N                     1.887272087714    -0.546747407511    -1.330982329194
O                    -2.073031624649     0.995757218282    -0.020371317029
O                     3.506713327782    -1.039672095089    -2.863633093229
H                     0.735117380919     2.655009343634    -0.471448559661
H                    -1.986209588488     3.046634913091    -0.390990884894
H                    -1.868810169063    -1.480027688839     1.455752351063
H                    -2.410040994113    -1.705967460877    -0.201729613019
H                    -0.509608697804    -3.296690624146     0.594302160969
H                    -0.238415061278    -2.482954194679    -0.938202878245
H                     0.865447531241    -1.546099776385     1.771777293489
H                     1.786617385724    -2.428380397656     0.557921508200
H                     5.379268796179    -2.745418820276    -1.280604161311
H                     6.208986276865    -1.177645929757    -1.078129207483
H                     5.434266776363    -0.362110467110    -3.207958443466
H                     5.136631313518    -2.083188456235    -3.605381445605
H                     2.096867819425     0.145731138650     0.627597805853
H                     3.963039950133    -1.226761004555     0.263255174016
H                     1.282058012196    -0.354513789578    -2.124640410010
