33
0 1 C12H18O3
C                    -1.885160464264     1.104485037214     5.601702721571
C                    -0.998891090392     1.026196459834     6.682409847586
C                    -0.652161412914    -0.640988582251     4.482950934463
C                    -1.723757419722     0.268020811681     4.494748326529
C                     0.062403307237     0.125491020527     6.674131510430
C                     0.245348483970    -0.716282212414     5.553015544757
C                    -5.588989688885     0.464839099257     2.084345174117
C                     0.919095940201    -1.057409781809     8.543818658425
C                     1.580919610389    -2.377067480565     4.465501802784
C                    -2.708765223193     0.295448987278     3.347191402388
C                    -3.848575463938    -0.723006821779     3.535033077019
C                    -4.808610331192    -0.818088959650     2.342972264792
O                    -5.792781695997    -1.843130267967     2.565781239239
O                     0.949564159497     0.122334997059     7.728670056070
O                     1.326592798939    -1.556482280885     5.600009661419
H                    -2.704123000237     1.819495097030     5.625893507412
H                    -1.108227367864     1.673784887338     7.548013867112
H                    -0.520816681709    -1.280409487599     3.615695871456
H                    -6.134606847959     0.766413143412     2.984974962249
H                    -4.923377035784     1.280051075874     1.787141096534
H                    -6.314158908667     0.303852490721     1.281648926462
H                     1.635949785714    -0.887325706837     9.349904963461
H                     1.211217111922    -1.943457377513     7.972421102211
H                    -0.081838478029    -1.203971289463     8.969891986805
H                     2.487944706200    -2.936244583408     4.699470055667
H                     1.748935338024    -1.772654293589     3.565660356401
H                     0.757853670279    -3.079963795595     4.284609621957
H                    -3.129126972602     1.301824262711     3.255499914576
H                    -2.188856344989     0.084647525292     2.403965886273
H                    -4.422915287778    -0.476942556838     4.435999929868
H                    -3.402973945995    -1.712674565059     3.709804529639
H                    -4.225087795760    -1.066233176785     1.440667006358
H                    -5.325531755329    -2.665696410785     2.781433880387
