
  -OEChem-05262117483D

 54 56  0     0  0  0  0  0  0999 V2000
   -3.5363   -2.4435   -6.9522 C   0  0  0  0  0  0  0  0  0  0  0  0
   -3.7381   -1.1400   -6.5146 C   0  0  0  0  0  0  0  0  0  0  0  0
   -2.3134   -3.0914   -6.7188 C   0  0  0  0  0  0  0  0  0  0  0  0
   -1.4551   -1.0564   -5.6535 C   0  0  0  0  0  0  0  0  0  0  0  0
   -2.7125   -0.4570   -5.8552 C   0  0  0  0  0  0  0  0  0  0  0  0
   -1.2774   -2.3924   -6.0767 C   0  0  0  0  0  0  0  0  0  0  0  0
   -1.6724   -5.7112   -9.2657 C   0  0  0  0  0  0  0  0  0  0  0  0
   -4.0629   -5.7118   -8.3122 C   0  0  0  0  0  0  0  0  0  0  0  0
   -2.1785   -4.5314   -7.1206 C   0  0  0  0  0  0  0  0  0  0  0  0
   -1.4988   -7.1865   -8.9450 C   0  0  0  0  0  0  0  0  0  0  0  0
   -3.9922   -7.2167   -8.4699 C   0  0  0  0  0  0  0  0  0  0  0  0
   -2.6217   -7.7930   -8.0895 C   0  0  0  0  0  0  0  0  0  0  0  0
    3.2900    0.9694   -3.1573 C   0  0  0  0  0  0  0  0  0  0  0  0
    2.6443    1.1852   -1.7575 C   0  0  0  0  0  0  0  0  0  0  0  0
    2.2839    0.1090   -3.9444 C   0  0  0  0  0  0  0  0  0  0  0  0
    1.1807    0.6799   -1.8787 C   0  0  0  0  0  0  0  0  0  0  0  0
   -2.7485   -4.9247   -8.5005 C   0  0  0  0  0  0  0  0  0  0  0  0
    0.9223    0.5589   -3.3930 C   0  0  0  0  0  0  0  0  0  0  0  0
   -4.4569    2.2008   -3.0978 C   0  0  0  0  0  0  0  0  0  0  0  0
   -0.2291   -0.3670   -3.7188 C   0  0  0  0  0  0  0  0  0  0  0  0
   -4.0200    0.8851   -3.7384 C   0  0  0  0  0  0  0  0  0  0  0  0
   -1.0066   -5.1450  -10.1124 O   0  0  0  0  0  0  0  0  0  0  0  0
   -5.0993   -5.1166   -8.0745 O   0  0  0  0  0  0  0  0  0  0  0  0
   -1.6514   -5.3606   -6.4000 O   0  0  0  0  0  0  0  0  0  0  0  0
   -1.9178    1.9896   -4.9656 O   0  0  0  0  0  0  0  0  0  0  0  0
   -4.1094    1.7551   -6.2524 O   0  0  0  0  0  0  0  0  0  0  0  0
   -0.3977   -0.3711   -5.1565 O   0  0  0  0  0  0  0  0  0  0  0  0
   -3.1268    1.2250   -5.2927 S   0  0  0  0  0  0  0  0  0  0  0  0
    0.3005   -3.0968   -5.8491 Cl  0  0  0  0  0  0  0  0  0  0  0  0
   -4.3376   -2.9768   -7.4549 H   0  0  0  0  0  0  0  0  0  0  0  0
   -4.6799   -0.6351   -6.7039 H   0  0  0  0  0  0  0  0  0  0  0  0
   -1.4104   -7.6957   -9.9109 H   0  0  0  0  0  0  0  0  0  0  0  0
   -0.5282   -7.2940   -8.4490 H   0  0  0  0  0  0  0  0  0  0  0  0
   -4.8098   -7.6552   -7.8924 H   0  0  0  0  0  0  0  0  0  0  0  0
   -4.2066   -7.4222   -9.5297 H   0  0  0  0  0  0  0  0  0  0  0  0
   -2.4265   -7.5990   -7.0331 H   0  0  0  0  0  0  0  0  0  0  0  0
   -2.6358   -8.8788   -8.2218 H   0  0  0  0  0  0  0  0  0  0  0  0
    3.4228    1.9325   -3.6618 H   0  0  0  0  0  0  0  0  0  0  0  0
    4.2780    0.5034   -3.0961 H   0  0  0  0  0  0  0  0  0  0  0  0
    3.1815    0.6389   -0.9764 H   0  0  0  0  0  0  0  0  0  0  0  0
    2.6715    2.2422   -1.4764 H   0  0  0  0  0  0  0  0  0  0  0  0
    2.3633    0.2293   -5.0276 H   0  0  0  0  0  0  0  0  0  0  0  0
    2.4313   -0.9560   -3.7198 H   0  0  0  0  0  0  0  0  0  0  0  0
    1.0848   -0.3091   -1.4119 H   0  0  0  0  0  0  0  0  0  0  0  0
    0.4625    1.3407   -1.3831 H   0  0  0  0  0  0  0  0  0  0  0  0
   -2.9695   -4.0240   -9.0734 H   0  0  0  0  0  0  0  0  0  0  0  0
    0.6753    1.5451   -3.8035 H   0  0  0  0  0  0  0  0  0  0  0  0
   -3.5929    2.8262   -2.8612 H   0  0  0  0  0  0  0  0  0  0  0  0
   -5.1211    2.7576   -3.7631 H   0  0  0  0  0  0  0  0  0  0  0  0
   -4.9959    1.9879   -2.1699 H   0  0  0  0  0  0  0  0  0  0  0  0
   -1.1533   -0.0118   -3.2492 H   0  0  0  0  0  0  0  0  0  0  0  0
   -0.0283   -1.3916   -3.3790 H   0  0  0  0  0  0  0  0  0  0  0  0
   -4.8682    0.2500   -4.0062 H   0  0  0  0  0  0  0  0  0  0  0  0
   -3.3380    0.3194   -3.0988 H   0  0  0  0  0  0  0  0  0  0  0  0
  1  2  1  0  0  0  0
  1  3  2  0  0  0  0
  1 30  1  0  0  0  0
  2  5  2  0  0  0  0
  2 31  1  0  0  0  0
  3  6  1  0  0  0  0
  3  9  1  0  0  0  0
  4  5  1  0  0  0  0
  4  6  2  0  0  0  0
  4 27  1  0  0  0  0
  5 28  1  0  0  0  0
  6 29  1  0  0  0  0
  7 10  1  0  0  0  0
  7 17  1  0  0  0  0
  7 22  2  0  0  0  0
  8 11  1  0  0  0  0
  8 17  1  0  0  0  0
  8 23  2  0  0  0  0
  9 17  1  0  0  0  0
  9 24  2  0  0  0  0
 10 12  1  0  0  0  0
 10 32  1  0  0  0  0
 10 33  1  0  0  0  0
 11 12  1  0  0  0  0
 11 34  1  0  0  0  0
 11 35  1  0  0  0  0
 12 36  1  0  0  0  0
 12 37  1  0  0  0  0
 13 14  1  0  0  0  0
 13 15  1  0  0  0  0
 13 38  1  0  0  0  0
 13 39  1  0  0  0  0
 14 16  1  0  0  0  0
 14 40  1  0  0  0  0
 14 41  1  0  0  0  0
 15 18  1  0  0  0  0
 15 42  1  0  0  0  0
 15 43  1  0  0  0  0
 16 18  1  0  0  0  0
 16 44  1  0  0  0  0
 16 45  1  0  0  0  0
 17 46  1  0  0  0  0
 18 20  1  0  0  0  0
 18 47  1  0  0  0  0
 19 21  1  0  0  0  0
 19 48  1  0  0  0  0
 19 49  1  0  0  0  0
 19 50  1  0  0  0  0
 20 27  1  0  0  0  0
 20 51  1  0  0  0  0
 20 52  1  0  0  0  0
 21 28  1  0  0  0  0
 21 53  1  0  0  0  0
 21 54  1  0  0  0  0
 25 28  2  0  0  0  0
 26 28  2  0  0  0  0
M  END
$$$$
