29
0 1 C11H14N2O2
C                    -0.786051788134    -1.693518334158     0.526375651265
C                    -2.095167615382    -1.307913049782     0.525290012466
C                    -0.030054233381    -0.535523103780     0.124184275615
C                    -0.936238053846     0.458915209097    -0.092346233483
C                     1.997647769772    -0.801372743700     2.328894563456
C                    -0.663566779920     1.864365398000    -0.500899372268
C                     0.782793734008     1.928060500893    -1.036772833696
C                     1.768163023724     1.179565557131    -0.123941663739
C                     1.366711199685    -0.113969673752     4.324340654400
C                     2.228236178393    -1.392771663863     4.486854087359
C                     1.454122384710    -0.328543502487    -0.043444343016
N                     1.422271356570     0.196249300364     2.890027484103
N                     2.259266352136    -0.993175997683     0.997346094024
O                    -2.209282638239     0.008416859875     0.145459099230
O                     2.446436225715    -1.837066653856     3.121050310172
H                    -0.410193180672    -2.672184520271     0.796941932332
H                    -3.022922688660    -1.813059704178     0.752292965022
H                    -1.377728510458     2.198315567550    -1.262267916957
H                    -0.776617188189     2.535196315201     0.361465103751
H                     0.809638243018     1.496228279807    -2.045591574315
H                     1.093496989940     2.973840232345    -1.130984861355
H                     2.794947537025     1.306607400266    -0.482979167036
H                     1.715822058191     1.590577200319     0.887430060583
H                     0.325758585706    -0.278129731562     4.629988950320
H                     1.757600556639     0.719527603330     4.917143285908
H                     3.206468264565    -1.195924520254     4.936908599779
H                     1.734720833796    -2.202600093170     5.028293879198
H                     1.778934208885    -0.798690831262    -0.980190242939
H                     2.541521475148    -1.942868620240     0.791230919580
