60
-1 1 C26H28NO5
C                     3.134374129778     7.174598375580    -2.420510982189
C                     2.610849261982     6.438364774712    -1.351572894925
C                    -2.173889356059     2.399079045860    -4.829247924902
C                     2.663517751166     6.985903450322    -3.716981072217
C                    -1.718009602695     2.012450570888    -3.565248212022
C                     1.109094392973     5.304133146580    -2.911655544089
C                    -3.773361003977     2.810495271485    -2.541240032249
C                     1.595023855253     5.505751627093    -1.605724278837
C                    -3.426939577517     3.011269555593    -4.952567207448
C                    -4.210295710482     3.206904301295    -3.808439282839
C                     1.645936142861     6.042764698103    -3.973756518914
C                    -2.510140425164     2.215100438952    -2.426673600064
C                    -0.178437608211     3.375041819065     0.666120986021
C                     0.739069022323     3.948075109663     1.500440636239
C                     1.003621971697     4.713518218330    -0.532000064166
C                    -2.299683108285     3.118556472606    -7.909409574564
C                    -5.532629648895     3.843291370193    -4.181518979680
C                    -5.245341214510     4.422355608792    -5.585655094567
C                    -4.148198003084     3.509405548591    -6.198707480515
C                     1.057133635974     3.836419427309     2.949375607881
C                    -3.256433451969     5.497624317113    -9.455318471438
C                     0.268762829258     4.914875814478    -5.584046819188
C                    -1.262820579052     2.378032424625     0.972002167539
C                    -4.108381672566     4.824012245579    -8.372043550050
C                    -2.410290511752     2.435499720302    -0.037769361940
C                    -3.261613313679     4.174687836360    -7.264510245724
N                     0.006500867948     3.879522757947    -0.617227763477
O                    -2.870185100863     2.138429640973    -8.458452028930
O                    -1.057630035948     3.354754810549    -7.815003889213
O                     1.511095577042     4.811617904577     0.740826081166
O                     1.258307046702     5.919633241716    -5.264660781249
O                    -1.982859214106     1.779050193946    -1.224779982041
H                     3.921196394639     7.903345494777    -2.239284525410
H                     2.978265079886     6.583503457140    -0.340850142951
H                    -1.547065016785     2.254276242790    -5.704029925177
H                     3.066553926483     7.548997898594    -4.554115389559
H                    -0.736819347122     1.563731823459    -3.435637224112
H                     0.323652179943     4.573814201730    -3.065141197959
H                    -4.405503854683     2.959286054557    -1.669421090972
H                    -6.317573350534     3.074242892521    -4.232150046644
H                    -5.868586209715     4.598920585857    -3.460838378585
H                    -6.142278224146     4.486204998593    -6.208961834169
H                    -4.841966042981     5.437961777403    -5.478932518590
H                    -4.619724552882     2.646246645285    -6.689909680397
H                     2.064010973577     3.433377653298     3.112475496191
H                     1.004156816396     4.810927831036     3.449185817030
H                     0.342649065003     3.164455123650     3.431774653816
H                    -2.597012717285     4.769734470288    -9.936297486204
H                    -3.887271182336     5.956598301922   -10.228086006546
H                    -2.621588252001     6.282440513502    -9.025619400731
H                     0.111077677962     4.926057942785    -6.659848964596
H                    -0.676220899306     5.126154403804    -5.073801023774
H                     0.623555315305     3.921649148077    -5.293210357441
H                    -0.861518951380     1.357144416564     0.967024615568
H                    -1.658212509096     2.560336788924     1.978599644482
H                    -4.792895847702     5.568510499081    -7.941451577468
H                    -4.724495936064     4.040406663770    -8.829583522828
H                    -3.297794112091     1.930994042386     0.372284031280
H                    -2.671933351600     3.477583487611    -0.250793627508
H                    -2.653087340254     4.951991859526    -6.782009904687
