
  -OEChem-05262117483D

 61 64  0     1  0  0  0  0  0999 V2000
   -9.1396    4.1353   -4.8454 C   0  0  0  0  0  0  0  0  0  0  0  0
   -7.8080    4.0339   -4.4541 C   0  0  0  0  0  0  0  0  0  0  0  0
   -1.7329   -1.7747   -1.4156 C   0  0  0  0  0  0  0  0  0  0  0  0
  -10.1608    4.3312   -3.9064 C   0  0  0  0  0  0  0  0  0  0  0  0
   -1.8711   -0.3910   -1.5200 C   0  0  0  0  0  0  0  0  0  0  0  0
   -8.4946    4.3274   -2.1391 C   0  0  0  0  0  0  0  0  0  0  0  0
   -2.9106   -0.2996    0.6769 C   0  0  0  0  0  0  0  0  0  0  0  0
   -7.4837    4.1311   -3.0868 C   0  0  0  0  0  0  0  0  0  0  0  0
   -2.2045   -2.4358   -0.2746 C   0  0  0  0  0  0  0  0  0  0  0  0
   -2.7709   -1.6871    0.7623 C   0  0  0  0  0  0  0  0  0  0  0  0
   -9.8304    4.4269   -2.5459 C   0  0  0  0  0  0  0  0  0  0  0  0
   -2.4664    0.3488   -0.4843 C   0  0  0  0  0  0  0  0  0  0  0  0
   -4.2565    3.9407   -1.5322 C   0  0  0  0  0  0  0  0  0  0  0  0
   -3.9385    3.7683   -2.8488 C   0  0  0  0  0  0  0  0  0  0  0  0
   -6.1003    4.0264   -2.6318 C   0  0  0  0  0  0  0  0  0  0  0  0
   -1.5718   -4.8148   -2.1964 C   0  0  0  0  0  0  0  0  0  0  0  0
   -3.1254   -2.5794    1.9305 C   0  0  0  0  0  0  0  0  0  0  0  0
   -3.1319   -3.9901    1.3020 C   0  0  0  0  0  0  0  0  0  0  0  0
   -2.1710   -3.9169    0.0832 C   0  0  1  0  0  0  0  0  0  0  0  0
   -2.6818    3.5149   -3.6002 C   0  0  0  0  0  0  0  0  0  0  0  0
   -3.1063   -7.3205   -1.6760 C   0  0  0  0  0  0  0  0  0  0  0  0
  -12.1148    4.7284   -1.8987 C   0  0  0  0  0  0  0  0  0  0  0  0
   -3.3710    3.9029   -0.3253 C   0  0  0  0  0  0  0  0  0  0  0  0
   -2.6646   -6.3466   -0.5779 C   0  0  0  0  0  0  0  0  0  0  0  0
   -3.2551    2.4971    0.2612 C   0  0  0  0  0  0  0  0  0  0  0  0
   -2.5812   -4.8800   -1.0517 C   0  0  2  0  0  0  0  0  0  0  0  0
   -5.6365    4.0970   -1.4133 N   0  0  0  0  0  0  0  0  0  0  0  0
   -0.3898   -5.0347   -2.0582 O   0  0  0  0  0  0  0  0  0  0  0  0
   -5.1181    3.8284   -3.5663 O   0  0  0  0  0  0  0  0  0  0  0  0
   -2.0620   -4.5150   -3.4360 O   0  0  0  0  0  0  0  0  0  0  0  0
  -10.7415    4.6170   -1.5409 O   0  0  0  0  0  0  0  0  0  0  0  0
   -2.5583    1.6985   -0.6983 O   0  0  0  0  0  0  0  0  0  0  0  0
   -9.3979    4.0618   -5.8986 H   0  0  0  0  0  0  0  0  0  0  0  0
   -7.0243    3.8818   -5.1882 H   0  0  0  0  0  0  0  0  0  0  0  0
   -1.2473   -2.3103   -2.2248 H   0  0  0  0  0  0  0  0  0  0  0  0
  -11.1884    4.4060   -4.2429 H   0  0  0  0  0  0  0  0  0  0  0  0
   -1.5224    0.1411   -2.4004 H   0  0  0  0  0  0  0  0  0  0  0  0
   -8.2484    4.4034   -1.0852 H   0  0  0  0  0  0  0  0  0  0  0  0
   -3.3539    0.2534    1.4983 H   0  0  0  0  0  0  0  0  0  0  0  0
   -2.3526   -2.5002    2.7066 H   0  0  0  0  0  0  0  0  0  0  0  0
   -4.0800   -2.3208    2.4003 H   0  0  0  0  0  0  0  0  0  0  0  0
   -2.8534   -4.7719    2.0130 H   0  0  0  0  0  0  0  0  0  0  0  0
   -4.1444   -4.2145    0.9445 H   0  0  0  0  0  0  0  0  0  0  0  0
   -1.1541   -4.1958    0.3892 H   0  0  0  0  0  0  0  0  0  0  0  0
   -2.7223    2.5489   -4.1159 H   0  0  0  0  0  0  0  0  0  0  0  0
   -2.4982    4.2915   -4.3511 H   0  0  0  0  0  0  0  0  0  0  0  0
   -1.8407    3.4867   -2.9056 H   0  0  0  0  0  0  0  0  0  0  0  0
   -4.0875   -7.0449   -2.0812 H   0  0  0  0  0  0  0  0  0  0  0  0
   -3.1872   -8.3379   -1.2806 H   0  0  0  0  0  0  0  0  0  0  0  0
   -2.3937   -7.3462   -2.5065 H   0  0  0  0  0  0  0  0  0  0  0  0
  -12.6557    4.8749   -0.9628 H   0  0  0  0  0  0  0  0  0  0  0  0
  -12.4772    3.8155   -2.3878 H   0  0  0  0  0  0  0  0  0  0  0  0
  -12.2892    5.5890   -2.5567 H   0  0  0  0  0  0  0  0  0  0  0  0
   -2.3676    4.2662   -0.5676 H   0  0  0  0  0  0  0  0  0  0  0  0
   -3.7878    4.5642    0.4408 H   0  0  0  0  0  0  0  0  0  0  0  0
   -1.6812   -6.6379   -0.1935 H   0  0  0  0  0  0  0  0  0  0  0  0
   -3.3670   -6.4008    0.2591 H   0  0  0  0  0  0  0  0  0  0  0  0
   -2.6971    2.5167    1.2071 H   0  0  0  0  0  0  0  0  0  0  0  0
   -4.2532    2.0819    0.4462 H   0  0  0  0  0  0  0  0  0  0  0  0
   -3.5752   -4.5724   -1.4079 H   0  0  0  0  0  0  0  0  0  0  0  0
   -3.0136   -4.3299   -3.3699 H   0  0  0  0  0  0  0  0  0  0  0  0
  1  2  1  0  0  0  0
  1  4  2  0  0  0  0
  1 33  1  0  0  0  0
  2  8  2  0  0  0  0
  2 34  1  0  0  0  0
  3  5  2  0  0  0  0
  3  9  1  0  0  0  0
  3 35  1  0  0  0  0
  4 11  1  0  0  0  0
  4 36  1  0  0  0  0
  5 12  1  0  0  0  0
  5 37  1  0  0  0  0
  6  8  1  0  0  0  0
  6 11  2  0  0  0  0
  6 38  1  0  0  0  0
  7 10  1  0  0  0  0
  7 12  2  0  0  0  0
  7 39  1  0  0  0  0
  8 15  1  0  0  0  0
  9 10  2  0  0  0  0
  9 19  1  0  0  0  0
 10 17  1  0  0  0  0
 11 31  1  0  0  0  0
 12 32  1  0  0  0  0
 13 14  2  0  0  0  0
 13 23  1  0  0  0  0
 13 27  1  0  0  0  0
 14 20  1  0  0  0  0
 14 29  1  0  0  0  0
 15 27  2  0  0  0  0
 15 29  1  0  0  0  0
 16 26  1  0  0  0  0
 16 28  2  0  0  0  0
 16 30  1  0  0  0  0
 17 18  1  0  0  0  0
 17 40  1  0  0  0  0
 17 41  1  0  0  0  0
 18 19  1  0  0  0  0
 18 42  1  0  0  0  0
 18 43  1  0  0  0  0
 19 26  1  0  0  0  0
 19 44  1  0  0  0  0
 20 45  1  0  0  0  0
 20 46  1  0  0  0  0
 20 47  1  0  0  0  0
 21 24  1  0  0  0  0
 21 48  1  0  0  0  0
 21 49  1  0  0  0  0
 21 50  1  0  0  0  0
 22 31  1  0  0  0  0
 22 51  1  0  0  0  0
 22 52  1  0  0  0  0
 22 53  1  0  0  0  0
 23 25  1  0  0  0  0
 23 54  1  0  0  0  0
 23 55  1  0  0  0  0
 24 26  1  0  0  0  0
 24 56  1  0  0  0  0
 24 57  1  0  0  0  0
 25 32  1  0  0  0  0
 25 58  1  0  0  0  0
 25 59  1  0  0  0  0
 26 60  1  0  0  0  0
 30 61  1  0  0  0  0
M  END
$$$$
