68
0 1 C24H40N2O2
C                    -5.105001978878     2.055570824613    -0.360907250428
C                    -3.780584833831     1.968071298744    -0.786693775343
C                    -4.761980251408     0.169568820414     1.100155335735
C                    -3.433305447067     0.081301807669     0.672112256316
C                    -5.613434532705     1.151249586219     0.584310628469
C                    -2.930149901303     0.973436295989    -0.279560425653
C                    -8.056604327419     0.604440958196    -0.034463369651
C                    -1.381909354387     0.173322030948    -2.187498619144
C                    -9.113152645772     1.714335721117    -0.154438702026
C                    -0.539956751539     1.202425435828    -2.954494772965
C                    -7.060874107759     1.196588568861     1.002741695991
C                    -1.515743652698     0.831208225805    -0.781065779912
C                    -8.874469005892     4.534534695034     2.386584065936
C                     1.385696368761     3.168436637108    -3.582260179824
C                   -11.412430891156     3.852073282967    -0.521611659341
C                   -11.688347090322     2.962946648496     1.826283186493
C                   -11.410726839994     5.411434758845     1.389393364800
C                     1.050399564921     3.685614347059     0.309092911471
C                     2.980643556820     2.878412113122    -1.058398390674
C                     2.070438095389     5.208516216928    -1.370469934829
C                    -9.400817261653     3.885738775094     1.096292109259
C                     0.721021507638     3.232517108012    -2.197156357244
C                   -10.960994966920     3.999621647909     0.949282637221
C                     1.702693880692     3.737155440072    -1.086967557006
N                    -8.939899259691     2.480876359194     1.090515833082
N                     0.173255661542     1.900891770298    -1.870837939092
O                    -7.470312237219     2.557483311942     1.148641007159
O                    -0.939046852395     2.130337732948    -0.940198775931
H                    -5.752651642770     2.838349873954    -0.745132493556
H                    -3.388566768345     2.682947101010    -1.504317070978
H                    -5.133481386172    -0.526212886938     1.849676856827
H                    -2.782034231932    -0.682501608368     1.092076239090
H                    -8.485557443471    -0.330802480623     0.333718024800
H                    -7.574208525340     0.406181657574    -0.993745450572
H                    -2.353836616892     0.013619624375    -2.658655332281
H                    -0.872229778588    -0.790327106071    -2.111710721591
H                    -8.928781712171     2.337920760306    -1.042396262328
H                   -10.125212819061     1.311987539676    -0.202549678942
H                     0.175879237484     0.742654938773    -3.638196602872
H                    -1.191062096077     1.888281011692    -3.519010628267
H                    -7.188488356591     0.682870794141     1.964283961572
H                    -0.919225731495     0.262831911624    -0.055501984434
H                    -9.367825687286     4.113786593344     3.268310204741
H                    -9.037623489416     5.613577352342     2.375662922537
H                    -7.804272175380     4.355964866605     2.483275807421
H                     2.107024751555     2.348794960394    -3.642738620832
H                     1.915205368250     4.097835467097    -3.796296502099
H                     0.645959852888     3.030842423588    -4.374331395772
H                   -10.893428858646     4.572793937485    -1.163785741422
H                   -11.244486348439     2.856762372744    -0.932784055982
H                   -12.486474003889     4.053609344129    -0.600310121513
H                   -11.389838384536     3.047428700074     2.875395903564
H                   -11.481607407393     1.937324980948     1.510899617429
H                   -12.771321862396     3.122499456671     1.770957508030
H                   -11.279530564164     5.574581574591     2.461566772737
H                   -12.474431957323     5.543136091989     1.164631292520
H                   -10.860616421349     6.194341742068     0.854497277805
H                     0.102370590846     4.231583461896     0.332310513963
H                     0.846050201911     2.660283430638     0.621005104491
H                     1.726498012621     4.141106319364     1.042203668282
H                     3.578822173695     2.995412241882    -1.967921658012
H                     2.728296259730     1.819525217797    -0.945632674453
H                     3.612635824859     3.170283338570    -0.212313786953
H                     2.642129292037     5.333879536411    -2.294858350942
H                     2.686567519815     5.603003089897    -0.555441238738
H                     1.173192781818     5.835240599919    -1.438502258808
H                    -8.948015266447     4.413656845634     0.237790473416
H                    -0.120976408655     3.942663971053    -2.250798807668
