
  -OEChem-05262117483D

 74 77  0     0  0  0  0  0  0999 V2000
    6.2253   -5.0838    5.1219 C   0  0  0  0  0  0  0  0  0  0  0  0
    5.5238   -4.3318    6.0714 C   0  0  0  0  0  0  0  0  0  0  0  0
    7.3853   -4.5531    4.5484 C   0  0  0  0  0  0  0  0  0  0  0  0
   -9.5848   -2.0599    4.8080 C   0  0  0  0  0  0  0  0  0  0  0  0
  -10.0429   -3.3585    4.5737 C   0  0  0  0  0  0  0  0  0  0  0  0
    5.9729   -3.0616    6.4339 C   0  0  0  0  0  0  0  0  0  0  0  0
    7.8368   -3.2839    4.9205 C   0  0  0  0  0  0  0  0  0  0  0  0
    7.0847    2.4199    6.0541 C   0  0  0  0  0  0  0  0  0  0  0  0
    7.6290    1.3713    8.1481 C   0  0  0  0  0  0  0  0  0  0  0  0
    4.3468    0.4919    6.2666 C   0  0  0  0  0  0  0  0  0  0  0  0
    5.2278   -0.6495    4.3447 C   0  0  0  0  0  0  0  0  0  0  0  0
    7.4290    3.6647    6.5733 C   0  0  0  0  0  0  0  0  0  0  0  0
    7.9693    2.6144    8.6882 C   0  0  0  0  0  0  0  0  0  0  0  0
    3.0758    0.4745    5.7039 C   0  0  0  0  0  0  0  0  0  0  0  0
    3.9594   -0.6663    3.7583 C   0  0  0  0  0  0  0  0  0  0  0  0
   -8.2238   -1.8592    5.0376 C   0  0  0  0  0  0  0  0  0  0  0  0
   -9.1121   -4.4012    4.5776 C   0  0  0  0  0  0  0  0  0  0  0  0
    7.1937    1.2446    6.8209 C   0  0  0  0  0  0  0  0  0  0  0  0
    5.4484   -0.0901    5.6102 C   0  0  0  0  0  0  0  0  0  0  0  0
    7.1307   -2.5101    5.8571 C   0  0  0  0  0  0  0  0  0  0  0  0
    7.8758    3.7651    7.8976 C   0  0  0  0  0  0  0  0  0  0  0  0
    2.8707   -0.1116    4.4447 C   0  0  0  0  0  0  0  0  0  0  0  0
   -7.3711   -2.9721    5.0168 C   0  0  0  0  0  0  0  0  0  0  0  0
    6.7981   -0.0707    6.2423 C   0  0  0  0  0  0  0  0  0  0  0  0
    7.6122   -1.1598    6.2687 C   0  0  0  0  0  0  0  0  0  0  0  0
    9.3209   -1.9334    8.0018 C   0  0  0  0  0  0  0  0  0  0  0  0
   -5.8890   -2.8192    5.2376 C   0  0  0  0  0  0  0  0  0  0  0  0
    9.0565   -1.1125    6.7279 C   0  0  0  0  0  0  0  0  0  0  0  0
   -1.0213   -1.3602    3.4744 C   0  0  0  0  0  0  0  0  0  0  0  0
   -0.1812   -0.5898    2.4498 C   0  0  0  0  0  0  0  0  0  0  0  0
   -2.5243   -1.2599    3.1863 C   0  0  0  0  0  0  0  0  0  0  0  0
    1.3152   -0.6917    2.7063 C   0  0  0  0  0  0  0  0  0  0  0  0
   -3.3411   -2.0233    4.2294 C   0  0  0  0  0  0  0  0  0  0  0  0
   -7.8017   -4.2230    4.7906 N   0  0  0  0  0  0  0  0  0  0  0  0
   -5.5235   -0.5000    3.9464 O   0  0  0  0  0  0  0  0  0  0  0  0
   -5.3590   -2.6593    2.5936 O   0  0  0  0  0  0  0  0  0  0  0  0
    8.1959    5.0174    8.3661 O   0  0  0  0  0  0  0  0  0  0  0  0
    1.5857   -0.0832    3.9723 O   0  0  0  0  0  0  0  0  0  0  0  0
   -5.1149   -1.9154    3.8396 S   0  0  0  0  0  0  0  0  0  0  0  0
    5.8754   -6.0726    4.8366 H   0  0  0  0  0  0  0  0  0  0  0  0
    4.6256   -4.7368    6.5312 H   0  0  0  0  0  0  0  0  0  0  0  0
    7.9395   -5.1273    3.8099 H   0  0  0  0  0  0  0  0  0  0  0  0
  -10.2727   -1.2185    4.8094 H   0  0  0  0  0  0  0  0  0  0  0  0
  -11.0936   -3.5640    4.3902 H   0  0  0  0  0  0  0  0  0  0  0  0
    5.4210   -2.4799    7.1662 H   0  0  0  0  0  0  0  0  0  0  0  0
    8.7350   -2.8827    4.4581 H   0  0  0  0  0  0  0  0  0  0  0  0
    6.7249    2.3519    5.0311 H   0  0  0  0  0  0  0  0  0  0  0  0
    7.6879    0.4874    8.7759 H   0  0  0  0  0  0  0  0  0  0  0  0
    4.4914    0.9580    7.2375 H   0  0  0  0  0  0  0  0  0  0  0  0
    6.0612   -1.0852    3.8032 H   0  0  0  0  0  0  0  0  0  0  0  0
    7.3538    4.5667    5.9729 H   0  0  0  0  0  0  0  0  0  0  0  0
    8.2976    2.6858    9.7243 H   0  0  0  0  0  0  0  0  0  0  0  0
    2.2262    0.9132    6.2195 H   0  0  0  0  0  0  0  0  0  0  0  0
    3.8380   -1.1085    2.7760 H   0  0  0  0  0  0  0  0  0  0  0  0
   -7.8175   -0.8665    5.2029 H   0  0  0  0  0  0  0  0  0  0  0  0
   -9.4309   -5.4269    4.3997 H   0  0  0  0  0  0  0  0  0  0  0  0
    9.0521   -2.9842    7.8574 H   0  0  0  0  0  0  0  0  0  0  0  0
    8.7337   -1.5549    8.8451 H   0  0  0  0  0  0  0  0  0  0  0  0
   10.3796   -1.8877    8.2790 H   0  0  0  0  0  0  0  0  0  0  0  0
   -5.4224   -3.8043    5.2876 H   0  0  0  0  0  0  0  0  0  0  0  0
   -5.6550   -2.2304    6.1284 H   0  0  0  0  0  0  0  0  0  0  0  0
    9.3743   -0.0787    6.8746 H   0  0  0  0  0  0  0  0  0  0  0  0
    9.6872   -1.5172    5.9257 H   0  0  0  0  0  0  0  0  0  0  0  0
   -0.7162   -2.4155    3.4721 H   0  0  0  0  0  0  0  0  0  0  0  0
   -0.8056   -0.9736    4.4763 H   0  0  0  0  0  0  0  0  0  0  0  0
   -0.4689    0.4680    2.4497 H   0  0  0  0  0  0  0  0  0  0  0  0
   -0.3771   -0.9734    1.4405 H   0  0  0  0  0  0  0  0  0  0  0  0
   -2.8359   -0.2105    3.1849 H   0  0  0  0  0  0  0  0  0  0  0  0
   -2.7435   -1.6646    2.1927 H   0  0  0  0  0  0  0  0  0  0  0  0
    1.6337   -1.7434    2.7245 H   0  0  0  0  0  0  0  0  0  0  0  0
    1.8788   -0.1751    1.9179 H   0  0  0  0  0  0  0  0  0  0  0  0
   -3.0917   -3.0885    4.2400 H   0  0  0  0  0  0  0  0  0  0  0  0
   -3.2103   -1.6049    5.2320 H   0  0  0  0  0  0  0  0  0  0  0  0
    8.4876    4.9445    9.2886 H   0  0  0  0  0  0  0  0  0  0  0  0
  1  2  1  0  0  0  0
  1  3  2  0  0  0  0
  1 40  1  0  0  0  0
  2  6  2  0  0  0  0
  2 41  1  0  0  0  0
  3  7  1  0  0  0  0
  3 42  1  0  0  0  0
  4  5  1  0  0  0  0
  4 16  2  0  0  0  0
  4 43  1  0  0  0  0
  5 17  2  0  0  0  0
  5 44  1  0  0  0  0
  6 20  1  0  0  0  0
  6 45  1  0  0  0  0
  7 20  2  0  0  0  0
  7 46  1  0  0  0  0
  8 12  2  0  0  0  0
  8 18  1  0  0  0  0
  8 47  1  0  0  0  0
  9 13  1  0  0  0  0
  9 18  2  0  0  0  0
  9 48  1  0  0  0  0
 10 14  2  0  0  0  0
 10 19  1  0  0  0  0
 10 49  1  0  0  0  0
 11 15  1  0  0  0  0
 11 19  2  0  0  0  0
 11 50  1  0  0  0  0
 12 21  1  0  0  0  0
 12 51  1  0  0  0  0
 13 21  2  0  0  0  0
 13 52  1  0  0  0  0
 14 22  1  0  0  0  0
 14 53  1  0  0  0  0
 15 22  2  0  0  0  0
 15 54  1  0  0  0  0
 16 23  1  0  0  0  0
 16 55  1  0  0  0  0
 17 34  1  0  0  0  0
 17 56  1  0  0  0  0
 18 24  1  0  0  0  0
 19 24  1  0  0  0  0
 20 25  1  0  0  0  0
 21 37  1  0  0  0  0
 22 38  1  0  0  0  0
 23 27  1  0  0  0  0
 23 34  2  0  0  0  0
 24 25  2  0  0  0  0
 25 28  1  0  0  0  0
 26 28  1  0  0  0  0
 26 57  1  0  0  0  0
 26 58  1  0  0  0  0
 26 59  1  0  0  0  0
 27 39  1  0  0  0  0
 27 60  1  0  0  0  0
 27 61  1  0  0  0  0
 28 62  1  0  0  0  0
 28 63  1  0  0  0  0
 29 30  1  0  0  0  0
 29 31  1  0  0  0  0
 29 64  1  0  0  0  0
 29 65  1  0  0  0  0
 30 32  1  0  0  0  0
 30 66  1  0  0  0  0
 30 67  1  0  0  0  0
 31 33  1  0  0  0  0
 31 68  1  0  0  0  0
 31 69  1  0  0  0  0
 32 38  1  0  0  0  0
 32 70  1  0  0  0  0
 32 71  1  0  0  0  0
 33 39  1  0  0  0  0
 33 72  1  0  0  0  0
 33 73  1  0  0  0  0
 35 39  2  0  0  0  0
 36 39  2  0  0  0  0
 37 74  1  0  0  0  0
M  END
$$$$
