
  -OEChem-05262117483D

 61 64  0     1  0  0  0  0  0999 V2000
   -6.5761    1.3190   -4.9988 C   0  0  0  0  0  0  0  0  0  0  0  0
   -5.9944    2.4303   -4.3805 C   0  0  0  0  0  0  0  0  0  0  0  0
   -2.4947   -0.4562   -1.7261 C   0  0  0  0  0  0  0  0  0  0  0  0
   -6.7804    0.1333   -4.2937 C   0  0  0  0  0  0  0  0  0  0  0  0
   -2.2479    0.8987   -1.4922 C   0  0  0  0  0  0  0  0  0  0  0  0
   -5.8230    1.1563   -2.3115 C   0  0  0  0  0  0  0  0  0  0  0  0
   -2.3322    0.5283    0.9070 C   0  0  0  0  0  0  0  0  0  0  0  0
   -5.6145    2.3442   -3.0347 C   0  0  0  0  0  0  0  0  0  0  0  0
   -2.6720   -1.3271   -0.6442 C   0  0  0  0  0  0  0  0  0  0  0  0
   -2.5801   -0.8236    0.6611 C   0  0  0  0  0  0  0  0  0  0  0  0
   -6.3989    0.0627   -2.9467 C   0  0  0  0  0  0  0  0  0  0  0  0
   -2.1625    1.3924   -0.1827 C   0  0  0  0  0  0  0  0  0  0  0  0
   -3.7488    4.5651   -0.9499 C   0  0  0  0  0  0  0  0  0  0  0  0
   -3.6958    5.2240   -2.1447 C   0  0  0  0  0  0  0  0  0  0  0  0
   -4.9141    3.4202   -2.3448 C   0  0  0  0  0  0  0  0  0  0  0  0
   -3.5051   -3.1181   -3.0584 C   0  0  0  0  0  0  0  0  0  0  0  0
   -2.6713   -1.9417    1.6753 C   0  0  0  0  0  0  0  0  0  0  0  0
   -3.2353   -3.1218    0.8543 C   0  0  0  0  0  0  0  0  0  0  0  0
   -2.8476   -2.8435   -0.6249 C   0  0  1  0  0  0  0  0  0  0  0  0
   -3.0270    6.4552   -2.6415 C   0  0  0  0  0  0  0  0  0  0  0  0
   -5.0312   -5.5957   -2.3992 C   0  0  0  0  0  0  0  0  0  0  0  0
   -6.5983   -1.1473   -0.8832 C   0  0  0  0  0  0  0  0  0  0  0  0
   -3.0108    4.8067    0.3343 C   0  0  0  0  0  0  0  0  0  0  0  0
   -3.9752   -4.9760   -1.4770 C   0  0  0  0  0  0  0  0  0  0  0  0
   -2.5892    3.4699    0.9553 C   0  0  0  0  0  0  0  0  0  0  0  0
   -3.8723   -3.4425   -1.6115 C   0  0  2  0  0  0  0  0  0  0  0  0
   -4.5425    3.4319   -1.0957 N   0  0  0  0  0  0  0  0  0  0  0  0
   -2.4581   -3.4640   -3.5653 O   0  0  0  0  0  0  0  0  0  0  0  0
   -4.4531    4.4973   -3.0504 O   0  0  0  0  0  0  0  0  0  0  0  0
   -4.4255   -2.4373   -3.7836 O   0  0  0  0  0  0  0  0  0  0  0  0
   -6.5795   -1.1601   -2.3190 O   0  0  0  0  0  0  0  0  0  0  0  0
   -1.8607    2.7262   -0.0321 O   0  0  0  0  0  0  0  0  0  0  0  0
   -6.8685    1.3743   -6.0437 H   0  0  0  0  0  0  0  0  0  0  0  0
   -5.8225    3.3464   -4.9362 H   0  0  0  0  0  0  0  0  0  0  0  0
   -2.5359   -0.8087   -2.7512 H   0  0  0  0  0  0  0  0  0  0  0  0
   -7.2187   -0.7393   -4.7687 H   0  0  0  0  0  0  0  0  0  0  0  0
   -2.1235    1.5938   -2.3168 H   0  0  0  0  0  0  0  0  0  0  0  0
   -5.4785    1.1149   -1.2864 H   0  0  0  0  0  0  0  0  0  0  0  0
   -2.2370    0.8994    1.9244 H   0  0  0  0  0  0  0  0  0  0  0  0
   -1.6690   -2.1756    2.0575 H   0  0  0  0  0  0  0  0  0  0  0  0
   -3.2930   -1.6931    2.5422 H   0  0  0  0  0  0  0  0  0  0  0  0
   -2.8761   -4.0906    1.2095 H   0  0  0  0  0  0  0  0  0  0  0  0
   -4.3294   -3.1287    0.9391 H   0  0  0  0  0  0  0  0  0  0  0  0
   -1.8780   -3.3068   -0.8506 H   0  0  0  0  0  0  0  0  0  0  0  0
   -2.3865    6.2382   -3.5034 H   0  0  0  0  0  0  0  0  0  0  0  0
   -3.7561    7.2140   -2.9479 H   0  0  0  0  0  0  0  0  0  0  0  0
   -2.4061    6.8817   -1.8503 H   0  0  0  0  0  0  0  0  0  0  0  0
   -6.0243   -5.1717   -2.2080 H   0  0  0  0  0  0  0  0  0  0  0  0
   -5.0962   -6.6772   -2.2427 H   0  0  0  0  0  0  0  0  0  0  0  0
   -4.7933   -5.4281   -3.4542 H   0  0  0  0  0  0  0  0  0  0  0  0
   -6.9334   -2.1402   -0.5799 H   0  0  0  0  0  0  0  0  0  0  0  0
   -7.3053   -0.3936   -0.5214 H   0  0  0  0  0  0  0  0  0  0  0  0
   -5.6034   -0.9517   -0.4701 H   0  0  0  0  0  0  0  0  0  0  0  0
   -2.1286    5.4257    0.1439 H   0  0  0  0  0  0  0  0  0  0  0  0
   -3.6316    5.3419    1.0648 H   0  0  0  0  0  0  0  0  0  0  0  0
   -2.9916   -5.4066   -1.6928 H   0  0  0  0  0  0  0  0  0  0  0  0
   -4.2139   -5.2200   -0.4370 H   0  0  0  0  0  0  0  0  0  0  0  0
   -1.9550    3.6378    1.8343 H   0  0  0  0  0  0  0  0  0  0  0  0
   -3.4772    2.9097    1.2585 H   0  0  0  0  0  0  0  0  0  0  0  0
   -4.8535   -3.0167   -1.3806 H   0  0  0  0  0  0  0  0  0  0  0  0
   -5.1812   -2.1711   -3.2185 H   0  0  0  0  0  0  0  0  0  0  0  0
  1  2  1  0  0  0  0
  1  4  2  0  0  0  0
  1 33  1  0  0  0  0
  2  8  2  0  0  0  0
  2 34  1  0  0  0  0
  3  5  2  0  0  0  0
  3  9  1  0  0  0  0
  3 35  1  0  0  0  0
  4 11  1  0  0  0  0
  4 36  1  0  0  0  0
  5 12  1  0  0  0  0
  5 37  1  0  0  0  0
  6  8  1  0  0  0  0
  6 11  2  0  0  0  0
  6 38  1  0  0  0  0
  7 10  1  0  0  0  0
  7 12  2  0  0  0  0
  7 39  1  0  0  0  0
  8 15  1  0  0  0  0
  9 10  2  0  0  0  0
  9 19  1  0  0  0  0
 10 17  1  0  0  0  0
 11 31  1  0  0  0  0
 12 32  1  0  0  0  0
 13 14  2  0  0  0  0
 13 23  1  0  0  0  0
 13 27  1  0  0  0  0
 14 20  1  0  0  0  0
 14 29  1  0  0  0  0
 15 27  2  0  0  0  0
 15 29  1  0  0  0  0
 16 26  1  0  0  0  0
 16 28  2  0  0  0  0
 16 30  1  0  0  0  0
 17 18  1  0  0  0  0
 17 40  1  0  0  0  0
 17 41  1  0  0  0  0
 18 19  1  0  0  0  0
 18 42  1  0  0  0  0
 18 43  1  0  0  0  0
 19 26  1  0  0  0  0
 19 44  1  0  0  0  0
 20 45  1  0  0  0  0
 20 46  1  0  0  0  0
 20 47  1  0  0  0  0
 21 24  1  0  0  0  0
 21 48  1  0  0  0  0
 21 49  1  0  0  0  0
 21 50  1  0  0  0  0
 22 31  1  0  0  0  0
 22 51  1  0  0  0  0
 22 52  1  0  0  0  0
 22 53  1  0  0  0  0
 23 25  1  0  0  0  0
 23 54  1  0  0  0  0
 23 55  1  0  0  0  0
 24 26  1  0  0  0  0
 24 56  1  0  0  0  0
 24 57  1  0  0  0  0
 25 32  1  0  0  0  0
 25 58  1  0  0  0  0
 25 59  1  0  0  0  0
 26 60  1  0  0  0  0
 30 61  1  0  0  0  0
M  END
$$$$
