
  -OEChem-05262117483D

 29 30  0     1  0  0  0  0  0999 V2000
   -0.0844    2.5383   -1.1592 C   0  0  0  0  0  0  0  0  0  0  0  0
   -1.1716    2.6327   -0.2810 C   0  0  0  0  0  0  0  0  0  0  0  0
    0.5160    1.3012   -1.4005 C   0  0  0  0  0  0  0  0  0  0  0  0
   -1.6652    1.4999    0.3739 C   0  0  0  0  0  0  0  0  0  0  0  0
    0.0134    0.1741   -0.7507 C   0  0  0  0  0  0  0  0  0  0  0  0
   -1.0626    0.2686    0.1393 C   0  0  0  0  0  0  0  0  0  0  0  0
    0.2429   -2.1563   -0.2169 C   0  0  0  0  0  0  0  0  0  0  0  0
   -0.5634   -1.8567    1.0346 C   0  0  1  0  0  0  0  0  0  0  0  0
    0.5286   -0.7116    4.6118 C   0  0  0  0  0  0  0  0  0  0  0  0
    0.3694   -1.4373    2.1838 C   0  0  0  0  0  0  0  0  0  0  0  0
   -0.4055   -1.1338    3.4734 C   0  0  0  0  0  0  0  0  0  0  0  0
    0.5355   -1.1313   -0.9985 N   0  3  0  0  0  0  0  0  0  0  0  0
    0.6524   -3.3971   -0.4666 N   0  0  0  0  0  0  0  0  0  0  0  0
   -1.5565   -0.8787    0.7232 O   0  0  0  0  0  0  0  0  0  0  0  0
    0.2948    3.4249   -1.6565 H   0  0  0  0  0  0  0  0  0  0  0  0
   -1.6362    3.5968   -0.0993 H   0  0  0  0  0  0  0  0  0  0  0  0
    1.3574    1.2166   -2.0843 H   0  0  0  0  0  0  0  0  0  0  0  0
   -2.5078    1.5565    1.0559 H   0  0  0  0  0  0  0  0  0  0  0  0
   -1.1304   -2.7484    1.3142 H   0  0  0  0  0  0  0  0  0  0  0  0
    1.2543   -1.4974    4.8474 H   0  0  0  0  0  0  0  0  0  0  0  0
   -0.0418   -0.5020    5.5208 H   0  0  0  0  0  0  0  0  0  0  0  0
    1.0864    0.1946    4.3522 H   0  0  0  0  0  0  0  0  0  0  0  0
    1.0865   -2.2495    2.3581 H   0  0  0  0  0  0  0  0  0  0  0  0
    0.9526   -0.5605    1.8797 H   0  0  0  0  0  0  0  0  0  0  0  0
   -1.1359   -0.3429    3.2770 H   0  0  0  0  0  0  0  0  0  0  0  0
   -0.9785   -2.0213    3.7692 H   0  0  0  0  0  0  0  0  0  0  0  0
    1.0997   -1.2612   -1.8353 H   0  0  0  0  0  0  0  0  0  0  0  0
    1.2250   -3.6429   -1.2687 H   0  0  0  0  0  0  0  0  0  0  0  0
    0.3928   -4.1524    0.1578 H   0  0  0  0  0  0  0  0  0  0  0  0
  1  2  1  0  0  0  0
  1  3  2  0  0  0  0
  1 15  1  0  0  0  0
  2  4  2  0  0  0  0
  2 16  1  0  0  0  0
  3  5  1  0  0  0  0
  3 17  1  0  0  0  0
  4  6  1  0  0  0  0
  4 18  1  0  0  0  0
  5  6  2  0  0  0  0
  5 12  1  0  0  0  0
  6 14  1  0  0  0  0
  7  8  1  0  0  0  0
  7 12  2  0  0  0  0
  7 13  1  0  0  0  0
  8 10  1  0  0  0  0
  8 14  1  0  0  0  0
  8 19  1  0  0  0  0
  9 11  1  0  0  0  0
  9 20  1  0  0  0  0
  9 21  1  0  0  0  0
  9 22  1  0  0  0  0
 10 11  1  0  0  0  0
 10 23  1  0  0  0  0
 10 24  1  0  0  0  0
 11 25  1  0  0  0  0
 11 26  1  0  0  0  0
 12 27  1  0  0  0  0
 13 28  1  0  0  0  0
 13 29  1  0  0  0  0
M  CHG  1  12   1
M  END
$$$$
