
  -OEChem-05262117483D

 28 29  0     1  0  0  0  0  0999 V2000
    0.4684    2.7739    0.0412 C   0  0  0  0  0  0  0  0  0  0  0  0
    1.0873    2.2652    1.1897 C   0  0  0  0  0  0  0  0  0  0  0  0
   -0.3745    1.9586   -0.7195 C   0  0  0  0  0  0  0  0  0  0  0  0
    0.8780    0.9342    1.5700 C   0  0  0  0  0  0  0  0  0  0  0  0
   -0.5994    0.6257   -0.3515 C   0  0  0  0  0  0  0  0  0  0  0  0
    0.0509    0.1262    0.7944 C   0  0  0  0  0  0  0  0  0  0  0  0
   -1.4653   -1.4371   -0.8393 C   0  0  0  0  0  0  0  0  0  0  0  0
   -0.4441   -2.0697    0.0916 C   0  0  1  0  0  0  0  0  0  0  0  0
    3.1864   -3.4136   -0.5348 C   0  0  0  0  0  0  0  0  0  0  0  0
    0.8403   -2.4354   -0.6674 C   0  0  0  0  0  0  0  0  0  0  0  0
    1.8968   -3.0911    0.2274 C   0  0  0  0  0  0  0  0  0  0  0  0
   -1.5065   -0.1706   -1.0729 N   0  0  0  0  0  0  0  0  0  0  0  0
   -2.2842   -2.3081   -1.5303 N   0  0  0  0  0  0  0  0  0  0  0  0
   -0.1820   -1.1766    1.1864 O   0  0  0  0  0  0  0  0  0  0  0  0
    0.6352    3.8057   -0.2559 H   0  0  0  0  0  0  0  0  0  0  0  0
    1.7360    2.8991    1.7882 H   0  0  0  0  0  0  0  0  0  0  0  0
   -0.8821    2.3390   -1.6016 H   0  0  0  0  0  0  0  0  0  0  0  0
    1.3487    0.5146    2.4549 H   0  0  0  0  0  0  0  0  0  0  0  0
   -0.8593   -2.9655    0.5658 H   0  0  0  0  0  0  0  0  0  0  0  0
    2.9957   -4.0974   -1.3701 H   0  0  0  0  0  0  0  0  0  0  0  0
    3.9271   -3.8847    0.1200 H   0  0  0  0  0  0  0  0  0  0  0  0
    3.6368   -2.5038   -0.9476 H   0  0  0  0  0  0  0  0  0  0  0  0
    0.5678   -3.1057   -1.4917 H   0  0  0  0  0  0  0  0  0  0  0  0
    1.2474   -1.5257   -1.1244 H   0  0  0  0  0  0  0  0  0  0  0  0
    2.1179   -2.4242    1.0671 H   0  0  0  0  0  0  0  0  0  0  0  0
    1.4844   -4.0112    0.6628 H   0  0  0  0  0  0  0  0  0  0  0  0
   -3.0363   -1.8526   -2.0378 H   0  0  0  0  0  0  0  0  0  0  0  0
   -2.5592   -3.1560   -1.0496 H   0  0  0  0  0  0  0  0  0  0  0  0
  1  2  1  0  0  0  0
  1  3  2  0  0  0  0
  1 15  1  0  0  0  0
  2  4  2  0  0  0  0
  2 16  1  0  0  0  0
  3  5  1  0  0  0  0
  3 17  1  0  0  0  0
  4  6  1  0  0  0  0
  4 18  1  0  0  0  0
  5  6  2  0  0  0  0
  5 12  1  0  0  0  0
  6 14  1  0  0  0  0
  7  8  1  0  0  0  0
  7 12  2  0  0  0  0
  7 13  1  0  0  0  0
  8 10  1  0  0  0  0
  8 14  1  0  0  0  0
  8 19  1  0  0  0  0
  9 11  1  0  0  0  0
  9 20  1  0  0  0  0
  9 21  1  0  0  0  0
  9 22  1  0  0  0  0
 10 11  1  0  0  0  0
 10 23  1  0  0  0  0
 10 24  1  0  0  0  0
 11 25  1  0  0  0  0
 11 26  1  0  0  0  0
 13 27  1  0  0  0  0
 13 28  1  0  0  0  0
M  END
$$$$
