61
0 1 C26H29NO5
C                    -3.613373376179     3.696491256535    -7.374798047322
C                    -3.396183581071     3.667666931535    -6.002410961669
C                    -2.329224378445    -2.434118488406    -1.386525578867
C                    -4.868287185145     4.027730668197    -7.907358324942
C                    -2.226933524021    -1.065177415332    -1.630984642948
C                    -5.716146966737     4.308610369679    -5.648769917606
C                    -2.783665023801    -0.582104255839     0.687492982448
C                    -4.459409247972     3.977598064999    -5.131209152147
C                    -2.681178765400    -2.888818674017    -0.109083563604
C                    -2.891014082094    -1.956976172462     0.912379421956
C                    -5.921404784140     4.334421914189    -7.035159847186
C                    -2.457408958600    -0.136071299717    -0.601895684606
C                    -3.433599574345     3.798643582948    -1.700374280015
C                    -4.752924769892     4.133151537029    -1.576680191834
C                    -4.228776160918     3.948881824445    -3.690083899491
C                    -2.795335910763    -5.539406477467    -1.782820301108
C                    -3.178968369580    -2.658519968751     2.220884499326
C                    -3.570924833547    -4.082797690131     1.770851180453
C                    -2.845429878733    -4.310033893418     0.416640263048
C                    -5.667527228267     4.391107567500    -0.432430376546
C                    -4.666086054064    -7.611939892356    -0.739896660772
C                    -7.452757455310     4.715500738416    -8.834165176160
C                    -2.421400132197     3.543301423310    -0.623154680531
C                    -3.886850010194    -6.640819154130     0.154034431804
C                    -2.565448275647     2.172517771063     0.037160443016
C                    -3.606302632001    -5.278110402153    -0.514379754243
N                    -3.120275922825     3.687918834435    -3.052730986932
O                    -1.673549392896    -5.993124801223    -1.775216728396
O                    -5.275868775738     4.230546613236    -2.850648280419
O                    -3.404231900769    -5.263402360800    -2.974325138590
O                    -7.187537949029     4.672171713698    -7.436079281909
O                    -2.331401741579     1.180263859378    -0.956334166975
H                    -2.798714580251     3.458120884272    -8.053680136487
H                    -2.427512181898     3.410865914995    -5.587477056995
H                    -2.118427366839    -3.122437050803    -2.198715747232
H                    -5.005545461096     4.041526106409    -8.982498734248
H                    -1.965374061334    -0.687466671757    -2.615040514827
H                    -6.545399692246     4.549810183694    -4.992285920646
H                    -2.950350606308     0.114435598411     1.502506147187
H                    -2.272163940666    -2.680188161537     2.840019983689
H                    -3.960717190268    -2.170908865964     2.812652187212
H                    -3.326683271883    -4.845100798816     2.514906946555
H                    -4.654852225144    -4.117018627826     1.604849490698
H                    -1.854752237788    -4.749356834883     0.593986527930
H                    -6.152394520758     5.369283190463    -0.523567709982
H                    -6.455998335232     3.632306109086    -0.367474159692
H                    -5.103125299526     4.375215851978     0.503161107417
H                    -5.629276600821    -7.185678758984    -1.045672234394
H                    -4.873057722991    -8.545764130814    -0.207770895851
H                    -4.107339204044    -7.866643112847    -1.646041068118
H                    -8.501404141887     5.000390867598    -8.930158393144
H                    -7.298993967530     3.734972848666    -9.301835071863
H                    -6.826439083534     5.462362223256    -9.337885147629
H                    -1.421934196602     3.627707077574    -1.057772273491
H                    -2.502503964089     4.300908486425     0.165161483347
H                    -2.927521361679    -7.084811994519     0.440684387426
H                    -4.449673265729    -6.465356924163     1.075642757232
H                    -1.837392690520     2.068634601246     0.854080169744
H                    -3.574383292374     2.054500103320     0.455967813744
H                    -4.568654887971    -4.811259058927    -0.770178985406
H                    -4.277670637612    -4.871871154223    -2.806917647241
