24
-1 1 C7H7N2O6S2
C                     1.280840719400    -0.892823027248    -0.703408309857
C                     0.254488692050    -0.253608336967    -0.018211485536
C                     1.169261386734    -1.084188948017     2.078620069376
C                     2.269107005631    -1.647403138508    -0.042610391482
C                     0.213171112244    -0.354900930333     1.376465666087
C                     2.184301933700    -1.721881100211     1.360848413617
C                     3.315300262615    -2.341344452190    -0.956634406249
N                    -0.399425906131     2.084259479159     2.378316449909
N                     3.185994213072    -4.139671508275     1.942655128986
O                     3.692565528938    -1.650846208862    -1.923793956714
O                     3.606086748866    -3.539478038586    -0.660721531644
O                    -2.254017697389     0.672829667152     1.436551023679
O                    -1.162237993332    -0.072434840243     3.620764695912
O                     4.757520689842    -2.027197840148     2.025331601463
O                     3.016269819850    -2.413209717834     3.802180645759
S                    -1.058730438791     0.507341554463     2.274678130387
S                     3.429361886199    -2.542432231462     2.392426796187
H                     1.363136734629    -0.810875147122    -1.782334447635
H                    -0.505419011323     0.316919077284    -0.543678375485
H                     1.133244590922    -1.170287514263     3.159655825022
H                    -1.181921734536     2.732178885842     2.480313489271
H                     0.206799559330     2.141265713316     3.197447258944
H                     3.372832403667    -4.161049098104     0.907498407784
H                     3.860619124495    -4.711081584821     2.455537232347
