58
0 1 C25FH25O6S
C                     1.742617115590    -7.924391666211     6.563845169360
C                     1.692707565878    -8.136417813600     7.941364115059
C                    -3.530700348646    -5.495738620581     9.771314224450
C                    -2.351989687883    -6.036668391424    11.846527636155
C                    -2.336685046850    -5.031443118614     9.219754315340
C                    -1.158801770531    -5.576815665522    11.286412736043
C                     0.842005372400    -2.792032220395     3.721668783246
C                    -1.278527294221    -3.950791106405     3.636029944993
C                     0.957656326819    -5.681669483931     6.863591292552
C                     1.374948753154    -6.695287459676     5.998070316805
C                     1.501532630456    -4.001075636380     3.974538701041
C                    -0.637065045448    -5.170460210277     3.875387402090
C                     0.760947192626    -5.197340872673     4.056186601190
C                     1.274094837111    -7.113471475526     8.802754693339
C                    -0.545178905092    -2.768160560162     3.577618814135
C                    -3.510146894113    -5.990278372882    11.074578944570
C                    -1.165580858690    -5.084038322046     9.980606885789
C                     0.907813882069    -5.880317100081     8.243831278051
C                    -0.039467824991     0.411978635164     4.071556918406
C                     2.997361344426    -3.984692563943     4.201706248876
C                    -1.464619069776    -6.431485624434     3.989032023449
C                    -1.118014129951    -1.104662840756     5.796464806426
C                    -2.511712182023     0.240076651261     4.171648369464
C                     1.435395655200    -6.480839262903     4.487607222949
C                    -1.211601950756    -0.546913140522     4.378863660995
O                     0.421900358607     1.181832160710     4.882327526569
O                     0.016061009895    -3.412397597264     8.314186642360
O                     1.329288649905    -4.262651392433    10.338641164347
O                     1.187923429622    -7.281009176219    10.155384175234
O                     0.396692764047     0.375794846900     2.788941846652
O                    -1.248649477939    -1.589082073611     3.349038405481
F                    -4.668285393929    -6.439804882865    11.613798663382
S                     0.365301707322    -4.489724439802     9.256519748735
H                     2.067917423247    -8.737551721152     5.918193170606
H                     1.976834700899    -9.103003418462     8.354459086591
H                    -4.464209128694    -5.469972119635     9.218130312814
H                    -2.394765997588    -6.421371047649    12.860653129888
H                    -2.312536669271    -4.618722958008     8.216011564236
H                    -0.231501408647    -5.589388032322    11.848277693984
H                     1.414860700702    -1.871474682154     3.671398758018
H                    -2.357117817229    -3.901002526604     3.516134121494
H                     0.654791264898    -4.713919668038     6.480698734603
H                     3.257582364486    -4.388229616073     5.186285032507
H                     3.527509029058    -4.583258538536     3.452248403678
H                     3.388307418594    -2.966161791642     4.148616920931
H                    -1.192386266795    -7.163758974185     3.220146426523
H                    -1.325542509179    -6.916445898653     4.961528315500
H                    -2.528730155986    -6.211976202190     3.872814267320
H                    -1.951938897551    -1.787524988142     5.980241399934
H                    -0.186938443217    -1.639413007136     5.984784820213
H                    -1.173510722070    -0.277980149040     6.506369560309
H                    -3.364541429759    -0.403989837318     4.402871187477
H                    -2.601242954615     0.577291436734     3.134940037179
H                    -2.530336420491     1.112470040859     4.828959311651
H                     2.483928679804    -6.486308055370     4.175200736079
H                     0.974541789517    -7.342357230013     3.994616573431
H                     1.471052504673    -8.180358149123    10.385471061446
H                    -0.101913699242    -0.338982459612     2.340708767483
