61
0 1 C26H29NO5
C                    -5.709227699536    -0.848342729882    -4.012502032887
C                    -5.596556917706     0.178530187764    -3.069290296547
C                    -2.963678347117    -0.039760745744     0.009606116863
C                    -4.813746911498    -0.944392335989    -5.074314759593
C                    -2.427737579639     1.158671831067     0.496251725246
C                    -3.651054524278     1.028445103139    -4.268214854703
C                    -0.732433304146     1.116022814940    -1.238592417424
C                    -4.564972820022     1.115424654189    -3.200237118241
C                    -2.379319325392    -0.670644641531    -1.089611474520
C                    -1.252880842416    -0.090802194926    -1.692511309926
C                    -3.778827986659    -0.000153159760    -5.201387638973
C                    -1.339602541287     1.756318042751    -0.151413242451
C                    -3.587035824230     3.716856472151    -0.939948125853
C                    -4.772348843838     3.311483265060    -0.394717451355
C                    -4.360548456726     2.163807196669    -2.207474968887
C                    -4.600068275975    -2.726062211132    -0.282336727430
C                    -0.819712681712    -0.897708761680    -2.895074823964
C                    -1.559979491359    -2.239991257450    -2.707860970467
C                    -2.816876899932    -1.906736781303    -1.861763020897
C                    -5.538362744212     3.661708184472     0.829637543176
C                    -4.091867464724    -5.551844316836    -1.085928358800
C                    -1.966238848023     0.833107030056    -6.523042156182
C                    -2.552742582649     4.642875759510    -0.372677866127
C                    -3.611381108650    -4.338837241832    -1.889860198199
C                    -1.666179314337     3.999515807175     0.710785818064
C                    -3.315231321408    -3.099124402792    -1.020010261822
N                    -3.354818909785     2.989544629718    -2.105265935844
O                    -5.618314991241    -2.379277827315    -0.838064642630
O                    -5.278044900598     2.312353759168    -1.201089131077
O                    -4.577871509240    -2.819713538494     1.081567229487
O                    -2.933735796586    -0.181356020528    -6.266332999514
O                    -0.799721208085     2.973330195474     0.216477543750
H                    -6.490949384016    -1.593261372343    -3.898010569238
H                    -6.272606347720     0.222455806869    -2.223465608797
H                    -3.850588401130    -0.437713734735     0.491228383571
H                    -4.888171034711    -1.739534076243    -5.810447213529
H                    -2.894207206176     1.636322389971     1.350469057722
H                    -2.856005236575     1.761883775192    -4.319359128309
H                     0.104608126721     1.603086637364    -1.731451539946
H                    -1.155709385915    -0.402371242984    -3.813192172625
H                     0.266308754068    -1.016681149780    -2.967967714708
H                    -1.810249619728    -2.715205341598    -3.659259464556
H                    -0.918356589678    -2.930431412996    -2.145674373326
H                    -3.637808303219    -1.626214068060    -2.529950687347
H                    -6.571199795945     3.937550425831     0.590574065186
H                    -5.574599566616     2.820059313467     1.532014698320
H                    -5.065933344008     4.508036516633     1.334217321777
H                    -3.353688492011    -5.845805776392    -0.329903540837
H                    -4.251642738999    -6.412999998645    -1.742518180618
H                    -5.037498673356    -5.349655007575    -0.572708243496
H                    -1.455868939386     0.533758747583    -7.439631024096
H                    -1.233725574617     0.908732332620    -5.710259309341
H                    -2.444117201841     1.809144321996    -6.670328144480
H                    -1.914519776840     5.001960317244    -1.184856445511
H                    -3.030552720232     5.519195797472     0.082805173666
H                    -4.364008270247    -4.059104420828    -2.634647165495
H                    -2.700825411282    -4.602150233750    -2.435940937677
H                    -0.986257905255     4.754776133406     1.114212478536
H                    -2.281285378830     3.632298869942     1.540363400170
H                    -2.528680408037    -3.360209484568    -0.296705682610
H                    -3.684804843513    -3.071766417260     1.370038877656
