
  -OEChem-05262117483D

 74 77  0     0  0  0  0  0  0999 V2000
    5.4054   -5.0468    6.0188 C   0  0  0  0  0  0  0  0  0  0  0  0
    4.7670   -4.0590    6.7777 C   0  0  0  0  0  0  0  0  0  0  0  0
    6.6469   -4.7690    5.4376 C   0  0  0  0  0  0  0  0  0  0  0  0
   -8.2231   -2.3258   -3.1633 C   0  0  0  0  0  0  0  0  0  0  0  0
   -8.2375   -1.7159   -4.4198 C   0  0  0  0  0  0  0  0  0  0  0  0
    5.3597   -2.8068    6.9437 C   0  0  0  0  0  0  0  0  0  0  0  0
    7.2413   -3.5164    5.6133 C   0  0  0  0  0  0  0  0  0  0  0  0
    7.1785    2.3463    5.6993 C   0  0  0  0  0  0  0  0  0  0  0  0
    7.5062    1.6308    7.9712 C   0  0  0  0  0  0  0  0  0  0  0  0
    4.2076    0.8220    6.0740 C   0  0  0  0  0  0  0  0  0  0  0  0
    5.0170   -0.7328    4.4308 C   0  0  0  0  0  0  0  0  0  0  0  0
    7.6629    3.6127    6.0148 C   0  0  0  0  0  0  0  0  0  0  0  0
    7.9856    2.8996    8.3072 C   0  0  0  0  0  0  0  0  0  0  0  0
    2.9685    0.8543    5.4449 C   0  0  0  0  0  0  0  0  0  0  0  0
    3.7814   -0.7045    3.7784 C   0  0  0  0  0  0  0  0  0  0  0  0
   -6.9943   -2.5782   -2.5535 C   0  0  0  0  0  0  0  0  0  0  0  0
   -7.0149   -1.3826   -5.0096 C   0  0  0  0  0  0  0  0  0  0  0  0
    7.1068    1.3225    6.6625 C   0  0  0  0  0  0  0  0  0  0  0  0
    5.2539    0.0104    5.5946 C   0  0  0  0  0  0  0  0  0  0  0  0
    6.6018   -2.5090    6.3557 C   0  0  0  0  0  0  0  0  0  0  0  0
    8.0713    3.8931    7.3255 C   0  0  0  0  0  0  0  0  0  0  0  0
    2.7436    0.0850    4.2921 C   0  0  0  0  0  0  0  0  0  0  0  0
   -5.8239   -2.2018   -3.2275 C   0  0  0  0  0  0  0  0  0  0  0  0
    6.5686   -0.0181    6.2965 C   0  0  0  0  0  0  0  0  0  0  0  0
    7.2353   -1.1741    6.5586 C   0  0  0  0  0  0  0  0  0  0  0  0
    8.7638   -1.8268    8.4978 C   0  0  0  0  0  0  0  0  0  0  0  0
   -4.4667   -2.4309   -2.6155 C   0  0  0  0  0  0  0  0  0  0  0  0
    8.6552   -1.2181    7.0892 C   0  0  0  0  0  0  0  0  0  0  0  0
   -0.6464   -1.1268    0.9389 C   0  0  0  0  0  0  0  0  0  0  0  0
   -0.2403   -0.3379    2.1887 C   0  0  0  0  0  0  0  0  0  0  0  0
   -2.1094   -0.8820    0.5468 C   0  0  0  0  0  0  0  0  0  0  0  0
    1.2084   -0.5951    2.5771 C   0  0  0  0  0  0  0  0  0  0  0  0
   -2.4891   -1.6716   -0.7064 C   0  0  0  0  0  0  0  0  0  0  0  0
   -5.8278   -1.6134   -4.4337 N   0  0  0  0  0  0  0  0  0  0  0  0
   -5.0729   -1.9149   -0.0568 O   0  0  0  0  0  0  0  0  0  0  0  0
   -4.3670    0.0439   -1.5352 O   0  0  0  0  0  0  0  0  0  0  0  0
    8.5355    5.1603    7.5882 O   0  0  0  0  0  0  0  0  0  0  0  0
    1.4926    0.1805    3.7422 O   0  0  0  0  0  0  0  0  0  0  0  0
   -4.2305   -1.3662   -1.1387 S   0  0  0  0  0  0  0  0  0  0  0  0
    4.9440   -6.0222    5.8869 H   0  0  0  0  0  0  0  0  0  0  0  0
    3.8058   -4.2652    7.2420 H   0  0  0  0  0  0  0  0  0  0  0  0
    7.1537   -5.5279    4.8464 H   0  0  0  0  0  0  0  0  0  0  0  0
   -9.1502   -2.5978   -2.6657 H   0  0  0  0  0  0  0  0  0  0  0  0
   -9.1696   -1.4998   -4.9339 H   0  0  0  0  0  0  0  0  0  0  0  0
    4.8567   -2.0424    7.5283 H   0  0  0  0  0  0  0  0  0  0  0  0
    8.2022   -3.3141    5.1472 H   0  0  0  0  0  0  0  0  0  0  0  0
    6.8499    2.1407    4.6842 H   0  0  0  0  0  0  0  0  0  0  0  0
    7.4272    0.8728    8.7446 H   0  0  0  0  0  0  0  0  0  0  0  0
    4.3694    1.4304    6.9598 H   0  0  0  0  0  0  0  0  0  0  0  0
    5.8106   -1.3512    4.0240 H   0  0  0  0  0  0  0  0  0  0  0  0
    7.7269    4.3953    5.2644 H   0  0  0  0  0  0  0  0  0  0  0  0
    8.2827    3.1148    9.3329 H   0  0  0  0  0  0  0  0  0  0  0  0
    2.1593    1.4707    5.8260 H   0  0  0  0  0  0  0  0  0  0  0  0
    3.6457   -1.2964    2.8804 H   0  0  0  0  0  0  0  0  0  0  0  0
   -6.9329   -3.0307   -1.5689 H   0  0  0  0  0  0  0  0  0  0  0  0
   -6.9853   -0.9066   -5.9884 H   0  0  0  0  0  0  0  0  0  0  0  0
    8.3639   -2.8451    8.5199 H   0  0  0  0  0  0  0  0  0  0  0  0
    8.2021   -1.2352    9.2284 H   0  0  0  0  0  0  0  0  0  0  0  0
    9.8087   -1.8641    8.8240 H   0  0  0  0  0  0  0  0  0  0  0  0
   -3.6912   -2.1661   -3.3360 H   0  0  0  0  0  0  0  0  0  0  0  0
   -4.3344   -3.4555   -2.2580 H   0  0  0  0  0  0  0  0  0  0  0  0
    9.0961   -0.2199    7.0765 H   0  0  0  0  0  0  0  0  0  0  0  0
    9.2599   -1.8298    6.4070 H   0  0  0  0  0  0  0  0  0  0  0  0
    0.0076   -0.8501    0.1011 H   0  0  0  0  0  0  0  0  0  0  0  0
   -0.4901   -2.1997    1.1143 H   0  0  0  0  0  0  0  0  0  0  0  0
   -0.8858   -0.6090    3.0318 H   0  0  0  0  0  0  0  0  0  0  0  0
   -0.3757    0.7359    2.0167 H   0  0  0  0  0  0  0  0  0  0  0  0
   -2.7695   -1.1730    1.3700 H   0  0  0  0  0  0  0  0  0  0  0  0
   -2.2721    0.1846    0.3624 H   0  0  0  0  0  0  0  0  0  0  0  0
    1.3688   -1.6613    2.7902 H   0  0  0  0  0  0  0  0  0  0  0  0
    1.8853   -0.3055    1.7610 H   0  0  0  0  0  0  0  0  0  0  0  0
   -1.8959   -1.3661   -1.5734 H   0  0  0  0  0  0  0  0  0  0  0  0
   -2.3877   -2.7504   -0.5531 H   0  0  0  0  0  0  0  0  0  0  0  0
    8.7796    5.2192    8.5254 H   0  0  0  0  0  0  0  0  0  0  0  0
  1  2  1  0  0  0  0
  1  3  2  0  0  0  0
  1 40  1  0  0  0  0
  2  6  2  0  0  0  0
  2 41  1  0  0  0  0
  3  7  1  0  0  0  0
  3 42  1  0  0  0  0
  4  5  1  0  0  0  0
  4 16  2  0  0  0  0
  4 43  1  0  0  0  0
  5 17  2  0  0  0  0
  5 44  1  0  0  0  0
  6 20  1  0  0  0  0
  6 45  1  0  0  0  0
  7 20  2  0  0  0  0
  7 46  1  0  0  0  0
  8 12  2  0  0  0  0
  8 18  1  0  0  0  0
  8 47  1  0  0  0  0
  9 13  1  0  0  0  0
  9 18  2  0  0  0  0
  9 48  1  0  0  0  0
 10 14  2  0  0  0  0
 10 19  1  0  0  0  0
 10 49  1  0  0  0  0
 11 15  1  0  0  0  0
 11 19  2  0  0  0  0
 11 50  1  0  0  0  0
 12 21  1  0  0  0  0
 12 51  1  0  0  0  0
 13 21  2  0  0  0  0
 13 52  1  0  0  0  0
 14 22  1  0  0  0  0
 14 53  1  0  0  0  0
 15 22  2  0  0  0  0
 15 54  1  0  0  0  0
 16 23  1  0  0  0  0
 16 55  1  0  0  0  0
 17 34  1  0  0  0  0
 17 56  1  0  0  0  0
 18 24  1  0  0  0  0
 19 24  1  0  0  0  0
 20 25  1  0  0  0  0
 21 37  1  0  0  0  0
 22 38  1  0  0  0  0
 23 27  1  0  0  0  0
 23 34  2  0  0  0  0
 24 25  2  0  0  0  0
 25 28  1  0  0  0  0
 26 28  1  0  0  0  0
 26 57  1  0  0  0  0
 26 58  1  0  0  0  0
 26 59  1  0  0  0  0
 27 39  1  0  0  0  0
 27 60  1  0  0  0  0
 27 61  1  0  0  0  0
 28 62  1  0  0  0  0
 28 63  1  0  0  0  0
 29 30  1  0  0  0  0
 29 31  1  0  0  0  0
 29 64  1  0  0  0  0
 29 65  1  0  0  0  0
 30 32  1  0  0  0  0
 30 66  1  0  0  0  0
 30 67  1  0  0  0  0
 31 33  1  0  0  0  0
 31 68  1  0  0  0  0
 31 69  1  0  0  0  0
 32 38  1  0  0  0  0
 32 70  1  0  0  0  0
 32 71  1  0  0  0  0
 33 39  1  0  0  0  0
 33 72  1  0  0  0  0
 33 73  1  0  0  0  0
 35 39  2  0  0  0  0
 36 39  2  0  0  0  0
 37 74  1  0  0  0  0
M  END
$$$$
