61
0 1 C26H29NO5
C                    -9.139566420407     4.135307727783    -4.845442155160
C                    -7.808020406357     4.033934847651    -4.454055519797
C                    -1.732870888477    -1.774686471664    -1.415567612662
C                   -10.160754260276     4.331187752414    -3.906378257967
C                    -1.871087509648    -0.391045554192    -1.520048456389
C                    -8.494575109984     4.327412469899    -2.139090218177
C                    -2.910643767846    -0.299579903338     0.676915105722
C                    -7.483699404629     4.131083364320    -3.086832896797
C                    -2.204548883501    -2.435788682810    -0.274590118118
C                    -2.770896321673    -1.687089931737     0.762332911946
C                    -9.830424530697     4.426933764263    -2.545939866728
C                    -2.466351349654     0.348841930648    -0.484309148120
C                    -4.256524324683     3.940698966733    -1.532199968553
C                    -3.938475459346     3.768253009824    -2.848784899291
C                    -6.100293510631     4.026356955909    -2.631770293590
C                    -1.571756351350    -4.814763503254    -2.196436856158
C                    -3.125419355976    -2.579391227297     1.930537441830
C                    -3.131882139041    -3.990137019550     1.301968532294
C                    -2.170979653999    -3.916870773116     0.083187080859
C                    -2.681776037135     3.514878066466    -3.600189672115
C                    -3.106321916663    -7.320504042166    -1.675965372619
C                   -12.114755954095     4.728424410090    -1.898694869941
C                    -3.370959592601     3.902937177319    -0.325251745065
C                    -2.664555959811    -6.346633471607    -0.577910669323
C                    -3.255141592811     2.497071420260     0.261207903807
C                    -2.581200690559    -4.879974264930    -1.051727185874
N                    -5.636484497149     4.097007627560    -1.413319524994
O                    -0.389823747513    -5.034747787961    -2.058235602293
O                    -5.118073460331     3.828360455274    -3.566284938971
O                    -2.062010614928    -4.514969140268    -3.436018041200
O                   -10.741464075956     4.616958289597    -1.540865822181
O                    -2.558346320596     1.698474655539    -0.698257362389
H                    -9.397933833241     4.061755122394    -5.898638098841
H                    -7.024322186785     3.881824033217    -5.188233198408
H                    -1.247268605883    -2.310297842203    -2.224785577847
H                   -11.188410116772     4.405990703009    -4.242896201722
H                    -1.522376619153     0.141149993328    -2.400415117773
H                    -8.248416132906     4.403404211806    -1.085196189211
H                    -3.353921398776     0.253441529726     1.498331716885
H                    -2.352619773896    -2.500161989799     2.706633872017
H                    -4.080020875052    -2.320794807733     2.400256798535
H                    -2.853427672591    -4.771948103229     2.012966031826
H                    -4.144381397120    -4.214478178985     0.944460044213
H                    -1.154080779548    -4.195810907826     0.389188824821
H                    -2.722327828724     2.548946593429    -4.115866180405
H                    -2.498182798238     4.291493074445    -4.351113184726
H                    -1.840688131015     3.486720769341    -2.905578748174
H                    -4.087545251103    -7.044939550050    -2.081152404583
H                    -3.187194561614    -8.337914001259    -1.280591609228
H                    -2.393734393075    -7.346186435686    -2.506506422380
H                   -12.655691450636     4.874892189877    -0.962793944313
H                   -12.477173111150     3.815525754164    -2.387791473702
H                   -12.289177181362     5.588955456411    -2.556650360554
H                    -2.367560997187     4.266184015447    -0.567612499796
H                    -3.787797667382     4.564215842605     0.440777369154
H                    -1.681159336901    -6.637919659898    -0.193548237003
H                    -3.367046565257    -6.400802765570     0.259077595110
H                    -2.697103332244     2.516707942982     1.207059975131
H                    -4.253238472878     2.081871678123     0.446178220559
H                    -3.575215116615    -4.572419835656    -1.407886970582
H                    -3.013619419915    -4.329942587854    -3.369872196934
