
  -OEChem-05262117483D

 56 58  0     0  0  0  0  0  0999 V2000
    6.4470   -1.7489    2.1225 C   0  0  0  0  0  0  0  0  0  0  0  0
    7.0397   -1.4012    3.3210 C   0  0  0  0  0  0  0  0  0  0  0  0
   12.6524   -4.5652    3.6208 C   0  0  0  0  0  0  0  0  0  0  0  0
   12.1564   -3.1019    5.5133 C   0  0  0  0  0  0  0  0  0  0  0  0
   11.3075   -4.9480    3.5785 C   0  0  0  0  0  0  0  0  0  0  0  0
   10.8134   -3.4899    5.4661 C   0  0  0  0  0  0  0  0  0  0  0  0
    3.3741   -1.0266   -1.3636 C   0  0  0  0  0  0  0  0  0  0  0  0
    2.2297   -2.4801    0.1845 C   0  0  0  0  0  0  0  0  0  0  0  0
    7.2342   -4.0006    2.3318 C   0  0  0  0  0  0  0  0  0  0  0  0
    6.5362   -3.0587    1.5867 C   0  0  0  0  0  0  0  0  0  0  0  0
    4.5860   -1.6583   -1.0439 C   0  0  0  0  0  0  0  0  0  0  0  0
    3.4280   -3.1188    0.5048 C   0  0  0  0  0  0  0  0  0  0  0  0
    4.6319   -2.7157   -0.1147 C   0  0  0  0  0  0  0  0  0  0  0  0
    7.7938   -2.3348    4.1332 C   0  0  0  0  0  0  0  0  0  0  0  0
    2.1818   -1.4338   -0.7521 C   0  0  0  0  0  0  0  0  0  0  0  0
   13.0433   -3.6486    4.5920 C   0  0  0  0  0  0  0  0  0  0  0  0
   10.4033   -4.4116    4.4972 C   0  0  0  0  0  0  0  0  0  0  0  0
    7.8313   -3.6680    3.5630 C   0  0  0  0  0  0  0  0  0  0  0  0
    1.3030    0.2657   -3.2061 C   0  0  0  0  0  0  0  0  0  0  0  0
    5.8429   -1.1620   -1.7340 C   0  0  0  0  0  0  0  0  0  0  0  0
    3.4238   -4.2363    1.5253 C   0  0  0  0  0  0  0  0  0  0  0  0
    1.3556    1.4988   -0.9041 C   0  0  0  0  0  0  0  0  0  0  0  0
   -0.7616    0.4683   -1.7835 C   0  0  0  0  0  0  0  0  0  0  0  0
    5.9352   -3.4156    0.2309 C   0  0  0  0  0  0  0  0  0  0  0  0
    0.7615    0.3442   -1.7135 C   0  0  0  0  0  0  0  0  0  0  0  0
    8.3634   -1.9965    5.2178 O   0  5  0  0  0  0  0  0  0  0  0  0
    0.8936   -0.7211   -3.8660 O   0  5  0  0  0  0  0  0  0  0  0  0
    2.0458    1.2235   -3.5648 O   0  0  0  0  0  0  0  0  0  0  0  0
    8.6825   -6.1693    3.5758 O   0  0  0  0  0  0  0  0  0  0  0  0
    8.2275   -5.0975    5.8304 O   0  0  0  0  0  0  0  0  0  0  0  0
    0.9463   -0.9056   -0.9746 O   0  0  0  0  0  0  0  0  0  0  0  0
   14.3621   -3.2721    4.6429 F   0  0  0  0  0  0  0  0  0  0  0  0
    8.6743   -4.9521    4.4304 S   0  0  0  0  0  0  0  0  0  0  0  0
    5.8789   -1.0002    1.5718 H   0  0  0  0  0  0  0  0  0  0  0  0
    6.9573   -0.3875    3.7088 H   0  0  0  0  0  0  0  0  0  0  0  0
   13.3837   -4.9636    2.9233 H   0  0  0  0  0  0  0  0  0  0  0  0
   12.5117   -2.3812    6.2444 H   0  0  0  0  0  0  0  0  0  0  0  0
   10.9508   -5.6663    2.8470 H   0  0  0  0  0  0  0  0  0  0  0  0
   10.0695   -3.0663    6.1308 H   0  0  0  0  0  0  0  0  0  0  0  0
    3.3663   -0.2309   -2.0998 H   0  0  0  0  0  0  0  0  0  0  0  0
    1.2988   -2.7824    0.6591 H   0  0  0  0  0  0  0  0  0  0  0  0
    7.3250   -5.0245    1.9766 H   0  0  0  0  0  0  0  0  0  0  0  0
    6.6277   -0.9018   -1.0142 H   0  0  0  0  0  0  0  0  0  0  0  0
    6.2623   -1.9196   -2.4084 H   0  0  0  0  0  0  0  0  0  0  0  0
    5.6227   -0.2750   -2.3339 H   0  0  0  0  0  0  0  0  0  0  0  0
    3.7532   -5.1866    1.0848 H   0  0  0  0  0  0  0  0  0  0  0  0
    4.1058   -4.0241    2.3551 H   0  0  0  0  0  0  0  0  0  0  0  0
    2.4192   -4.3887    1.9321 H   0  0  0  0  0  0  0  0  0  0  0  0
    0.9231    1.5137    0.1054 H   0  0  0  0  0  0  0  0  0  0  0  0
    1.1405    2.4435   -1.4096 H   0  0  0  0  0  0  0  0  0  0  0  0
    2.4404    1.4189   -0.8201 H   0  0  0  0  0  0  0  0  0  0  0  0
   -1.1991    0.4894   -0.7765 H   0  0  0  0  0  0  0  0  0  0  0  0
   -1.1585   -0.3834   -2.3406 H   0  0  0  0  0  0  0  0  0  0  0  0
   -1.0341    1.3899   -2.3096 H   0  0  0  0  0  0  0  0  0  0  0  0
    6.6710   -3.2083   -0.5541 H   0  0  0  0  0  0  0  0  0  0  0  0
    5.7841   -4.5022    0.2038 H   0  0  0  0  0  0  0  0  0  0  0  0
  1  2  1  0  0  0  0
  1 10  2  0  0  0  0
  1 34  1  0  0  0  0
  2 14  2  0  0  0  0
  2 35  1  0  0  0  0
  3  5  2  0  0  0  0
  3 16  1  0  0  0  0
  3 36  1  0  0  0  0
  4  6  1  0  0  0  0
  4 16  2  0  0  0  0
  4 37  1  0  0  0  0
  5 17  1  0  0  0  0
  5 38  1  0  0  0  0
  6 17  2  0  0  0  0
  6 39  1  0  0  0  0
  7 11  2  0  0  0  0
  7 15  1  0  0  0  0
  7 40  1  0  0  0  0
  8 12  1  0  0  0  0
  8 15  2  0  0  0  0
  8 41  1  0  0  0  0
  9 10  1  0  0  0  0
  9 18  2  0  0  0  0
  9 42  1  0  0  0  0
 10 24  1  0  0  0  0
 11 13  1  0  0  0  0
 11 20  1  0  0  0  0
 12 13  2  0  0  0  0
 12 21  1  0  0  0  0
 13 24  1  0  0  0  0
 14 18  1  0  0  0  0
 14 26  1  0  0  0  0
 15 31  1  0  0  0  0
 16 32  1  0  0  0  0
 17 33  1  0  0  0  0
 18 33  1  0  0  0  0
 19 25  1  0  0  0  0
 19 27  1  0  0  0  0
 19 28  2  0  0  0  0
 20 43  1  0  0  0  0
 20 44  1  0  0  0  0
 20 45  1  0  0  0  0
 21 46  1  0  0  0  0
 21 47  1  0  0  0  0
 21 48  1  0  0  0  0
 22 25  1  0  0  0  0
 22 49  1  0  0  0  0
 22 50  1  0  0  0  0
 22 51  1  0  0  0  0
 23 25  1  0  0  0  0
 23 52  1  0  0  0  0
 23 53  1  0  0  0  0
 23 54  1  0  0  0  0
 24 55  1  0  0  0  0
 24 56  1  0  0  0  0
 25 31  1  0  0  0  0
 29 33  2  0  0  0  0
 30 33  2  0  0  0  0
M  CHG  2  26  -1  27  -1
M  END
$$$$
