
  -OEChem-05262117483D

 59 63  0     0  0  0  0  0  0999 V2000
    1.5443    6.5086    2.0419 C   0  0  0  0  0  0  0  0  0  0  0  0
    0.2015    6.9158    2.1626 C   0  0  0  0  0  0  0  0  0  0  0  0
    1.8887    5.1580    2.1152 C   0  0  0  0  0  0  0  0  0  0  0  0
   -6.3068   -0.1593    4.8254 C   0  0  0  0  0  0  0  0  0  0  0  0
   -5.1279   -2.2313    5.5356 C   0  0  0  0  0  0  0  0  0  0  0  0
    1.8521    1.7743    2.3400 C   0  0  0  0  0  0  0  0  0  0  0  0
   -0.8245    5.9884    2.3583 C   0  0  0  0  0  0  0  0  0  0  0  0
   -6.4337    0.9075    3.9614 C   0  0  0  0  0  0  0  0  0  0  0  0
   -4.1219   -3.1462    5.3510 C   0  0  0  0  0  0  0  0  0  0  0  0
    1.4882    0.4320    2.4373 C   0  0  0  0  0  0  0  0  0  0  0  0
   -4.5631    0.0725    2.6364 C   0  0  0  0  0  0  0  0  0  0  0  0
   -3.3498   -1.9685    3.3634 C   0  0  0  0  0  0  0  0  0  0  0  0
   -0.8702    1.0348    2.7160 C   0  0  0  0  0  0  0  0  0  0  0  0
   -5.2958   -1.1376    4.6410 C   0  0  0  0  0  0  0  0  0  0  0  0
    0.8766    4.2086    2.3049 C   0  0  0  0  0  0  0  0  0  0  0  0
    0.8622    2.7619    2.4096 C   0  0  0  0  0  0  0  0  0  0  0  0
   -4.3951   -1.0189    3.5345 C   0  0  0  0  0  0  0  0  0  0  0  0
   -0.4723    4.6383    2.4226 C   0  0  0  0  0  0  0  0  0  0  0  0
   -0.4953    2.3770    2.5897 C   0  0  0  0  0  0  0  0  0  0  0  0
   -5.5490    1.0072    2.8611 C   0  0  0  0  0  0  0  0  0  0  0  0
   -3.2147   -3.0140    4.2594 C   0  0  0  0  0  0  0  0  0  0  0  0
    0.1383    0.0749    2.6205 C   0  0  0  0  0  0  0  0  0  0  0  0
   -3.3566    4.0459    3.8898 C   0  0  0  0  0  0  0  0  0  0  0  0
   -6.7986    2.2133    1.2118 C   0  0  0  0  0  0  0  0  0  0  0  0
   -2.7253    3.5422    2.5819 C   0  0  0  0  0  0  0  0  0  0  0  0
    0.0628   -3.4251    3.6837 C   0  0  0  0  0  0  0  0  0  0  0  0
   -1.2570   -4.0165    3.1928 C   0  0  0  0  0  0  0  0  0  0  0  0
    0.0577   -1.9216    3.9189 C   0  0  0  0  0  0  0  0  0  0  0  0
   -1.2900    3.5201    2.5907 N   0  0  0  0  0  0  0  0  0  0  0  0
   -2.7276    4.4903    4.8192 O   0  0  0  0  0  0  0  0  0  0  0  0
   -4.7105    4.0028    3.8967 O   0  0  0  0  0  0  0  0  0  0  0  0
   -5.6116    2.1260    2.0217 O   0  0  0  0  0  0  0  0  0  0  0  0
   -2.2616   -3.9908    4.2212 O   0  0  0  0  0  0  0  0  0  0  0  0
   -0.2075   -1.2687    2.6636 O   0  0  0  0  0  0  0  0  0  0  0  0
    2.3185    7.2570    1.8966 H   0  0  0  0  0  0  0  0  0  0  0  0
   -0.0422    7.9738    2.1152 H   0  0  0  0  0  0  0  0  0  0  0  0
    2.9272    4.8488    2.0255 H   0  0  0  0  0  0  0  0  0  0  0  0
   -6.9732   -0.2461    5.6803 H   0  0  0  0  0  0  0  0  0  0  0  0
   -5.8070   -2.3344    6.3785 H   0  0  0  0  0  0  0  0  0  0  0  0
    2.8939    2.0472    2.1926 H   0  0  0  0  0  0  0  0  0  0  0  0
   -1.8515    6.3168    2.4853 H   0  0  0  0  0  0  0  0  0  0  0  0
   -7.1765    1.6811    4.1315 H   0  0  0  0  0  0  0  0  0  0  0  0
   -3.9827   -3.9831    6.0288 H   0  0  0  0  0  0  0  0  0  0  0  0
    2.2322   -0.3553    2.3561 H   0  0  0  0  0  0  0  0  0  0  0  0
   -3.9158    0.1746    1.7694 H   0  0  0  0  0  0  0  0  0  0  0  0
   -2.6490   -1.8250    2.5498 H   0  0  0  0  0  0  0  0  0  0  0  0
   -1.8924    0.7220    2.8958 H   0  0  0  0  0  0  0  0  0  0  0  0
   -6.6976    3.1203    0.6132 H   0  0  0  0  0  0  0  0  0  0  0  0
   -7.6982    2.2794    1.8322 H   0  0  0  0  0  0  0  0  0  0  0  0
   -6.8663    1.3388    0.5565 H   0  0  0  0  0  0  0  0  0  0  0  0
   -3.1014    2.5424    2.3605 H   0  0  0  0  0  0  0  0  0  0  0  0
   -3.0837    4.1885    1.7697 H   0  0  0  0  0  0  0  0  0  0  0  0
    0.3409   -3.9241    4.6190 H   0  0  0  0  0  0  0  0  0  0  0  0
    0.8357   -3.6609    2.9422 H   0  0  0  0  0  0  0  0  0  0  0  0
   -1.6058   -3.5247    2.2827 H   0  0  0  0  0  0  0  0  0  0  0  0
   -1.1173   -5.0774    2.9675 H   0  0  0  0  0  0  0  0  0  0  0  0
    1.0338   -1.6013    4.3017 H   0  0  0  0  0  0  0  0  0  0  0  0
   -0.7068   -1.6279    4.6498 H   0  0  0  0  0  0  0  0  0  0  0  0
   -5.0500    3.4906    3.1273 H   0  0  0  0  0  0  0  0  0  0  0  0
  1  2  1  0  0  0  0
  1  3  2  0  0  0  0
  1 35  1  0  0  0  0
  2  7  2  0  0  0  0
  2 36  1  0  0  0  0
  3 15  1  0  0  0  0
  3 37  1  0  0  0  0
  4  8  2  0  0  0  0
  4 14  1  0  0  0  0
  4 38  1  0  0  0  0
  5  9  2  0  0  0  0
  5 14  1  0  0  0  0
  5 39  1  0  0  0  0
  6 10  2  0  0  0  0
  6 16  1  0  0  0  0
  6 40  1  0  0  0  0
  7 18  1  0  0  0  0
  7 41  1  0  0  0  0
  8 20  1  0  0  0  0
  8 42  1  0  0  0  0
  9 21  1  0  0  0  0
  9 43  1  0  0  0  0
 10 22  1  0  0  0  0
 10 44  1  0  0  0  0
 11 17  1  0  0  0  0
 11 20  2  0  0  0  0
 11 45  1  0  0  0  0
 12 17  1  0  0  0  0
 12 21  2  0  0  0  0
 12 46  1  0  0  0  0
 13 19  1  0  0  0  0
 13 22  2  0  0  0  0
 13 47  1  0  0  0  0
 14 17  2  0  0  0  0
 15 16  1  0  0  0  0
 15 18  2  0  0  0  0
 16 19  2  0  0  0  0
 18 29  1  0  0  0  0
 19 29  1  0  0  0  0
 20 32  1  0  0  0  0
 21 33  1  0  0  0  0
 22 34  1  0  0  0  0
 23 25  1  0  0  0  0
 23 30  2  0  0  0  0
 23 31  1  0  0  0  0
 24 32  1  0  0  0  0
 24 48  1  0  0  0  0
 24 49  1  0  0  0  0
 24 50  1  0  0  0  0
 25 29  1  0  0  0  0
 25 51  1  0  0  0  0
 25 52  1  0  0  0  0
 26 27  1  0  0  0  0
 26 28  1  0  0  0  0
 26 53  1  0  0  0  0
 26 54  1  0  0  0  0
 27 33  1  0  0  0  0
 27 55  1  0  0  0  0
 27 56  1  0  0  0  0
 28 34  1  0  0  0  0
 28 57  1  0  0  0  0
 28 58  1  0  0  0  0
 31 59  1  0  0  0  0
M  END
$$$$
