59
0 1 C28H25NO5
C                     5.922984473366     1.644588397299    -1.927155988870
C                     6.982258811077     1.395099837211    -1.035506163374
C                     4.662544181033     1.082312692007    -1.710693722466
C                     3.071789473511    -2.743877596942    -3.062667950679
C                     1.145983563875    -3.958986346864    -2.054922392026
C                     1.975734335099    -0.564466768824    -0.456533572975
C                     6.805206990978     0.583883370789     0.090061029324
C                     4.396476996362    -2.356235472440    -3.024016423870
C                     0.620832052960    -4.720219602107    -1.034646917170
C                     1.104643139489    -1.326590655772     0.310692857600
C                     4.695923070784    -3.556351615963    -0.928913066477
C                     2.777694354375    -4.747321190697     0.088121981147
C                     2.866159189437    -1.808647736810     1.943292697565
C                     2.506492896611    -3.551159577885    -2.044988666844
C                     4.457854398324     0.280417274684    -0.582243027271
C                     3.306097220033    -0.414804833060    -0.044513852493
C                     3.341684747291    -3.961829616017    -0.955602553022
C                     5.538179722982     0.042134523584     0.311049427788
C                     3.725252911077    -1.042902457372     1.152594320763
C                     5.217988859423    -2.771843522421    -1.941763698224
C                     1.447942552700    -5.103860723555     0.058072457443
C                     1.549620598747    -1.957418638695     1.491873167238
C                     6.168882618996    -2.454262984207     2.854529774093
C                     7.149920111692    -1.715167571817    -2.890335586950
C                     5.773918692772    -0.994378605812     2.589874169631
C                     0.039683940964    -4.841060895945     3.107472586049
C                    -0.258497839141    -5.431683476098     1.726882936124
C                     1.077257303360    -3.727230499231     3.054302971338
N                     5.081553723915    -0.771114316709     1.356177498673
O                     5.858292612279    -3.398009279490     2.175261544317
O                     6.898500091828    -2.629681504137     3.995955529360
O                     6.538984312876    -2.426138750074    -1.819173669500
O                     0.949122619324    -5.882078381759     1.088248742659
O                     0.618207990175    -2.733564679246     2.129027648927
H                     6.091689565445     2.276191503125    -2.795222137663
H                     7.959826726932     1.828786416954    -1.228479232374
H                     3.848364417483     1.269681419798    -2.405969488779
H                     2.442895458664    -2.421986936806    -3.890097004516
H                     0.514099681913    -3.665062157259    -2.890439258057
H                     1.629233262177    -0.111196748126    -1.381038180529
H                     7.643351004898     0.378173911221     0.750472500165
H                     4.795275647578    -1.728993966895    -3.812720776274
H                    -0.415524910950    -5.043119646605    -1.065945928811
H                     0.079812396076    -1.495576026561    -0.001987298556
H                     5.332157196884    -3.833186699604    -0.095807761538
H                     3.398685874888    -5.053769226843     0.924711462925
H                     3.219546482444    -2.314146839104     2.833085470892
H                     8.190128787181    -1.570680782794    -2.594063834945
H                     6.685271648525    -0.736064962674    -3.040285019401
H                     7.115054117560    -2.293805034288    -3.822746414246
H                     5.152593721824    -0.666152673153     3.437387927537
H                     6.676297019995    -0.376145447969     2.608358795276
H                    -0.899501608778    -4.468770879671     3.535002146611
H                     0.419354545256    -5.623481898693     3.774455453576
H                    -0.915882067080    -6.301640412107     1.823684524214
H                    -0.760352423901    -4.684009079811     1.108991769637
H                     2.032109123257    -4.136207588338     2.714490200932
H                     1.221715813153    -3.275694100117     4.044851413666
H                     7.069148036869    -1.775730337213     4.430465254838
