35
0 1 C14ClH17O3
C                    -2.882057932432     1.547480463229    -0.495879078654
C                    -2.824633166728     3.956944553639    -0.280981938518
C                    -1.487420336806     1.506485999028    -0.652239191381
C                    -3.544734059480     2.759483657314    -0.293399663862
C                    -0.748098484196     2.706070123659    -0.626169318431
C                    -1.444487755779     3.916515488829    -0.458069028278
C                    -0.794101155603     0.175778995445    -0.827678111092
C                    -1.433183461621    -2.674642998215    -4.097757461084
C                    -1.439215938945    -3.203563145180    -2.656712257065
C                    -2.086930109539    -1.288926134421    -4.185515146055
C                    -0.781379973589    -2.211759875515    -1.687646361574
C                    -1.431752412982    -0.293594401075    -3.218092144716
C                    -1.448226884907    -0.833865912511    -1.768298408422
C                     1.114646800731     2.703525231077    -2.078410060108
O                     0.263391923991    -0.062264715725    -0.266211448962
O                    -4.902616889924     2.844687644194    -0.106821807288
O                     0.614777249650     2.723954620013    -0.736377378316
Cl                   -0.551880394704     5.421517140489    -0.463723466694
H                    -3.454039160526     0.623096936713    -0.502470615825
H                    -3.343324466380     4.898302010699    -0.134498235790
H                    -1.946933637862    -3.377361192196    -4.764057113207
H                    -0.395575104736    -2.605840229259    -4.452201690317
H                    -2.476801112577    -3.388046687691    -2.343860753328
H                    -0.923148696787    -4.169131655568    -2.605867847018
H                    -2.027367780118    -0.901879201986    -5.209408552583
H                    -3.155558871556    -1.374277698241    -3.943608044364
H                    -0.826160600188    -2.586123552066    -0.659760773376
H                     0.282786575685    -2.104385866516    -1.925746684122
H                    -0.388300050528    -0.129285692095    -3.519010675893
H                    -1.935926339122     0.677221509911    -3.269099599554
H                    -2.503563530326    -0.941051201041    -1.481384134075
H                     2.202068195989     2.740252547837    -1.998180227881
H                     0.755358356309     3.572264339820    -2.643172691911
H                     0.819804975509     1.781617677104    -2.593175944378
H                    -5.284016697171     1.952587801106    -0.113440115534
