35
0 1 C14ClH17O3
C                    -2.406900173906     1.922632359819    -1.281275644857
C                    -3.072976634957     3.767617034069     0.135558161867
C                    -1.755584761890     1.301822204212    -0.203536144639
C                    -3.044837996620     3.153870843880    -1.119486258617
C                    -1.763671796194     1.918319211003     1.063802030843
C                    -2.445476419966     3.140089735788     1.208054674826
C                    -1.038068259508    -0.009956834351    -0.419545504144
C                    -2.853906673219    -3.777611741633    -1.736437225370
C                    -3.769923982119    -2.596518217057    -1.388258554855
C                    -1.571992343219    -3.301997879978    -2.434213216418
C                    -3.034430213326    -1.538809820548    -0.553901470641
C                    -0.832551272274    -2.246807155175    -1.600361030764
C                    -1.747470760717    -1.062457560888    -1.268670553739
C                    -1.858393876599     0.389212796548     2.861494661662
O                     0.047104354859    -0.226570334310     0.095894927608
O                    -3.669045824468     3.811377872682    -2.150973030028
O                    -1.115471078905     1.378695243137     2.140156160999
Cl                   -2.503743704582     3.903296012385     2.781564565990
H                    -2.391616996302     1.456388141606    -2.263147808767
H                    -3.578829434007     4.718947121419     0.261004530421
H                    -3.388199752199    -4.496146814894    -2.368849649531
H                    -2.585808495830    -4.309151257581    -0.813082493437
H                    -4.134549877225    -2.132606728408    -2.315407180466
H                    -4.654800090605    -2.946108753538    -0.843748323379
H                    -0.908743027291    -4.152738444095    -2.628052934812
H                    -1.830399544887    -2.878599394228    -3.415259805670
H                    -3.693231747171    -0.688631914683    -0.347853316491
H                    -2.756548644708    -1.971781233165     0.416489526920
H                    -0.475320665730    -2.690974629336    -0.664534565661
H                     0.058845670016    -1.890986657728    -2.127149937680
H                    -2.062855589222    -0.592344147080    -2.210512276740
H                    -1.221256550835     0.074566202002     3.689337860168
H                    -2.080579189245    -0.475757416849     2.225657937063
H                    -2.793005520163     0.809322594103     3.252342049571
H                    -3.562068835964     3.300276985105    -2.968703683790
