33
0 1 C10H19NO2S
C                    -0.951974175392    -0.616154909600    -0.647442924939
C                     1.993210158476     0.803436132647    -0.233001514912
C                     2.206107760187    -0.658232382589    -0.653959572952
C                     0.601663185307     1.385696204716    -0.529783616003
C                     1.256145749387    -1.667671011976     0.012544108737
C                    -0.533420603346     0.610313010157     0.163188901209
C                    -5.492682003052     4.697998313300    -1.889327078618
C                    -4.348301115861     3.698347128638    -2.089967914818
C                    -3.707680338230     3.263801413819    -0.764826622509
C                    -2.578806179556     2.256940755882    -0.980984537932
N                    -0.098893981240    -1.683710251521    -0.542235018184
O                    -1.941694164339    -0.659072483161    -1.373022696276
O                    -2.991990994796     0.914532411188     1.342816858917
S                    -1.922074120196     1.750261561949     0.666046853586
H                     2.183684209266     0.891640242097     0.844973860756
H                     2.745615324942     1.426634269210    -0.730012561829
H                     2.113622707646    -0.757703177572    -1.742629159663
H                     3.234194647396    -0.940793581699    -0.396763774337
H                     0.587393995906     2.426782023183    -0.182757842709
H                     0.418420383434     1.410540810169    -1.609699897261
H                     1.650181096610    -2.678584124868    -0.117897364596
H                     1.215668233112    -1.492185905678     1.094637848381
H                    -0.193064436738     0.279094278740     1.150872203491
H                    -5.139924393884     5.609580677958    -1.393166699943
H                    -5.938896689213     4.989362158348    -2.846172891163
H                    -6.285604453461     4.267894289733    -1.267247045875
H                    -4.722423884486     2.810710995866    -2.615053701923
H                    -3.582169309513     4.141214377350    -2.740197751537
H                    -3.329221697920     4.147249003133    -0.233226907361
H                    -4.468991329605     2.808621238019    -0.121636165634
H                    -2.917026295895     1.347945221101    -1.478089370926
H                    -1.745806678309     2.696212197821    -1.541847265986
H                    -0.342918596124    -2.444215845765    -1.167342452582
