46
-1 1 C22ClFH15N6O
C                    -0.786061223364     3.984020122586     4.047291661455
C                     1.430749743879    -2.300359581972     0.217109598303
C                    -1.460067341415     3.169362062214     3.135085322782
C                     0.285292446740    -1.667177257888     0.697440122272
C                    -0.801857575861     3.686186773923     5.413390100389
C                     1.738452004099    -0.188797273422     1.951852578165
C                     4.891675209158    -1.980350453743    -0.747981652451
C                    -2.165399168098     1.724948804002     4.940424876509
C                     3.875027064160    -4.045770298142    -0.084150167507
C                     5.780913436519    -4.150359242189    -1.352240346141
C                     2.733768883440    -1.909217135433     0.569499699190
C                     2.897272004785    -0.827305670879     1.475589331403
C                     3.856227863831    -2.641032810398    -0.071786243611
C                    -2.153412595179     2.029246152837     3.571770379353
C                     0.454427024335    -0.586210930291     1.574786515310
C                     5.840442618279    -2.758920014792    -1.385546093017
C                    -1.501607815954     2.557296713474     5.841490230403
C                     4.180772405888    -0.328577793171     1.982926752993
C                    -1.952814823421     0.090892959401     1.851830798578
C                    -4.241816219828     0.661449610693     2.838164175087
C                    -3.965842901275     1.656193279987     1.746814930232
C                    -2.812891041929     1.113486098146     2.584429015510
N                     4.282831009726     0.851609097382     2.638116535957
N                     4.803037878201    -4.791847849278    -0.701867986123
N                     5.372549764342    -0.957366057244     1.911498402513
N                     5.577113301244     0.945957308796     2.970309599038
N                     6.229600533859    -0.136831007688     2.539308593639
N                    -0.620534496614     0.155359745545     2.130654149169
O                    -2.469912617030    -0.707923022272     1.065486692952
F                     6.854818042409    -2.161889992927    -2.073777605763
Cl                   -1.541958964712     2.168386479288     7.557495241031
H                    -0.234472283592     4.852322210330     3.697659357018
H                     1.311126938778    -3.117048010633    -0.490450471904
H                    -1.438986503582     3.403746010254     2.074062631192
H                    -0.703579779148    -1.981618653387     0.394170239785
H                    -0.276355696714     4.309949283273     6.129204583650
H                     1.882297266297     0.638976920376     2.641985821512
H                     4.960126948411    -0.899053422140    -0.768047449018
H                    -2.683796213471     0.839689491839     5.295297241856
H                     3.102807687849    -4.594094902454     0.452382738685
H                     6.539887528414    -4.745942049051    -1.857131138064
H                    -4.715222544664     1.019252099049     3.747455863894
H                    -4.479126216213    -0.353414646177     2.538064138177
H                    -4.019791258461     1.302598956980     0.722685526544
H                    -4.241367398177     2.693062513896     1.915127436323
H                    -0.331935348488     0.869279192297     2.788010944561
