
  -OEChem-05262117483D

 47 51  0     0  0  0  0  0  0999 V2000
   -0.7500    4.2768    4.1744 C   0  0  0  0  0  0  0  0  0  0  0  0
    1.3637   -2.0820    0.1396 C   0  0  0  0  0  0  0  0  0  0  0  0
   -1.4533    3.4812    3.2668 C   0  0  0  0  0  0  0  0  0  0  0  0
    0.2746   -1.3589    0.6225 C   0  0  0  0  0  0  0  0  0  0  0  0
   -0.5864    3.8669    5.5011 C   0  0  0  0  0  0  0  0  0  0  0  0
    1.7599   -0.2801    2.1983 C   0  0  0  0  0  0  0  0  0  0  0  0
    3.7552   -4.0567   -0.1216 C   0  0  0  0  0  0  0  0  0  0  0  0
   -1.8450    1.8435    5.0033 C   0  0  0  0  0  0  0  0  0  0  0  0
    4.8921   -1.9796   -0.5066 C   0  0  0  0  0  0  0  0  0  0  0  0
    5.9037   -3.9084   -1.2264 C   0  0  0  0  0  0  0  0  0  0  0  0
    2.6599   -1.9288    0.6510 C   0  0  0  0  0  0  0  0  0  0  0  0
    2.8438   -1.0221    1.7178 C   0  0  0  0  0  0  0  0  0  0  0  0
    3.7822   -2.6649    0.0184 C   0  0  0  0  0  0  0  0  0  0  0  0
   -2.0093    2.2586    3.6733 C   0  0  0  0  0  0  0  0  0  0  0  0
    0.4754   -0.4320    1.6589 C   0  0  0  0  0  0  0  0  0  0  0  0
    4.8350   -4.6620   -0.7488 C   0  0  0  0  0  0  0  0  0  0  0  0
   -1.1404    2.6484    5.8996 C   0  0  0  0  0  0  0  0  0  0  0  0
    4.1396   -0.8642    2.3982 C   0  0  0  0  0  0  0  0  0  0  0  0
   -1.8867    0.3832    1.8937 C   0  0  0  0  0  0  0  0  0  0  0  0
   -4.1273    0.8929    2.9986 C   0  0  0  0  0  0  0  0  0  0  0  0
   -3.9182    1.9252    1.9328 C   0  0  0  0  0  0  0  0  0  0  0  0
   -2.7131    1.3740    2.6873 C   0  0  0  0  0  0  0  0  0  0  0  0
    5.9247   -2.5741   -1.1098 N   0  0  0  0  0  0  0  0  0  0  0  0
    5.0292   -1.8799    2.6252 N   0  0  0  0  0  0  0  0  0  0  0  0
    4.5627    0.2906    2.9268 N   0  0  0  0  0  0  0  0  0  0  0  0
    6.0283   -1.3654    3.2989 N   0  0  0  0  0  0  0  0  0  0  0  0
    5.7232   -0.0800    3.4647 N   0  0  0  0  0  0  0  0  0  0  0  0
   -0.5472    0.3662    2.2069 N   0  0  0  0  0  0  0  0  0  0  0  0
   -2.3991   -0.3421    1.0426 O   0  0  0  0  0  0  0  0  0  0  0  0
    4.8546   -6.0102   -0.8944 F   0  0  0  0  0  0  0  0  0  0  0  0
   -0.9460    2.1162    7.5615 Cl  0  0  0  0  0  0  0  0  0  0  0  0
   -0.3242    5.2233    3.8528 H   0  0  0  0  0  0  0  0  0  0  0  0
    1.2084   -2.7682   -0.6885 H   0  0  0  0  0  0  0  0  0  0  0  0
   -1.5757    3.8043    2.2364 H   0  0  0  0  0  0  0  0  0  0  0  0
   -0.7130   -1.4929    0.2040 H   0  0  0  0  0  0  0  0  0  0  0  0
   -0.0435    4.4795    6.2138 H   0  0  0  0  0  0  0  0  0  0  0  0
    1.9242    0.4081    3.0237 H   0  0  0  0  0  0  0  0  0  0  0  0
    2.9377   -4.6559    0.2685 H   0  0  0  0  0  0  0  0  0  0  0  0
   -2.2652    0.8982    5.3336 H   0  0  0  0  0  0  0  0  0  0  0  0
    4.9356   -0.8940   -0.4387 H   0  0  0  0  0  0  0  0  0  0  0  0
    6.7478   -4.3947   -1.7110 H   0  0  0  0  0  0  0  0  0  0  0  0
   -4.5478    1.2119    3.9473 H   0  0  0  0  0  0  0  0  0  0  0  0
   -4.3718   -0.1145    2.6800 H   0  0  0  0  0  0  0  0  0  0  0  0
   -4.0220    1.6083    0.9008 H   0  0  0  0  0  0  0  0  0  0  0  0
   -4.1948    2.9517    2.1521 H   0  0  0  0  0  0  0  0  0  0  0  0
    6.3381    0.5653    3.9489 H   0  0  0  0  0  0  0  0  0  0  0  0
   -0.2519    1.0112    2.9298 H   0  0  0  0  0  0  0  0  0  0  0  0
  1  3  1  0  0  0  0
  1  5  2  0  0  0  0
  1 32  1  0  0  0  0
  2  4  2  0  0  0  0
  2 11  1  0  0  0  0
  2 33  1  0  0  0  0
  3 14  2  0  0  0  0
  3 34  1  0  0  0  0
  4 15  1  0  0  0  0
  4 35  1  0  0  0  0
  5 17  1  0  0  0  0
  5 36  1  0  0  0  0
  6 12  1  0  0  0  0
  6 15  2  0  0  0  0
  6 37  1  0  0  0  0
  7 13  1  0  0  0  0
  7 16  2  0  0  0  0
  7 38  1  0  0  0  0
  8 14  1  0  0  0  0
  8 17  2  0  0  0  0
  8 39  1  0  0  0  0
  9 13  2  0  0  0  0
  9 23  1  0  0  0  0
  9 40  1  0  0  0  0
 10 16  1  0  0  0  0
 10 23  2  0  0  0  0
 10 41  1  0  0  0  0
 11 12  2  0  0  0  0
 11 13  1  0  0  0  0
 12 18  1  0  0  0  0
 14 22  1  0  0  0  0
 15 28  1  0  0  0  0
 16 30  1  0  0  0  0
 17 31  1  0  0  0  0
 18 24  1  0  0  0  0
 18 25  2  0  0  0  0
 19 22  1  0  0  0  0
 19 28  1  0  0  0  0
 19 29  2  0  0  0  0
 20 21  1  0  0  0  0
 20 22  1  0  0  0  0
 20 42  1  0  0  0  0
 20 43  1  0  0  0  0
 21 22  1  0  0  0  0
 21 44  1  0  0  0  0
 21 45  1  0  0  0  0
 24 26  2  0  0  0  0
 25 27  1  0  0  0  0
 26 27  1  0  0  0  0
 27 46  1  0  0  0  0
 28 47  1  0  0  0  0
M  END
$$$$
