
  -OEChem-05262117483D

 48 50  0     1  0  0  0  0  0999 V2000
   -3.6722    1.6970   -0.5481 C   0  0  0  0  0  0  0  0  0  0  0  0
    3.2297    1.7681    0.2419 C   0  0  0  0  0  0  0  0  0  0  0  0
   -2.4655    1.3621   -1.1629 C   0  0  0  0  0  0  0  0  0  0  0  0
    2.0564    1.6039   -0.5008 C   0  0  0  0  0  0  0  0  0  0  0  0
   -2.9795    0.5059    1.4117 C   0  0  0  0  0  0  0  0  0  0  0  0
    1.7586   -0.6029    0.4830 C   0  0  0  0  0  0  0  0  0  0  0  0
   -1.7658    0.1449    0.8128 C   0  0  0  0  0  0  0  0  0  0  0  0
   -3.9494    1.2759    0.7577 C   0  0  0  0  0  0  0  0  0  0  0  0
    3.6784    0.7710    1.1037 C   0  0  0  0  0  0  0  0  0  0  0  0
    2.9338   -0.4230    1.2316 C   0  0  0  0  0  0  0  0  0  0  0  0
    1.3250    0.4253   -0.3801 C   0  0  0  0  0  0  0  0  0  0  0  0
   -1.5040    0.5872   -0.5000 C   0  0  0  0  0  0  0  0  0  0  0  0
    0.9692   -1.8830    0.4879 C   0  0  0  0  0  0  0  0  0  0  0  0
    8.3684    1.0497    1.6759 C   0  0  0  0  0  0  0  0  0  0  0  0
    7.3835    0.2075    2.0295 C   0  0  0  0  0  0  0  0  0  0  0  0
   -0.7893   -0.6490    1.6488 C   0  0  0  0  0  0  0  0  0  0  0  0
   -5.2627    1.6065    1.4270 C   0  0  0  0  0  0  0  0  0  0  0  0
    7.4667   -0.6569    3.2634 C   0  0  0  0  0  0  0  0  0  0  0  0
    2.6407   -2.2614    2.8179 C   0  0  0  0  0  0  0  0  0  0  0  0
    6.1054    0.1111    1.2295 C   0  0  0  0  0  0  0  0  0  0  0  0
    4.9630    0.9306    1.8853 C   0  0  1  0  0  0  0  0  0  0  0  0
    1.4035   -2.9326    0.0681 O   0  0  0  0  0  0  0  0  0  0  0  0
   -0.2925   -1.8372    0.9960 O   0  0  0  0  0  0  0  0  0  0  0  0
    5.2976    2.3165    1.9351 O   0  0  0  0  0  0  0  0  0  0  0  0
    3.4678   -1.3328    2.1055 O   0  0  0  0  0  0  0  0  0  0  0  0
   -0.0688    0.1374   -1.4770 S   0  0  0  0  0  0  0  0  0  0  0  0
   -4.3978    2.3003   -1.0895 H   0  0  0  0  0  0  0  0  0  0  0  0
    3.8051    2.6845    0.1716 H   0  0  0  0  0  0  0  0  0  0  0  0
   -2.2568    1.7130   -2.1698 H   0  0  0  0  0  0  0  0  0  0  0  0
    1.7151    2.3790   -1.1794 H   0  0  0  0  0  0  0  0  0  0  0  0
   -3.1792    0.1638    2.4260 H   0  0  0  0  0  0  0  0  0  0  0  0
    8.3070    1.6454    0.7675 H   0  0  0  0  0  0  0  0  0  0  0  0
    9.2787    1.1424    2.2642 H   0  0  0  0  0  0  0  0  0  0  0  0
    0.0456   -0.0204    1.9678 H   0  0  0  0  0  0  0  0  0  0  0  0
   -1.2964   -1.0148    2.5439 H   0  0  0  0  0  0  0  0  0  0  0  0
   -6.0103    0.8299    1.2250 H   0  0  0  0  0  0  0  0  0  0  0  0
   -5.1523    1.6810    2.5129 H   0  0  0  0  0  0  0  0  0  0  0  0
   -5.6682    2.5545    1.0617 H   0  0  0  0  0  0  0  0  0  0  0  0
    6.6175   -0.4776    3.9336 H   0  0  0  0  0  0  0  0  0  0  0  0
    8.3889   -0.4808    3.8233 H   0  0  0  0  0  0  0  0  0  0  0  0
    7.4265   -1.7174    2.9865 H   0  0  0  0  0  0  0  0  0  0  0  0
    3.2004   -2.5189    3.7192 H   0  0  0  0  0  0  0  0  0  0  0  0
    2.4530   -3.1591    2.2270 H   0  0  0  0  0  0  0  0  0  0  0  0
    1.6906   -1.7999    3.1081 H   0  0  0  0  0  0  0  0  0  0  0  0
    5.7812   -0.9309    1.1531 H   0  0  0  0  0  0  0  0  0  0  0  0
    6.2522    0.4988    0.2167 H   0  0  0  0  0  0  0  0  0  0  0  0
    4.7971    0.5506    2.9017 H   0  0  0  0  0  0  0  0  0  0  0  0
    6.2283    2.3727    2.2148 H   0  0  0  0  0  0  0  0  0  0  0  0
  1  3  2  0  0  0  0
  1  8  1  0  0  0  0
  1 27  1  0  0  0  0
  2  4  1  0  0  0  0
  2  9  2  0  0  0  0
  2 28  1  0  0  0  0
  3 12  1  0  0  0  0
  3 29  1  0  0  0  0
  4 11  2  0  0  0  0
  4 30  1  0  0  0  0
  5  7  1  0  0  0  0
  5  8  2  0  0  0  0
  5 31  1  0  0  0  0
  6 10  2  0  0  0  0
  6 11  1  0  0  0  0
  6 13  1  0  0  0  0
  7 12  2  0  0  0  0
  7 16  1  0  0  0  0
  8 17  1  0  0  0  0
  9 10  1  0  0  0  0
  9 21  1  0  0  0  0
 10 25  1  0  0  0  0
 11 26  1  0  0  0  0
 12 26  1  0  0  0  0
 13 22  2  0  0  0  0
 13 23  1  0  0  0  0
 14 15  2  0  0  0  0
 14 32  1  0  0  0  0
 14 33  1  0  0  0  0
 15 18  1  0  0  0  0
 15 20  1  0  0  0  0
 16 23  1  0  0  0  0
 16 34  1  0  0  0  0
 16 35  1  0  0  0  0
 17 36  1  0  0  0  0
 17 37  1  0  0  0  0
 17 38  1  0  0  0  0
 18 39  1  0  0  0  0
 18 40  1  0  0  0  0
 18 41  1  0  0  0  0
 19 25  1  0  0  0  0
 19 42  1  0  0  0  0
 19 43  1  0  0  0  0
 19 44  1  0  0  0  0
 20 21  1  0  0  0  0
 20 45  1  0  0  0  0
 20 46  1  0  0  0  0
 21 24  1  0  0  0  0
 21 47  1  0  0  0  0
 24 48  1  0  0  0  0
M  END
$$$$
