
  -OEChem-05262117483D

 46 50  0     0  0  0  0  0  0999 V2000
   -3.9272   -1.6768    3.7570 C   0  0  0  0  0  0  0  0  0  0  0  0
    2.7445   -0.2498    0.2019 C   0  0  0  0  0  0  0  0  0  0  0  0
   -3.5478   -0.6601    2.8781 C   0  0  0  0  0  0  0  0  0  0  0  0
    1.5914    0.3925    0.6508 C   0  0  0  0  0  0  0  0  0  0  0  0
   -3.7176   -1.5420    5.1329 C   0  0  0  0  0  0  0  0  0  0  0  0
    1.0334   -1.6404    1.8451 C   0  0  0  0  0  0  0  0  0  0  0  0
    4.3063   -3.3549   -0.7633 C   0  0  0  0  0  0  0  0  0  0  0  0
   -2.7207    0.6442    4.7378 C   0  0  0  0  0  0  0  0  0  0  0  0
    5.5148   -1.4272   -0.0125 C   0  0  0  0  0  0  0  0  0  0  0  0
    6.6446   -2.9763   -1.2673 C   0  0  0  0  0  0  0  0  0  0  0  0
    3.0725   -1.5735    0.5416 C   0  0  0  0  0  0  0  0  0  0  0  0
    2.1980   -2.2915    1.4007 C   0  0  0  0  0  0  0  0  0  0  0  0
    4.3055   -2.1405   -0.0625 C   0  0  0  0  0  0  0  0  0  0  0  0
   -2.9374    0.5092    3.3590 C   0  0  0  0  0  0  0  0  0  0  0  0
    0.7220   -0.3291    1.4816 C   0  0  0  0  0  0  0  0  0  0  0  0
    5.4892   -3.7488   -1.3620 C   0  0  0  0  0  0  0  0  0  0  0  0
   -3.1193   -0.3730    5.6049 C   0  0  0  0  0  0  0  0  0  0  0  0
    2.4176   -3.6571    1.8911 C   0  0  0  0  0  0  0  0  0  0  0  0
   -1.1149    1.3732    1.7204 C   0  0  0  0  0  0  0  0  0  0  0  0
   -3.4903    2.2905    1.5486 C   0  0  0  0  0  0  0  0  0  0  0  0
   -2.8210    3.0183    2.6796 C   0  0  0  0  0  0  0  0  0  0  0  0
   -2.4604    1.5666    2.4090 C   0  0  0  0  0  0  0  0  0  0  0  0
    3.5732   -4.3522    1.8447 N   0  5  0  0  0  0  0  0  0  0  0  0
    6.6584   -1.8205   -0.5929 N   0  0  0  0  0  0  0  0  0  0  0  0
    1.4388   -4.3653    2.5019 N   0  0  0  0  0  0  0  0  0  0  0  0
    3.2929   -5.5209    2.4425 N   0  0  0  0  0  0  0  0  0  0  0  0
    2.0153   -5.5285    2.8320 N   0  0  0  0  0  0  0  0  0  0  0  0
   -0.4889    0.1963    2.0032 N   0  0  0  0  0  0  0  0  0  0  0  0
   -0.6722    2.2426    0.9641 O   0  0  0  0  0  0  0  0  0  0  0  0
    5.5341   -4.9120   -2.0720 F   0  0  0  0  0  0  0  0  0  0  0  0
   -2.8530   -0.1794    7.3338 Cl  0  0  0  0  0  0  0  0  0  0  0  0
   -4.3800   -2.5870    3.3737 H   0  0  0  0  0  0  0  0  0  0  0  0
    3.4074    0.2893   -0.4703 H   0  0  0  0  0  0  0  0  0  0  0  0
   -3.7080   -0.7741    1.8092 H   0  0  0  0  0  0  0  0  0  0  0  0
    1.3591    1.4069    0.3579 H   0  0  0  0  0  0  0  0  0  0  0  0
   -4.0032   -2.3292    5.8231 H   0  0  0  0  0  0  0  0  0  0  0  0
    0.3744   -2.2056    2.4997 H   0  0  0  0  0  0  0  0  0  0  0  0
    3.4197   -3.9742   -0.8310 H   0  0  0  0  0  0  0  0  0  0  0  0
   -2.2369    1.5347    5.1267 H   0  0  0  0  0  0  0  0  0  0  0  0
    5.5603   -0.4933    0.5448 H   0  0  0  0  0  0  0  0  0  0  0  0
    7.5673   -3.3058   -1.7424 H   0  0  0  0  0  0  0  0  0  0  0  0
   -4.5257    1.9878    1.6739 H   0  0  0  0  0  0  0  0  0  0  0  0
   -3.1789    2.5400    0.5399 H   0  0  0  0  0  0  0  0  0  0  0  0
   -2.0649    3.7517    2.4210 H   0  0  0  0  0  0  0  0  0  0  0  0
   -3.4039    3.2205    3.5731 H   0  0  0  0  0  0  0  0  0  0  0  0
   -0.9744   -0.4326    2.6306 H   0  0  0  0  0  0  0  0  0  0  0  0
  1  3  1  0  0  0  0
  1  5  2  0  0  0  0
  1 32  1  0  0  0  0
  2  4  2  0  0  0  0
  2 11  1  0  0  0  0
  2 33  1  0  0  0  0
  3 14  2  0  0  0  0
  3 34  1  0  0  0  0
  4 15  1  0  0  0  0
  4 35  1  0  0  0  0
  5 17  1  0  0  0  0
  5 36  1  0  0  0  0
  6 12  1  0  0  0  0
  6 15  2  0  0  0  0
  6 37  1  0  0  0  0
  7 13  1  0  0  0  0
  7 16  2  0  0  0  0
  7 38  1  0  0  0  0
  8 14  1  0  0  0  0
  8 17  2  0  0  0  0
  8 39  1  0  0  0  0
  9 13  2  0  0  0  0
  9 24  1  0  0  0  0
  9 40  1  0  0  0  0
 10 16  1  0  0  0  0
 10 24  2  0  0  0  0
 10 41  1  0  0  0  0
 11 12  2  0  0  0  0
 11 13  1  0  0  0  0
 12 18  1  0  0  0  0
 14 22  1  0  0  0  0
 15 28  1  0  0  0  0
 16 30  1  0  0  0  0
 17 31  1  0  0  0  0
 18 23  1  0  0  0  0
 18 25  2  0  0  0  0
 19 22  1  0  0  0  0
 19 28  1  0  0  0  0
 19 29  2  0  0  0  0
 20 21  1  0  0  0  0
 20 22  1  0  0  0  0
 20 42  1  0  0  0  0
 20 43  1  0  0  0  0
 21 22  1  0  0  0  0
 21 44  1  0  0  0  0
 21 45  1  0  0  0  0
 23 26  1  0  0  0  0
 25 27  1  0  0  0  0
 26 27  2  0  0  0  0
 28 46  1  0  0  0  0
M  CHG  1  23  -1
M  END
$$$$
