46
-1 1 C22ClFH15N6O
C                    -3.357702200610    -1.827416149609     4.295446271630
C                     2.784823752556     0.428370163853     0.243536665869
C                    -3.175908328275    -0.745400775818     3.431428603671
C                     1.602422816304     0.919262615147     0.794898017106
C                    -3.016301930323    -1.722857368663     5.647301366178
C                     1.385484115782    -1.187797136189     1.971369401001
C                     5.687676386120    -1.673441895838     0.638343415879
C                    -2.289246553625     0.567891529647     5.257012122639
C                     4.787552761281    -1.021161317507    -1.484164531683
C                     6.981464352039    -1.677923577011    -1.408866874482
C                     3.298101844515    -0.849268514828     0.526449990079
C                     2.569737029393    -1.694825042028     1.406178553708
C                     4.593658040208    -1.209131852081    -0.105413021134
C                    -2.636750009895     0.462111121943     3.902629630108
C                     0.901083647551     0.088408398312     1.680746208253
C                     6.874174429299    -1.895060978285    -0.037072615474
C                    -2.489530967806    -0.516585666488     6.110861205987
C                     2.920538762548    -3.078421979582     1.748677507011
C                    -1.078762267472     1.570562972071     2.144206710916
C                    -3.542519294100     2.234145791352     2.230051192725
C                    -2.846774724404     2.990914891771     3.325577767772
C                    -2.365898661065     1.595918762709     2.959595670852
N                     2.815629967920    -4.986008688279     2.698589679901
N                     5.941337132797    -1.244864903072    -2.131002951036
N                     2.246580947793    -3.774070482447     2.694845835804
N                     3.880351237788    -3.833867703049     1.174737376011
N                     3.792858665307    -5.024014767060     1.788721034473
N                    -0.307582068200     0.461712016491     2.324290113170
O                    -0.803874529507     2.504529585658     1.385231507749
F                     7.972206415017    -2.326276787296     0.646836482564
Cl                   -2.057339922238    -0.362039975414     7.809828869474
H                    -3.756668378747    -2.764802883134     3.917768866219
H                     3.354209202386     1.076648024595    -0.417868197599
H                    -3.435791241139    -0.835971535091     2.380055908319
H                     1.236163165937     1.908715650066     0.559122618757
H                    -3.146424045209    -2.560606833346     6.324686344221
H                     0.840560887952    -1.848187678071     2.641448627266
H                     5.613613299350    -1.863565869444     1.702393874256
H                    -1.857035510450     1.488746031554     5.636070839323
H                     3.953815317122    -0.686826526085    -2.098966403949
H                     7.923252035462    -1.862985108039    -1.923170009156
H                    -4.524396919119     1.818481436916     2.436143390294
H                    -3.356475165661     2.549574610359     1.208928240565
H                    -2.198953543595     3.809342164995     3.030746536677
H                    -3.358739086312     3.099196423810     4.277006308542
H                    -0.661497612358    -0.233037096787     2.970159836595
