
  -OEChem-05262117483D

 49 50  0     1  0  0  0  0  0999 V2000
    3.4248    5.9941    3.0104 C   0  0  0  0  0  0  0  0  0  0  0  0
    1.0945    6.2022    3.6301 C   0  0  0  0  0  0  0  0  0  0  0  0
    3.1860    4.7187    2.5196 C   0  0  0  0  0  0  0  0  0  0  0  0
    0.8415    4.9201    3.1378 C   0  0  0  0  0  0  0  0  0  0  0  0
    2.3818    6.7507    3.5741 C   0  0  0  0  0  0  0  0  0  0  0  0
    1.8921    4.1747    2.5837 C   0  0  0  0  0  0  0  0  0  0  0  0
    4.2406    0.7003    4.7333 C   0  0  0  0  0  0  0  0  0  0  0  0
    4.1495    0.0394    3.5250 C   0  0  0  0  0  0  0  0  0  0  0  0
    5.5271    0.4500    5.3282 C   0  0  0  0  0  0  0  0  0  0  0  0
    2.6921    8.1101    4.0858 C   0  0  0  0  0  0  0  0  0  0  0  0
    3.0861   -0.0063    2.4957 C   0  0  0  0  0  0  0  0  0  0  0  0
   -0.0509   -1.6510    1.9793 C   0  0  0  0  0  0  0  0  0  0  0  0
    0.0383    9.6993    6.8733 C   0  0  0  0  0  0  0  0  0  0  0  0
    0.6691   12.0388    6.1227 C   0  0  0  0  0  0  0  0  0  0  0  0
   -0.3591   -0.1771    2.2622 C   0  0  0  0  0  0  0  0  0  0  0  0
    1.8212   10.0656    5.1171 C   0  0  0  0  0  0  0  0  0  0  0  0
    0.5530    2.1945    2.3390 C   0  0  0  0  0  0  0  0  0  0  0  0
    0.5068   10.5715    5.7011 C   0  0  0  0  0  0  0  0  0  0  0  0
    0.8458    0.7311    2.0474 C   0  0  1  0  0  0  0  0  0  0  0  0
    6.3494   -0.3203    4.6602 N   0  0  0  0  0  0  0  0  0  0  0  0
    3.7984    8.6246    4.0504 O   0  0  0  0  0  0  0  0  0  0  0  0
    3.3052   -0.3642    1.3522 O   0  0  0  0  0  0  0  0  0  0  0  0
    1.7535    2.9160    2.0730 O   0  0  0  0  0  0  0  0  0  0  0  0
    1.6030    8.7299    4.6027 O   0  0  0  0  0  0  0  0  0  0  0  0
    1.8954    0.3662    2.9895 O   0  0  0  0  0  0  0  0  0  0  0  0
    5.6350   -0.7982    3.2282 S   0  0  0  0  0  0  0  0  0  0  0  0
    3.0574    1.7276    5.4501 Cl  0  0  0  0  0  0  0  0  0  0  0  0
    6.0101    1.1154    6.8521 Cl  0  0  0  0  0  0  0  0  0  0  0  0
    4.4201    6.4254    2.9721 H   0  0  0  0  0  0  0  0  0  0  0  0
    0.2845    6.7837    4.0568 H   0  0  0  0  0  0  0  0  0  0  0  0
    3.9816    4.1193    2.0874 H   0  0  0  0  0  0  0  0  0  0  0  0
   -0.1662    4.5221    3.1798 H   0  0  0  0  0  0  0  0  0  0  0  0
    0.7209   -2.0273    2.6567 H   0  0  0  0  0  0  0  0  0  0  0  0
   -0.9461   -2.2649    2.1161 H   0  0  0  0  0  0  0  0  0  0  0  0
    0.3062   -1.7909    0.9541 H   0  0  0  0  0  0  0  0  0  0  0  0
    0.7619    9.7353    7.6970 H   0  0  0  0  0  0  0  0  0  0  0  0
   -0.0756    8.6545    6.5710 H   0  0  0  0  0  0  0  0  0  0  0  0
   -0.9247   10.0503    7.2595 H   0  0  0  0  0  0  0  0  0  0  0  0
    1.4312   12.1420    6.9045 H   0  0  0  0  0  0  0  0  0  0  0  0
   -0.2708   12.4320    6.5234 H   0  0  0  0  0  0  0  0  0  0  0  0
    0.9653   12.6718    5.2790 H   0  0  0  0  0  0  0  0  0  0  0  0
   -1.1609    0.1716    1.6000 H   0  0  0  0  0  0  0  0  0  0  0  0
   -0.7196   -0.0570    3.2908 H   0  0  0  0  0  0  0  0  0  0  0  0
    2.1715   10.7019    4.2986 H   0  0  0  0  0  0  0  0  0  0  0  0
    2.6099   10.0289    5.8758 H   0  0  0  0  0  0  0  0  0  0  0  0
   -0.2640    2.5525    1.6992 H   0  0  0  0  0  0  0  0  0  0  0  0
    0.2645    2.3084    3.3900 H   0  0  0  0  0  0  0  0  0  0  0  0
   -0.2474   10.5208    4.9048 H   0  0  0  0  0  0  0  0  0  0  0  0
    1.2430    0.6197    1.0365 H   0  0  0  0  0  0  0  0  0  0  0  0
  1  3  1  0  0  0  0
  1  5  2  0  0  0  0
  1 29  1  0  0  0  0
  2  4  2  0  0  0  0
  2  5  1  0  0  0  0
  2 30  1  0  0  0  0
  3  6  2  0  0  0  0
  3 31  1  0  0  0  0
  4  6  1  0  0  0  0
  4 32  1  0  0  0  0
  5 10  1  0  0  0  0
  6 23  1  0  0  0  0
  7  8  2  0  0  0  0
  7  9  1  0  0  0  0
  7 27  1  0  0  0  0
  8 11  1  0  0  0  0
  8 26  1  0  0  0  0
  9 20  2  0  0  0  0
  9 28  1  0  0  0  0
 10 21  2  0  0  0  0
 10 24  1  0  0  0  0
 11 22  2  0  0  0  0
 11 25  1  0  0  0  0
 12 15  1  0  0  0  0
 12 33  1  0  0  0  0
 12 34  1  0  0  0  0
 12 35  1  0  0  0  0
 13 18  1  0  0  0  0
 13 36  1  0  0  0  0
 13 37  1  0  0  0  0
 13 38  1  0  0  0  0
 14 18  1  0  0  0  0
 14 39  1  0  0  0  0
 14 40  1  0  0  0  0
 14 41  1  0  0  0  0
 15 19  1  0  0  0  0
 15 42  1  0  0  0  0
 15 43  1  0  0  0  0
 16 18  1  0  0  0  0
 16 24  1  0  0  0  0
 16 44  1  0  0  0  0
 16 45  1  0  0  0  0
 17 19  1  0  0  0  0
 17 23  1  0  0  0  0
 17 46  1  0  0  0  0
 17 47  1  0  0  0  0
 18 48  1  0  0  0  0
 19 25  1  0  0  0  0
 19 49  1  0  0  0  0
 20 26  1  0  0  0  0
M  END
$$$$
