47
0 1 C22ClFH16N6O
C                    -0.776174801332     4.205853347175     4.199455843411
C                     1.475487067908    -2.085952592228     0.118650526645
C                    -1.466407567038     3.402954879741     3.288060992698
C                     0.370978397640    -1.391291470537     0.608503472810
C                    -0.586763322506     3.782974619281     5.518564785399
C                     1.841138254443    -0.260768141670     2.160933849084
C                     5.016405622113    -1.930713107496    -0.526350181966
C                    -1.794184947927     1.731914331876     5.005851113853
C                     3.873961756350    -4.010087783574    -0.175697253442
C                     5.908096818683    -4.064262258183    -1.236939098481
C                     2.772699307806    -1.893941466853     0.615082277977
C                     2.941394308476    -0.973762110398     1.673811870084
C                     3.902304429544    -2.614439470060    -0.021782045263
C                    -1.983725403115     2.159863074873     3.683228186473
C                     0.555498162331    -0.453056561195     1.637021803490
C                     6.015063371813    -2.679130420962    -1.127011957611
C                    -1.102449255442     2.544083544823     5.905525647160
C                     4.237230296036    -0.765759546056     2.341713018826
C                    -1.825452378272     0.300284582171     1.890434429558
C                    -4.073289539845     0.752996760129     3.005488744367
C                    -3.890699657983     1.796432453500     1.945582161600
C                    -2.671224894442     1.267366137207     2.692860733334
N                     4.842211369535    -4.721024274265    -0.765538365857
N                     5.166907647866    -1.744811925697     2.569203216590
N                     4.620251682177     0.408369223246     2.859395272789
N                     6.149920548505    -1.188222896297     3.233182924070
N                     5.797090214512     0.085839618670     3.392491633382
N                    -0.483458633340     0.317683828314     2.193182924322
O                    -2.325251479992    -0.435800870245     1.041176355396
F                     7.110476819356    -2.055127882121    -1.628451117092
Cl                   -0.874484544473     1.994634698235     7.557404973983
H                    -0.380656334434     5.168297193136     3.886519396148
H                     1.330883119050    -2.781572318437    -0.703236829981
H                    -1.608144026301     3.736082617945     2.263470236442
H                    -0.616403390051    -1.556339387162     0.200570201625
H                    -0.053569630348     4.400815185843     6.234020036711
H                     1.994044734438     0.437627267179     2.979868724964
H                     5.104853338291    -0.850406256415    -0.461257363306
H                    -2.184370615610     0.770880425674     5.327372725802
H                     3.032155846717    -4.577682100841     0.216354240169
H                     6.697165721268    -4.641566622716    -1.714653883623
H                    -4.497383957128     1.056706029037     3.957514302867
H                    -4.296098572502    -0.257713704351     2.681234307840
H                    -3.990761977836     1.483806178168     0.911898817921
H                    -4.189583402241     2.815066775198     2.172183791450
H                     6.388204966513     0.756572331164     3.871756320365
H                    -0.199778552518     0.968833713698     2.915162094542
