46
-1 1 C22ClFH15N6O
C                    -2.472457467279    -1.326055742280     5.131864569873
C                     2.394158549776     0.018287644720    -0.683631904431
C                    -2.293111944436    -0.198572266608     4.327502022558
C                     1.169945581117     0.438113517534    -0.165812852867
C                    -3.316239779710    -2.363672057991     4.724049183496
C                     1.249418599972    -1.471287665733     1.323558967781
C                     4.583859435134    -2.736421103744    -1.467955346878
C                    -3.791209902580    -1.133947957396     2.676932070659
C                     5.337615003632    -0.492044575917    -1.100378500348
C                     6.696342512032    -1.893737236200    -2.299991047087
C                     3.071730740132    -1.127625882551    -0.232576225771
C                     2.492256463279    -1.891656093358     0.816131818904
C                     4.345270512684    -1.469515864013    -0.916902548289
C                    -2.948093580836    -0.092548363302     3.090404985847
C                     0.591927277149    -0.333795379924     0.852533019625
C                     5.766409948616    -2.921591962784    -2.161011299460
C                    -3.971276979717    -2.247390726511     3.497295269916
C                     3.098783199910    -3.066534225215     1.453609447948
C                    -1.455708667484     1.058192710076     1.302434684499
C                    -3.878759948997     1.821431621032     1.593195934289
C                    -3.073035632924     2.471842669195     2.681720632281
C                    -2.693977657089     1.079414033875     2.190493037184
N                     4.360452019471    -3.514972085381     1.284905853440
N                     6.484444832995    -0.683571636439    -1.769499757109
N                     2.423293417130    -3.822253845514     2.351292777372
N                     4.458584006695    -4.576680257254     2.099959950037
N                     3.298283944976    -4.759996979891     2.735837987501
N                    -0.653630271265    -0.031701636122     1.462231977838
O                    -1.235115326267     1.986824846955     0.519573485688
F                     6.033608318368    -4.130012738279    -2.733440820028
Cl                   -5.041692122287    -3.539602210018     2.966889579643
H                    -1.945893947521    -1.408745407145     6.078641658837
H                     2.834458204203     0.590074299645    -1.496744963144
H                    -1.629647708476     0.600766558024     4.646856193446
H                     0.672244963376     1.322947572307    -0.537400190598
H                    -3.455783111649    -3.247138602433     5.338550170891
H                     0.820786683903    -2.067061494984     2.125695621119
H                     3.877649962756    -3.549975348081    -1.352524911186
H                    -4.294330617900    -1.076000343440     1.716734539622
H                     5.199819147137     0.495779381667    -0.664381887453
H                     7.623816549877    -2.060967998236    -2.845459269235
H                    -4.867240102198     1.447934530374     1.843131537993
H                    -3.745478482119     2.195723530570     0.583977490248
H                    -2.404785057887     3.277052873733     2.395616983336
H                    -3.507782292206     2.534507485226     3.674904609956
H                    -0.951616001797    -0.713268442364     2.149085529003
