40
0 1 C16ClH19N2OS
C                     2.095959386200    -2.410781529994    -1.498385581833
C                    -0.181283200452    -3.120824626675    -1.195699889820
C                     2.179907032297    -3.149163357499    -2.681412005548
C                    -0.115795626177    -3.863259761110    -2.375566231277
C                     2.005644187769    -5.335020320766     2.453076267270
C                     1.112791198508    -4.666585872523     1.644861701453
C                     1.773372450565    -3.388062076164     3.325769620969
C                     0.922742738489    -2.387825690300    -0.733399301269
C                     1.070020566875    -3.874936373770    -3.111557146185
C                     0.928707581674     0.843215775309    -0.493329365267
C                     0.651048114023     1.052820778206     0.974868789282
C                     0.152231853137    -0.202235527599     0.280614149773
C                    -3.871759685932     0.310450854278     1.351738479766
C                     0.174217822130    -2.294150121330     1.716008471447
C                    -2.414586748064    -0.112746946306     1.542707983303
C                     0.868705188485    -1.548515644981     0.548295409605
N                     2.412001944936    -4.529353478630     3.498333155763
N                     0.963880239291    -3.410343759966     2.213928470183
O                     2.191982374693    -1.209474684828     0.973906036016
S                    -1.613303927447    -0.270623590959    -0.106654629623
Cl                    1.163444580874    -4.813855212906    -4.592609761321
H                     2.959359689566    -1.844541625922    -1.166678896110
H                    -1.116496174539    -3.112817471672    -0.648249787891
H                     3.097963372117    -3.161315928017    -3.260542137294
H                    -0.977414607925    -4.426383705720    -2.720283019189
H                     2.374409836194    -6.346607155624     2.341472513075
H                     0.595880273247    -4.950186957771     0.740820514222
H                     1.839421249022    -2.516097246022     3.964761972153
H                     0.378811400423     1.437847592514    -1.214644132331
H                     1.943276959835     0.583862611167    -0.775577460805
H                     1.482755338063     0.937554731414     1.660285068684
H                    -0.089510600357     1.796019245475     1.252726539634
H                    -3.937750518318     1.281416405996     0.852363280742
H                    -4.423734157760    -0.418840423137     0.749986953616
H                    -4.370213455137     0.387914216840     2.323806212361
H                     0.049981131513    -1.586428329276     2.537876089763
H                    -0.812779513025    -2.652433525935     1.425074148958
H                    -2.364632255331    -1.063047762814     2.081190129626
H                    -1.865173340473     0.634852412653     2.121619215604
H                     2.641962580049    -2.034149022028     1.226782843698
