53
0 1 C18FH25N4O4S
C                    -2.820084634597    -1.075333685990    -1.335590282633
C                    -1.764932709068    -0.116909279617    -1.086432860477
C                    -0.727188189594    -0.672887934855    -0.386833372388
C                    -4.067990523303    -0.853585002752    -2.046020467153
C                    -2.551687567336    -2.323582079354    -0.812917125559
C                    -4.584150075134    -3.280960678097    -1.673208359351
C                     1.531777462884     0.007059631457     2.408890705735
C                    -0.099239766797     1.172584185692     3.620641715128
C                    -0.448660262764     1.228340799616     2.121876877280
C                    -1.843263747627     1.317785692039    -1.533620560650
C                    -8.665809796133    -1.268526178321    -2.424041028109
C                    -7.501662235085    -2.537226731116    -0.565605738102
C                    -5.196187721446    -4.043886162683     2.696293066682
C                     0.525831170249    -0.042019305830     0.147328354225
C                    -3.120315484114    -4.679127287748    -0.280989585129
C                    -6.244517515543    -1.820459231449    -2.697104443516
C                    -3.449574053182    -4.604245733170     1.208103253294
C                    -7.355681525878    -1.508117542329    -1.679913225114
N                    -4.920352385850    -1.990579179345    -2.086843832486
N                    -3.380956395706    -3.409410122030    -0.967122428684
N                     1.299789195328     0.742067890743     3.571598566096
N                     0.439610295274     0.209847006218     1.576741359427
O                    -4.395396151909     0.198111951227    -2.585603608997
O                    -5.297128861768    -4.249924722851    -1.905357756076
O                     2.514766815138    -0.682806747823     2.164952187984
O                    -4.811118731714    -4.243136173004     1.344838389946
F                    -7.007659745823    -0.281301572137    -1.048385056073
S                    -1.015168401472    -2.374191317757    -0.003036884511
H                    -0.207367721026     2.144457805502     4.108135298240
H                    -0.734930745408     0.440883622646     4.138095322202
H                    -1.497617110688     0.995121554741     1.921732012421
H                    -0.221843088452     2.217888176248     1.696343838832
H                    -2.745109082271     1.792846367713    -1.138083916514
H                    -0.971657276292     1.889132203819    -1.208146513531
H                    -1.919120956811     1.380003660249    -2.622508549380
H                    -8.546247867578    -0.480239479030    -3.173054427952
H                    -9.442594982210    -0.960329380830    -1.718967249401
H                    -8.997542670836    -2.182951732755    -2.925518706400
H                    -6.581724114645    -2.623356095476     0.016388803426
H                    -7.731858888526    -3.523708674127    -0.973683114824
H                    -8.308254248322    -2.226348836121     0.105469500218
H                    -6.248487551147    -3.752798696309     2.687474693599
H                    -4.604077592404    -3.244942802764     3.167160309301
H                    -5.081278334803    -4.964966120541     3.286667277511
H                     1.395911266963    -0.687812848904     0.001274480978
H                     0.720731264521     0.891155674525    -0.397323633242
H                    -2.069444824473    -4.953141507599    -0.419519135244
H                    -3.744572562485    -5.429404574440    -0.763312239042
H                    -6.166018574346    -0.988792330713    -3.396282912925
H                    -6.492687254894    -2.735231719754    -3.235170545424
H                    -2.807222204601    -3.870277561109     1.717117113578
H                    -3.252731603375    -5.590172516370     1.659613463427
H                     1.752865632419     0.388435382308     4.405362141026
