
  -OEChem-05262117483D

 46 50  0     0  0  0  0  0  0999 V2000
   -0.8253    4.0418    3.7442 C   0  0  0  0  0  0  0  0  0  0  0  0
    1.7360   -2.2257    0.0971 C   0  0  0  0  0  0  0  0  0  0  0  0
   -1.4291    3.2128    2.7963 C   0  0  0  0  0  0  0  0  0  0  0  0
    0.5523   -1.6097    0.5006 C   0  0  0  0  0  0  0  0  0  0  0  0
   -0.9113    3.7433    5.1074 C   0  0  0  0  0  0  0  0  0  0  0  0
    1.8991   -0.1026    1.8376 C   0  0  0  0  0  0  0  0  0  0  0  0
    5.2472   -1.8544   -0.6451 C   0  0  0  0  0  0  0  0  0  0  0  0
   -2.2039    1.7534    4.5607 C   0  0  0  0  0  0  0  0  0  0  0  0
    4.2207   -3.9329   -0.0401 C   0  0  0  0  0  0  0  0  0  0  0  0
    6.2060   -4.0125   -1.1816 C   0  0  0  0  0  0  0  0  0  0  0  0
    3.0076   -1.8122    0.5298 C   0  0  0  0  0  0  0  0  0  0  0  0
    3.0958   -0.7242    1.4391 C   0  0  0  0  0  0  0  0  0  0  0  0
    4.1800   -2.5286   -0.0347 C   0  0  0  0  0  0  0  0  0  0  0  0
   -2.1214    2.0581    3.1945 C   0  0  0  0  0  0  0  0  0  0  0  0
    0.6483   -0.5227    1.3816 C   0  0  0  0  0  0  0  0  0  0  0  0
    6.2469   -2.6204   -1.2166 C   0  0  0  0  0  0  0  0  0  0  0  0
   -1.6094    2.5993    5.4967 C   0  0  0  0  0  0  0  0  0  0  0  0
    4.3363   -0.2030    2.0248 C   0  0  0  0  0  0  0  0  0  0  0  0
   -1.7819    0.1173    1.5000 C   0  0  0  0  0  0  0  0  0  0  0  0
   -4.1369    0.6508    2.3407 C   0  0  0  0  0  0  0  0  0  0  0  0
   -3.8118    1.6459    1.2632 C   0  0  0  0  0  0  0  0  0  0  0  0
   -2.7032    1.1275    2.1728 C   0  0  0  0  0  0  0  0  0  0  0  0
    5.6468    1.0979    3.0922 N   0  5  0  0  0  0  0  0  0  0  0  0
    5.1977   -4.6668   -0.5934 N   0  0  0  0  0  0  0  0  0  0  0  0
    4.3780    0.9817    2.6784 N   0  0  0  0  0  0  0  0  0  0  0  0
    5.5396   -0.8135    2.0337 N   0  0  0  0  0  0  0  0  0  0  0  0
    6.3419    0.0231    2.7108 N   0  0  0  0  0  0  0  0  0  0  0  0
   -0.4719    0.2020    1.8657 N   0  0  0  0  0  0  0  0  0  0  0  0
   -2.2345   -0.6911    0.6842 O   0  0  0  0  0  0  0  0  0  0  0  0
    7.2949   -2.0103   -1.8399 F   0  0  0  0  0  0  0  0  0  0  0  0
   -1.7363    2.2088    7.2081 Cl  0  0  0  0  0  0  0  0  0  0  0  0
   -0.2738    4.9219    3.4252 H   0  0  0  0  0  0  0  0  0  0  0  0
    1.6747   -3.0469   -0.6128 H   0  0  0  0  0  0  0  0  0  0  0  0
   -1.3530    3.4475    1.7379 H   0  0  0  0  0  0  0  0  0  0  0  0
   -0.4101   -1.9412    0.1367 H   0  0  0  0  0  0  0  0  0  0  0  0
   -0.4401    4.3778    5.8511 H   0  0  0  0  0  0  0  0  0  0  0  0
    1.9854    0.7300    2.5315 H   0  0  0  0  0  0  0  0  0  0  0  0
    5.3006   -0.7723   -0.6650 H   0  0  0  0  0  0  0  0  0  0  0  0
   -2.7225    0.8571    4.8866 H   0  0  0  0  0  0  0  0  0  0  0  0
    3.4237   -4.4913    0.4476 H   0  0  0  0  0  0  0  0  0  0  0  0
    7.0049   -4.5980   -1.6339 H   0  0  0  0  0  0  0  0  0  0  0  0
   -4.6716    1.0035    3.2175 H   0  0  0  0  0  0  0  0  0  0  0  0
   -4.3375   -0.3693    2.0317 H   0  0  0  0  0  0  0  0  0  0  0  0
   -3.7960    1.2868    0.2397 H   0  0  0  0  0  0  0  0  0  0  0  0
   -4.1154    2.6784    1.4088 H   0  0  0  0  0  0  0  0  0  0  0  0
   -0.2371    0.9242    2.5353 H   0  0  0  0  0  0  0  0  0  0  0  0
  1  3  1  0  0  0  0
  1  5  2  0  0  0  0
  1 32  1  0  0  0  0
  2  4  2  0  0  0  0
  2 11  1  0  0  0  0
  2 33  1  0  0  0  0
  3 14  2  0  0  0  0
  3 34  1  0  0  0  0
  4 15  1  0  0  0  0
  4 35  1  0  0  0  0
  5 17  1  0  0  0  0
  5 36  1  0  0  0  0
  6 12  1  0  0  0  0
  6 15  2  0  0  0  0
  6 37  1  0  0  0  0
  7 13  1  0  0  0  0
  7 16  2  0  0  0  0
  7 38  1  0  0  0  0
  8 14  1  0  0  0  0
  8 17  2  0  0  0  0
  8 39  1  0  0  0  0
  9 13  2  0  0  0  0
  9 24  1  0  0  0  0
  9 40  1  0  0  0  0
 10 16  1  0  0  0  0
 10 24  2  0  0  0  0
 10 41  1  0  0  0  0
 11 12  2  0  0  0  0
 11 13  1  0  0  0  0
 12 18  1  0  0  0  0
 14 22  1  0  0  0  0
 15 28  1  0  0  0  0
 16 30  1  0  0  0  0
 17 31  1  0  0  0  0
 18 25  2  0  0  0  0
 18 26  1  0  0  0  0
 19 22  1  0  0  0  0
 19 28  1  0  0  0  0
 19 29  2  0  0  0  0
 20 21  1  0  0  0  0
 20 22  1  0  0  0  0
 20 42  1  0  0  0  0
 20 43  1  0  0  0  0
 21 22  1  0  0  0  0
 21 44  1  0  0  0  0
 21 45  1  0  0  0  0
 23 25  1  0  0  0  0
 23 27  1  0  0  0  0
 26 27  2  0  0  0  0
 28 46  1  0  0  0  0
M  CHG  1  23  -1
M  END
$$$$
