
  -OEChem-05262117483D

 48 50  0     1  0  0  0  0  0999 V2000
   -3.1885   -2.2724    0.9696 C   0  0  0  0  0  0  0  0  0  0  0  0
    3.5467   -2.0720    0.2958 C   0  0  0  0  0  0  0  0  0  0  0  0
   -2.0469   -2.2265    0.1628 C   0  0  0  0  0  0  0  0  0  0  0  0
    2.2699   -2.1348   -0.2697 C   0  0  0  0  0  0  0  0  0  0  0  0
   -3.0418    0.1036    1.2862 C   0  0  0  0  0  0  0  0  0  0  0  0
    2.0537    0.2558    0.0160 C   0  0  0  0  0  0  0  0  0  0  0  0
   -1.9056    0.1734    0.4773 C   0  0  0  0  0  0  0  0  0  0  0  0
   -3.7057   -1.1063    1.5427 C   0  0  0  0  0  0  0  0  0  0  0  0
    4.0959   -0.8565    0.7145 C   0  0  0  0  0  0  0  0  0  0  0  0
    3.3419    0.3158    0.5500 C   0  0  0  0  0  0  0  0  0  0  0  0
    1.5054   -0.9726   -0.3918 C   0  0  0  0  0  0  0  0  0  0  0  0
   -1.3959   -1.0162   -0.0907 C   0  0  0  0  0  0  0  0  0  0  0  0
    1.1650    1.4555   -0.1026 C   0  0  0  0  0  0  0  0  0  0  0  0
    3.1018   -0.4697    3.9768 C   0  0  0  0  0  0  0  0  0  0  0  0
    4.3752   -0.1757    3.6837 C   0  0  0  0  0  0  0  0  0  0  0  0
   -1.2096    1.4976    0.2770 C   0  0  0  0  0  0  0  0  0  0  0  0
   -4.9211   -1.1417    2.4390 C   0  0  0  0  0  0  0  0  0  0  0  0
    5.0037    1.1468    4.0453 C   0  0  0  0  0  0  0  0  0  0  0  0
    4.4704    2.2985   -0.0751 C   0  0  0  0  0  0  0  0  0  0  0  0
    5.2467   -1.1563    2.9313 C   0  0  0  0  0  0  0  0  0  0  0  0
    5.4273   -0.8215    1.4280 C   0  0  1  0  0  0  0  0  0  0  0  0
    1.2761    2.3655   -0.8940 O   0  0  0  0  0  0  0  0  0  0  0  0
    0.1380    1.3161    0.7781 O   0  0  0  0  0  0  0  0  0  0  0  0
    6.2830   -1.7900    0.8034 O   0  0  0  0  0  0  0  0  0  0  0  0
    3.8468    1.5300    0.9731 O   0  0  0  0  0  0  0  0  0  0  0  0
   -0.0576   -1.0250   -1.3038 S   0  0  0  0  0  0  0  0  0  0  0  0
   -3.6775   -3.2271    1.1497 H   0  0  0  0  0  0  0  0  0  0  0  0
    4.1389   -2.9752    0.4046 H   0  0  0  0  0  0  0  0  0  0  0  0
   -1.6613   -3.1376   -0.2851 H   0  0  0  0  0  0  0  0  0  0  0  0
    1.8658   -3.0811   -0.6159 H   0  0  0  0  0  0  0  0  0  0  0  0
   -3.4216    1.0201    1.7350 H   0  0  0  0  0  0  0  0  0  0  0  0
    2.6576   -1.4214    3.6945 H   0  0  0  0  0  0  0  0  0  0  0  0
    2.4569    0.2408    4.4883 H   0  0  0  0  0  0  0  0  0  0  0  0
   -1.1609    1.7977   -0.7728 H   0  0  0  0  0  0  0  0  0  0  0  0
   -1.6900    2.2907    0.8534 H   0  0  0  0  0  0  0  0  0  0  0  0
   -4.6296   -1.0768    3.4941 H   0  0  0  0  0  0  0  0  0  0  0  0
   -5.5923   -0.3016    2.2343 H   0  0  0  0  0  0  0  0  0  0  0  0
   -5.4870   -2.0681    2.3083 H   0  0  0  0  0  0  0  0  0  0  0  0
    5.8887    0.9996    4.6778 H   0  0  0  0  0  0  0  0  0  0  0  0
    4.3010    1.7902    4.5810 H   0  0  0  0  0  0  0  0  0  0  0  0
    5.3263    1.6813    3.1453 H   0  0  0  0  0  0  0  0  0  0  0  0
    4.8458    3.2068    0.4003 H   0  0  0  0  0  0  0  0  0  0  0  0
    3.7426    2.5569   -0.8492 H   0  0  0  0  0  0  0  0  0  0  0  0
    5.3044    1.7400   -0.5179 H   0  0  0  0  0  0  0  0  0  0  0  0
    4.8300   -2.1662    2.9929 H   0  0  0  0  0  0  0  0  0  0  0  0
    6.2475   -1.1827    3.3881 H   0  0  0  0  0  0  0  0  0  0  0  0
    5.8647    0.1778    1.3320 H   0  0  0  0  0  0  0  0  0  0  0  0
    7.0990   -1.8426    1.3256 H   0  0  0  0  0  0  0  0  0  0  0  0
  1  3  2  0  0  0  0
  1  8  1  0  0  0  0
  1 27  1  0  0  0  0
  2  4  1  0  0  0  0
  2  9  2  0  0  0  0
  2 28  1  0  0  0  0
  3 12  1  0  0  0  0
  3 29  1  0  0  0  0
  4 11  2  0  0  0  0
  4 30  1  0  0  0  0
  5  7  1  0  0  0  0
  5  8  2  0  0  0  0
  5 31  1  0  0  0  0
  6 10  2  0  0  0  0
  6 11  1  0  0  0  0
  6 13  1  0  0  0  0
  7 12  2  0  0  0  0
  7 16  1  0  0  0  0
  8 17  1  0  0  0  0
  9 10  1  0  0  0  0
  9 21  1  0  0  0  0
 10 25  1  0  0  0  0
 11 26  1  0  0  0  0
 12 26  1  0  0  0  0
 13 22  2  0  0  0  0
 13 23  1  0  0  0  0
 14 15  2  0  0  0  0
 14 32  1  0  0  0  0
 14 33  1  0  0  0  0
 15 18  1  0  0  0  0
 15 20  1  0  0  0  0
 16 23  1  0  0  0  0
 16 34  1  0  0  0  0
 16 35  1  0  0  0  0
 17 36  1  0  0  0  0
 17 37  1  0  0  0  0
 17 38  1  0  0  0  0
 18 39  1  0  0  0  0
 18 40  1  0  0  0  0
 18 41  1  0  0  0  0
 19 25  1  0  0  0  0
 19 42  1  0  0  0  0
 19 43  1  0  0  0  0
 19 44  1  0  0  0  0
 20 21  1  0  0  0  0
 20 45  1  0  0  0  0
 20 46  1  0  0  0  0
 21 24  1  0  0  0  0
 21 47  1  0  0  0  0
 24 48  1  0  0  0  0
M  END
$$$$
