53
0 1 C18FH25N4O4S
C                    -2.556782358517    -0.730214040760    -1.426277894818
C                    -1.413405812630     0.149784958882    -1.512630212120
C                    -0.298535466277    -0.417612885470    -0.957674588725
C                    -3.900105184932    -0.484438441988    -1.915229165350
C                    -2.269883149846    -1.937035764436    -0.813351913430
C                    -4.534133224159    -2.732757673416    -1.008474087502
C                     2.464679879933     1.225247811737    -2.667988081489
C                     2.741735207129    -0.516294666648    -4.208385581838
C                     2.107246799604    -1.079203934647    -2.921699777349
C                    -1.440845481956     1.509988268437    -2.153618773204
C                    -7.707538819400    -1.850124096238    -4.215155531106
C                    -5.278094574463    -1.348768599673    -4.731726428259
C                    -1.283299340222    -5.948085179421    -2.638017495150
C                     1.102717072028     0.129433226701    -0.914139682321
C                    -2.914900776252    -4.157798187870     0.130624722109
C                    -6.140981364264    -1.440557223254    -2.311508462075
C                    -2.672717883273    -5.307550594174    -0.835120073083
C                    -6.260460376042    -1.973352783646    -3.749109759640
N                    -4.794039934123    -1.571891243913    -1.743526406083
N                    -3.219277210620    -2.902361710574    -0.567966704561
N                     3.236537923461     0.782207125195    -3.744001569691
N                     1.727115202585     0.140841715852    -2.225147032341
O                    -4.279329078991     0.549712408590    -2.463322656807
O                    -5.395720254187    -3.565435212665    -0.750637518787
O                     2.446337179616     2.358874489773    -2.201079359578
O                    -1.499220935686    -5.023654910682    -1.581957734365
F                    -5.954097918435    -3.363103713487    -3.709254905021
S                    -0.604303033448    -2.043370633437    -0.344251598809
H                     3.551433823975    -1.147925755365    -4.581857832919
H                     1.982727845863    -0.406773690454    -4.995036356241
H                     1.240070351164    -1.713814031764    -3.122901335012
H                     2.836424732553    -1.658326869583    -2.334155913165
H                    -2.210767906375     2.136471177283    -1.695780974200
H                    -0.473694191947     2.009164449203    -2.072152825347
H                    -1.701967500302     1.428328456509    -3.213245611731
H                    -8.381327853084    -2.360908980352    -3.521099544723
H                    -7.820001385873    -2.304208229616    -5.203367735427
H                    -8.002903138324    -0.798545979584    -4.282273569160
H                    -4.248372974182    -1.554728772821    -4.430224897257
H                    -5.408031403241    -0.265612954829    -4.778274580827
H                    -5.436252905437    -1.777518596345    -5.725654228005
H                    -0.369517090648    -5.639999128137    -3.150940218153
H                    -2.119792808087    -5.940205619627    -3.351488734097
H                    -1.153268391986    -6.971461786193    -2.255666835832
H                     1.102306949106     1.164914137739    -0.564936371265
H                     1.714631213671    -0.449205278249    -0.206053255419
H                    -3.763302398265    -4.397126042795     0.772759237610
H                    -2.035658113722    -3.995225354770     0.758019292162
H                    -6.824436798679    -1.996520320682    -1.671176747496
H                    -6.399739749097    -0.381601481974    -2.299907066664
H                    -3.541715436875    -5.421845717203    -1.496898980171
H                    -2.553471714760    -6.240269603694    -0.260412111242
H                     3.480941778485     1.497653560414    -4.417918801846
