22   
torsion grid (-105,)
C        1.9267318827    2.4196345147    0.0567135983
C        2.3943845679    1.4506801230    0.9530803486
C        0.8750062316    2.1330918724   -0.8289032151
C        1.8958728305    0.1365372467    0.9320806146
C        0.3915905222    0.8253695834   -0.8741951319
C        0.8769026522   -0.1165027197    0.0332507033
C       -1.0974486912    0.3648803206   -1.0322932837
C       -3.3329062901    0.9349981101   -1.9060692525
N       -1.6900238157   -0.5977281402   -0.3203314000
N       -1.8885310126    1.1248113170   -1.8169622278
O       -0.4530727393   -1.6040349982    1.8307352146
O       -1.1477731563   -3.1469976755   -0.0377062849
O        0.5663293955   -1.3677148680   -0.5290906733
S       -0.7133243673   -1.8442479140    0.4189334249
H        2.3548404946    3.4178068387    0.0755382975
H        3.1877386086    1.7074455808    1.6494823219
H        0.4570450178    2.9264236238   -1.4444608363
H        2.2914394156   -0.6442409482    1.5727189548
H       -3.5510106852   -0.1102865732   -2.1349037412
H       -3.8213631868    1.1853556988   -0.9589255772
H       -3.7187830899    1.5764212689   -2.7006857228
H       -1.4738701776    1.9314337335   -2.2609615193
22   
torsion grid (-90,)
C        1.8986397899    2.4256610547    0.0969377195
C        2.5030040378    1.4311010524    0.8743855812
C        0.7735861349    2.1346541309   -0.6877955144
C        2.0423265378    0.1055567221    0.8347072400
C        0.3200516079    0.8145985566   -0.7562529977
C        0.9415405315   -0.1564170894    0.0403565572
C       -1.1231519559    0.3841935507   -0.9944389187
C       -3.3064417601    0.9273878508   -2.0031313423
N       -1.7293163154   -0.6055859852   -0.3533428518
N       -1.8760316618    1.1461096175   -1.8148619466
O       -0.6040262120   -1.4807647104    1.8555161102
O       -1.2330244233   -3.1035857916    0.0271262620
O        0.5896722970   -1.4265874248   -0.4258069782
S       -0.8044315509   -1.7866511158    0.4465626808
H        2.2816444015    3.4415267407    0.1296061146
H        3.3585903928    1.6815235574    1.4952332360
H        0.2642540734    2.9411871588   -1.2098827447
H        2.5273108191   -0.6935275402    1.3856899773
H       -3.4885927606   -0.1226971600   -2.2420487608
H       -3.8647075841    1.1720286419   -1.0937962781
H       -3.6490795435    1.5581804739   -2.8253156072
H       -1.4410376113    1.9474632833   -2.2481064131
22   
torsion grid (-75,)
C        1.8582968817    2.5147740605    0.0673539606
C        2.5777334899    1.5070292527    0.7196879599
C        0.6703813977    2.2130705022   -0.6079747054
C        2.1435193480    0.1754721335    0.6754560652
C        0.2377618710    0.8841624751   -0.6869220111
C        0.9713155002   -0.1035027264   -0.0079228714
C       -1.1657330185    0.4654482754   -1.0125066378
C       -3.2793502655    0.9702883008   -2.1689179414
N       -1.7756649297   -0.5774372774   -0.4802919119
N       -1.8887537773    1.2585424380   -1.8321732593
O       -0.7721068070   -1.2929779929    1.8141705339
O       -1.2734801994   -3.0216237229    0.0399549784
O        0.5981335379   -1.3965804987   -0.3556293116
S       -0.8870294714   -1.6791503502    0.4154321292
H        2.2061104889    3.5427110817    0.1104551574
H        3.4886596868    1.7560409170    1.2566938932
H        0.0825244400    3.0202139619   -1.0374919523
H        2.6996473884   -0.6300382176    1.1439648686
H       -3.3675166082   -0.0208615541   -2.6238055800
H       -3.8984375931    0.9875125807   -1.2683049765
H       -3.6312318555    1.7307210186   -2.8678931746
H       -1.4051950269    1.9954387849   -2.3238962845
22   
torsion grid (-60,)
C        1.8914439241    2.5612555889    0.0637749784
C        2.7244484383    1.5710307992    0.5996792429
C        0.6573026523    2.2150707998   -0.4897733791
C        2.3373278130    0.2275123526    0.5784560854
C        0.2689675709    0.8691839135   -0.5495485897
C        1.1099428872   -0.1039006542    0.0179347846
C       -1.0981875941    0.4184859691   -0.9256667335
C       -3.1706513882    0.8513684172   -2.1795168877
N       -1.6648863769   -0.6887337682   -0.4915805429
N       -1.8319283901    1.2242700634   -1.7298072491
O       -0.7643058660   -1.2469923121    1.8716119464
O       -1.0930804647   -3.0738130295    0.1527080652
O        0.7560692754   -1.4262073980   -0.1780705577
S       -0.7854632925   -1.7015766459    0.4892071513
H        2.1931091787    3.6037864863    0.1009846191
H        3.6773616223    1.8469162220    1.0424571092
H       -0.0100673644    2.9973868048   -0.8407931489
H        2.9667321238   -0.5590491541    0.9821163280
H       -3.1470566152   -0.0677554294   -2.7745143137
H       -3.8153334473    0.6808634070   -1.3151343030
H       -3.5745329811    1.6699726829   -2.7776286977
H       -1.3298909184    1.9267489428   -2.2542303377
22   
torsion grid (-45,)
C        1.8344454891    2.5019635202    0.0500661637
C        2.6634433448    1.4770296475    0.5271944908
C        0.5566160204    2.2003224830   -0.4160005061
C        2.2146698174    0.1561959118    0.5547659202
C        0.0983696065    0.8722329627   -0.4308849293
C        0.9337942362   -0.1344091633    0.0896113755
C       -1.2572402338    0.4844440883   -0.8779703824
C       -3.2504753304    1.0029616506   -2.2219223909
N       -1.8607609866   -0.6360329851   -0.5395680487
N       -1.9288854109    1.3315072863   -1.6935907426
O       -1.2044800605   -1.1207562127    1.9021739386
O       -1.4168805818   -3.0053147251    0.2274412082
O        0.5190222184   -1.4465871723    0.0500640186
S       -1.1080594313   -1.6284000379    0.5414679062
H        2.1789728512    3.5316413895    0.0595479846
H        3.6574769762    1.7118477620    0.8973692734
H       -0.0967157114    3.0066607488   -0.7377804285
H        2.8309981262   -0.6521149566    0.9351211542
H       -3.2126615901    0.1198625374   -2.8686392540
H       -3.9331549488    0.7918631229   -1.3967511916
H       -3.6185987057    1.8604948225   -2.7877265065
H       -1.3861861227    2.0357572312   -2.1728049383
22   
torsion grid (-30,)
C        1.8432336908    2.4783947139    0.0262760560
C        2.6947789394    1.4475134797    0.4535577845
C        0.5438874305    2.1791662923   -0.3678568719
C        2.2379743089    0.1339018473    0.5176498136
C        0.0694794711    0.8536592903   -0.3458993149
C        0.9262383770   -0.1572138086    0.1334530559
C       -1.2619469055    0.4671008022   -0.8476570029
C       -3.2177860772    0.9901042104   -2.2407056770
N       -1.8372824617   -0.6943427303   -0.6109618669
N       -1.9293664045    1.3351545608   -1.6445348749
O       -1.4074808180   -1.1804936682    1.8673638873
O       -1.3979949540   -3.0565395230    0.1703495151
O        0.5119284762   -1.4605858525    0.2267866479
S       -1.1646768885   -1.6732376838    0.5195149075
H        2.1925843489    3.5062882526    0.0132042426
H        3.7109900368    1.6758405315    0.7626649886
H       -0.1185751299    2.9871902964   -0.6657785873
H        2.8664689125   -0.6750859829    0.8761667526
H       -3.1230528784    0.1537532046   -2.9415465884
H       -3.9180304644    0.6993437455   -1.4556876955
H       -3.6013566764    1.8683602882   -2.7628551563
H       -1.3903755461    2.0709487770   -2.0783070373
22   
torsion grid (-15,)
C        1.8609536442    2.4705518460   -0.0299925642
C        2.7099585775    1.4367775376    0.3990509355
C        0.5474572478    2.1799550433   -0.3741652375
C        2.2323690255    0.1370713485    0.5237672863
C        0.0465870367    0.8644653142   -0.2893272522
C        0.9001859772   -0.1468669622    0.1976774690
C       -1.2691454738    0.4748470107   -0.8221588143
C       -3.2109638141    0.9992629797   -2.2350934614
N       -1.8167334112   -0.7129072020   -0.6589622246
N       -1.9435884149    1.3541771255   -1.6000244127
O       -1.6329827290   -1.2879355007    1.8195711978
O       -1.3482904825   -3.0846513533    0.0638264612
O        0.4746197298   -1.4240332588    0.4277712375
S       -1.2212006930   -1.7082411713    0.4886239325
H        2.2265939952    3.4910521309   -0.0890672065
H        3.7410603767    1.6546924876    0.6632327296
H       -0.1065382429    2.9898464138   -0.6852599307
H        2.8573697894   -0.6697888161    0.8930894289
H       -3.0787450410    0.2054324336   -2.9780539299
H       -3.9119394806    0.6445303222   -1.4777545233
H       -3.6157566353    1.8916471961   -2.7157266519
H       -1.4163014610    2.1164181783   -2.0007383938
22   
torsion grid (0,)
C        1.9087822885    2.4409508167   -0.1245420627
C        2.7164012330    1.4193738356    0.4029071534
C        0.5940925271    2.1618848248   -0.4706857483
C        2.1953961628    0.1495148309    0.6164407504
C        0.0447498146    0.8743317723   -0.2921926644
C        0.8596873366   -0.1204053670    0.2858724051
C       -1.2744402767    0.4878967466   -0.8197176375
C       -3.2388817679    1.0229562052   -2.1980486224
N       -1.8121035785   -0.7056198379   -0.6820858750
N       -1.9706100440    1.3788895754   -1.5658786155
O       -1.8700131725   -1.5810192584    1.7000711109
O       -1.1849281839   -3.0968694208   -0.1981800568
O        0.3996514839   -1.3520645803    0.6416869693
S       -1.2505303755   -1.7804298122    0.4003335385
H        2.3077667783    3.4412689878   -0.2610923588
H        3.7498678382    1.6247639581    0.6678315200
H       -0.0200155495    2.9673200556   -0.8629987492
H        2.7873446506   -0.6460717534    1.0575842823
H       -3.1009436774    0.2636806031   -2.9754207712
H       -3.9213651933    0.6222641966   -1.4469139058
H       -3.6691091040    1.9257113904   -2.6354078485
H       -1.4650645121    2.1651021245   -1.9461312712
22   
torsion grid (15,)
C        2.0452657483    2.1791004073   -0.4255003487
C        2.5814085501    1.4316421437    0.6363183050
C        0.8154856938    1.8220324206   -0.9624254716
C        1.9123540334    0.3136309634    1.1214237373
C        0.0996173475    0.7129274293   -0.4665323555
C        0.6832108482   -0.0564322425    0.5612759776
C       -1.2848286977    0.4130481458   -0.8669714218
C       -3.3768165763    1.1436224553   -1.9302745572
N       -1.9423119231   -0.6740448778   -0.5152733778
N       -1.9716521429    1.3376127640   -1.5791309598
O       -1.9087425219   -2.6542066253    1.0486572342
O       -0.4065847178   -2.6559867700   -0.9850874761
O        0.1254198773   -1.2140058904    1.0239407654
S       -1.1081899163   -1.9465890577    0.0742669313
H        2.5892468206    3.0283063405   -0.8274100181
H        3.5397786816    1.7089725030    1.0665090316
H        0.4189963198    2.3941136086   -1.7966730961
H        2.3269780877   -0.3037269042    1.9119924278
H       -3.4959470886    0.1877423078   -2.4428328600
H       -4.0155530398    1.1371270488   -1.0404893583
H       -3.6790903591    1.9536727075   -2.5963859657
H       -1.6169138064    2.2830596636   -1.5732884972
22   
torsion grid (30,)
C        2.0671630339    2.1704240251   -0.4804089844
C        2.6032223551    1.4240663298    0.5805072956
C        0.8141764480    1.8440953431   -0.9874997206
C        1.9051539297    0.3395279638    1.1051899479
C        0.0727532101    0.7746038542   -0.4503133837
C        0.6530103406    0.0087004554    0.5806742522
C       -1.3004890378    0.4515903052   -0.8793494261
C       -3.3901147641    1.1656852443   -1.9557981308
N       -1.9197703606   -0.6772909812   -0.5995468967
N       -1.9989145708    1.3860059956   -1.5675591075
O       -1.8641491214   -2.7059421253    0.9054334077
O       -0.1772743570   -2.5183821890   -0.9706091909
O        0.0073450540   -1.0770095639    1.1135117559
S       -1.0355027347   -1.9052575531    0.0324554568
H        2.6312619336    2.9919669199   -0.9112750897
H        3.5816884612    1.6744524402    0.9808616138
H        0.4210411609    2.4061591394   -1.8301382626
H        2.3134698527   -0.2735786037    1.9022840061
H       -3.4677697726    0.2389055230   -2.5267967225
H       -4.0418125806    1.0831933105   -1.0793222308
H       -3.7104834122    2.0036336361   -2.5773522234
H       -1.6683253880    2.3390585612   -1.5166568894
22   
torsion grid (45,)
C        2.0833164519    2.1287671430   -0.4832811895
C        2.6341639099    1.3475627716    0.5421346342
C        0.7972657298    1.8591843369   -0.9465266554
C        1.9099574356    0.2900487891    1.0935094943
C        0.0363349429    0.8221347913   -0.3808656140
C        0.6263014666    0.0264879209    0.6202797851
C       -1.3201889418    0.4617253182   -0.8462493035
C       -3.3992939916    1.1361073169   -1.9714649831
N       -1.8899376966   -0.7076279860   -0.6422907981
N       -2.0318877564    1.3925566543   -1.5261481274
O       -1.8543354005   -2.7235209691    0.8853517349
O       -0.0251766677   -2.4714013297   -0.8445031677
O       -0.1145447907   -0.9694882689    1.2160176774
S       -0.9934597086   -1.8918485618    0.0747710677
H        2.6628264500    2.9315224407   -0.9291158317
H        3.6394116679    1.5520494467    0.8998726334
H        0.3981894989    2.4386006500   -1.7744891505
H        2.3197917137   -0.3400742043    1.8763365212
H       -3.4225515028    0.2253358689   -2.5722155063
H       -4.0780751694    1.0028902941   -1.1220921559
H       -3.7282503851    1.9808565671   -2.5792055053
H       -1.7365553551    2.3540622646   -1.4320917458
22   
torsion grid (60,)
C        2.1183021862    2.1439334106   -0.4827179840
C        2.7039698656    1.3184046525    0.4850455192
C        0.7979147279    1.9281252316   -0.8821750052
C        1.9739745129    0.2781647777    1.0684150699
C        0.0388899293    0.9113266221   -0.2849397010
C        0.6598584360    0.0791415886    0.6649394864
C       -1.2936809741    0.4764129265   -0.7794522866
C       -3.3741721316    1.0446539301   -1.9619678567
N       -1.7780722079   -0.7406865327   -0.6416899966
N       -2.0442151553    1.3756830379   -1.4576983327
O       -1.7649882778   -2.6995592899    0.9677236386
O        0.1799020462   -2.4352211546   -0.6281287232
O       -0.1556675989   -0.8190406742    1.3293582001
S       -0.8791297849   -1.8623368533    0.1898241030
H        2.6982516976    2.9385582457   -0.9425808440
H        3.7359705511    1.4814044123    0.7827396501
H        0.3776401913    2.5325012456   -1.6815000506
H        2.4010244970   -0.3720492580    1.8251066115
H       -3.3116162169    0.1813668669   -2.6273863450
H       -4.0575049295    0.7958768138   -1.1431413747
H       -3.7571904571    1.9033570068   -2.5159258909
H       -1.7948087176    2.3497492394   -1.3626146507
22   
torsion grid (75,)
C        2.1436328925    2.1699215967   -0.4899666192
C        2.7566371864    1.2701017838    0.3893993057
C        0.7846284081    2.0437015734   -0.7987307979
C        2.0140617848    0.2536870253    1.0049982125
C        0.0215084141    1.0525883965   -0.1703680942
C        0.6677778644    0.1531593629    0.6945386032
C       -1.2984437931    0.5493141157   -0.6756544229
C       -3.3661850385    1.0101090706   -1.9295790475
N       -1.7056851648   -0.7029789651   -0.5825623445
N       -2.0859123098    1.4113122959   -1.3547710663
O       -1.7687609040   -2.5698436598    1.1515025089
O        0.2584359596   -2.3983368496   -0.3481593000
O       -0.2160677243   -0.6173266773    1.4412816248
S       -0.8439081947   -1.7770500254    0.3714612811
H        2.7315462874    2.9525514781   -0.9604303679
H        3.8166136927    1.3662695278    0.6070622429
H        0.3454162783    2.6991765909   -1.5463427819
H        2.4566805120   -0.4364269442    1.7159578689
H       -3.2159188028    0.2221946573   -2.6717792988
H       -4.0341480339    0.6240865871   -1.1535320841
H       -3.8187981767    1.8801034949   -2.4080436131
H       -1.8430302587    2.3906785464   -1.3303923822
22   
torsion grid (90,)
C        2.1687035925    2.0777109660   -0.4032493296
C        2.7859053998    1.0680337019    0.3440538943
C        0.7866462933    2.0498422584   -0.6385299681
C        2.0295168624    0.0428128442    0.9336485495
C        0.0183468816    1.0495044707   -0.0368772114
C        0.6671422343    0.0485561086    0.6985332692
C       -1.2755632727    0.4682056704   -0.5959304970
C       -3.2832153561    0.8356879268   -1.9787499882
N       -1.5899310402   -0.8198384299   -0.5829154529
N       -2.0958637798    1.3010869951   -1.2696191025
O       -1.7689428771   -2.6332068725    1.2369366617
O        0.3528691295   -2.5316653408   -0.1268804612
O       -0.2718307627   -0.6241427705    1.4863641676
S       -0.7920543928   -1.8742391648    0.4862138544
H        2.7706949077    2.8711650324   -0.8365848007
H        3.8614883849    1.0934085367    0.4946090179
H        0.3428421447    2.7913509776   -1.2985991060
H        2.4772691321   -0.7200463568    1.5620524956
H       -3.0096646472    0.2358880611   -2.8527512585
H       -3.8865432860    0.2132910621   -1.3142940999
H       -3.8613028392    1.7052627708   -2.2964788978
H       -1.8247386990    2.2701705182   -1.3497754648
22   
torsion grid (105,)
C        2.1603485424    2.1086916442   -0.3656697801
C        2.7669570680    0.9962065137    0.2305239562
C        0.7655780435    2.1729241110   -0.5174717368
C        1.9998409796   -0.0450992138    0.7811028131
C       -0.0047027168    1.1566396696    0.0479490134
C        0.6297204662    0.0608510004    0.6335034898
C       -1.2880746234    0.4876985749   -0.5518469034
C       -3.2367173793    0.7689963057   -2.0383259183
N       -1.5384321110   -0.8243348340   -0.5752385587
N       -2.1127957635    1.2838489478   -1.2624932248
O       -1.7643949857   -2.5942496196    1.3454462320
O        0.4044463501   -2.5533919053    0.0613534504
O       -0.3367339482   -0.5227065509    1.4723263343
S       -0.7639108411   -1.8675660028    0.5935215933
H        2.7793677569    2.9129398090   -0.7529408915
H        3.8499449522    0.9569467756    0.3074179392
H        0.3209463081    2.9950277838   -1.0737362957
H        2.4489340835   -0.8819506524    1.3050331730
H       -2.8879714667    0.1683835342   -2.8845085569
H       -3.8583016959    0.1335840067   -1.4039764150
H       -3.8228135442    1.6146360391   -2.4032006545
H       -1.8609859605    2.2573657636   -1.3551717969
