31
0 1 C12FH14NOS2
C                    -2.362475350188     0.002328882445    -4.345348407569
C                    -2.342946827243     0.888123356814    -3.262340127994
C                    -2.917010394120    -1.271864540380    -4.209626899280
C                    -3.443761216152    -0.762625033641    -1.881822123372
C                    -2.875099982376     0.511085149847    -2.023041010281
C                    -3.451303060342    -1.620914638759    -2.972316831699
C                    -2.029999267259     0.762176349576     0.326020173876
C                     0.151259495304     1.272525138751    -0.799959644752
C                     0.008934141182    -0.038267360029     1.343147467671
C                     0.960423749002     0.254826227734    -1.641673625721
C                    -0.141648864560    -1.560274200731     1.214005711777
C                    -2.806676437685     1.427104644249    -0.815374994949
N                    -0.659658742718     0.703437007137     0.267671168423
O                    -2.647477712564     0.246585303406     1.262122700146
F                    -3.995533388824    -2.855954705443    -2.824660699818
S                     0.171073625773    -1.387288266105    -1.836274094565
S                     0.875577729338    -2.328208749791    -0.104127258098
H                    -1.942455745597     0.305012939301    -5.300721202430
H                    -1.912549745336     1.878972773973    -3.388286420842
H                    -2.938868275769    -1.981931709333    -5.030235827267
H                    -3.850752647153    -1.091906764796    -0.930171100627
H                     0.858711592193     1.992410254204    -0.366532853978
H                    -0.500518232382     1.834997391043    -1.460364580254
H                    -0.433618808017     0.269762228046     2.294411656583
H                     1.065793202976     0.242350393441     1.344644922758
H                     1.100507307373     0.658323760909    -2.649949430522
H                     1.949700001691     0.083792126206    -1.211945603729
H                     0.212975269050    -2.038932154291     2.134424801384
H                    -1.190777446364    -1.822664286427     1.077258356423
H                    -2.397075819070     2.401394661833    -1.092722544384
H                    -3.806633984201     1.594796605392    -0.409980832441
