15
0 1 C3H5O6P
C                     0.737863133295     1.196875292949     0.491452003276
C                    -0.051309969574     0.245491054894    -0.009458434087
C                    -0.016466719479    -1.161488942991     0.497474394483
O                     0.655472056672    -1.527285939014     1.441882346491
O                    -3.091429499386     0.288571064692     0.378383804069
O                    -0.806864084408    -1.990700366218    -0.223843436518
O                    -3.104526926397     0.663504855602    -2.229519951723
O                    -2.335434691062     2.521332544337    -0.755654531502
O                    -0.909542852186     0.493241289012    -1.080463868544
P                    -2.443275661907     0.916654538805    -0.789096234587
H                     0.701146844588     2.209361088760     0.103407100832
H                     1.423646910395     0.949961264659     1.293685289665
H                    -0.738743218498    -2.865599356990     0.204095881834
H                    -3.358338906630    -0.267975524695    -2.352190791098
H                    -3.027066908235     2.909728561152    -0.192742876914
