
  -OEChem-05262117483D

 31 32  0     0  0  0  0  0  0999 V2000
   -4.9737    2.6649    1.1653 C   0  0  0  0  0  0  0  0  0  0  0  0
   -4.1830    1.6397    0.6420 C   0  0  0  0  0  0  0  0  0  0  0  0
   -5.0722    3.8989    0.5126 C   0  0  0  0  0  0  0  0  0  0  0  0
   -3.5638    3.0624   -1.2129 C   0  0  0  0  0  0  0  0  0  0  0  0
   -3.4696    1.8309   -0.5515 C   0  0  0  0  0  0  0  0  0  0  0  0
   -4.3603    4.0660   -0.6691 C   0  0  0  0  0  0  0  0  0  0  0  0
   -1.7814    0.0008   -0.0674 C   0  0  0  0  0  0  0  0  0  0  0  0
    0.1620   -0.1106    1.3702 C   0  0  0  0  0  0  0  0  0  0  0  0
   -0.1484    1.9015   -0.0964 C   0  0  0  0  0  0  0  0  0  0  0  0
    0.8827   -1.3465    0.8153 C   0  0  0  0  0  0  0  0  0  0  0  0
    0.8810    1.7906   -1.2256 C   0  0  0  0  0  0  0  0  0  0  0  0
   -2.6183    0.7141   -1.1290 C   0  0  0  0  0  0  0  0  0  0  0  0
   -0.6516    0.6197    0.3966 N   0  0  0  0  0  0  0  0  0  0  0  0
   -2.1394   -1.0933    0.3774 O   0  0  0  0  0  0  0  0  0  0  0  0
   -4.4384    5.2556   -1.3223 F   0  0  0  0  0  0  0  0  0  0  0  0
    1.6574   -1.1132   -0.8384 S   0  0  0  0  0  0  0  0  0  0  0  0
    2.3933    0.8417   -0.7786 S   0  0  0  0  0  0  0  0  0  0  0  0
   -5.5215    2.5056    2.0901 H   0  0  0  0  0  0  0  0  0  0  0  0
   -4.1158    0.6853    1.1567 H   0  0  0  0  0  0  0  0  0  0  0  0
   -5.6796    4.7106    0.9006 H   0  0  0  0  0  0  0  0  0  0  0  0
   -3.0325    3.2509   -2.1422 H   0  0  0  0  0  0  0  0  0  0  0  0
   -0.4771   -0.4401    2.1953 H   0  0  0  0  0  0  0  0  0  0  0  0
    0.8992    0.5896    1.7646 H   0  0  0  0  0  0  0  0  0  0  0  0
    0.2993    2.4320    0.7496 H   0  0  0  0  0  0  0  0  0  0  0  0
   -0.9869    2.5153   -0.4306 H   0  0  0  0  0  0  0  0  0  0  0  0
    1.6402   -1.6679    1.5355 H   0  0  0  0  0  0  0  0  0  0  0  0
    0.1710   -2.1602    0.6575 H   0  0  0  0  0  0  0  0  0  0  0  0
    0.4477    1.3286   -2.1162 H   0  0  0  0  0  0  0  0  0  0  0  0
    1.2338    2.7935   -1.4934 H   0  0  0  0  0  0  0  0  0  0  0  0
   -3.2616   -0.0610   -1.5529 H   0  0  0  0  0  0  0  0  0  0  0  0
   -1.9916    1.0976   -1.9388 H   0  0  0  0  0  0  0  0  0  0  0  0
  1  2  1  0  0  0  0
  1  3  2  0  0  0  0
  1 18  1  0  0  0  0
  2  5  2  0  0  0  0
  2 19  1  0  0  0  0
  3  6  1  0  0  0  0
  3 20  1  0  0  0  0
  4  5  1  0  0  0  0
  4  6  2  0  0  0  0
  4 21  1  0  0  0  0
  5 12  1  0  0  0  0
  6 15  1  0  0  0  0
  7 12  1  0  0  0  0
  7 13  1  0  0  0  0
  7 14  2  0  0  0  0
  8 10  1  0  0  0  0
  8 13  1  0  0  0  0
  8 22  1  0  0  0  0
  8 23  1  0  0  0  0
  9 11  1  0  0  0  0
  9 13  1  0  0  0  0
  9 24  1  0  0  0  0
  9 25  1  0  0  0  0
 10 16  1  0  0  0  0
 10 26  1  0  0  0  0
 10 27  1  0  0  0  0
 11 17  1  0  0  0  0
 11 28  1  0  0  0  0
 11 29  1  0  0  0  0
 12 30  1  0  0  0  0
 12 31  1  0  0  0  0
 16 17  1  0  0  0  0
M  END
$$$$
