
  -OEChem-05262117483D

 37 39  0     0  0  0  0  0  0999 V2000
   -0.9227   -5.6811   11.4188 C   0  0  0  0  0  0  0  0  0  0  0  0
    0.0722   -5.3695   10.7982 C   0  0  0  0  0  0  0  0  0  0  0  0
    1.5102   -1.1512   -0.0467 C   0  0  0  0  0  0  0  0  0  0  0  0
    0.1650   -1.2504    0.3295 C   0  0  0  0  0  0  0  0  0  0  0  0
    3.6377   -4.6271    9.9986 C   0  0  0  0  0  0  0  0  0  0  0  0
    2.5002   -4.9881   10.7196 C   0  0  0  0  0  0  0  0  0  0  0  0
    2.4951   -1.7117    0.7663 C   0  0  0  0  0  0  0  0  0  0  0  0
   -0.1735   -1.9057    1.5129 C   0  0  0  0  0  0  0  0  0  0  0  0
    3.5435   -4.2865    8.6500 C   0  0  0  0  0  0  0  0  0  0  0  0
    1.1472   -4.6583    8.7111 C   0  0  0  0  0  0  0  0  0  0  0  0
    1.2521   -5.0033   10.0709 C   0  0  0  0  0  0  0  0  0  0  0  0
    2.1618   -2.3722    1.9584 C   0  0  0  0  0  0  0  0  0  0  0  0
    0.8133   -2.4662    2.3369 C   0  0  0  0  0  0  0  0  0  0  0  0
    2.2978   -4.2994    7.9952 C   0  0  0  0  0  0  0  0  0  0  0  0
    1.1938   -3.7578    5.8012 C   0  0  0  0  0  0  0  0  0  0  0  0
    3.2427   -2.9750    2.8315 C   0  0  0  0  0  0  0  0  0  0  0  0
    0.3792   -3.1769    3.6042 C   0  0  0  0  0  0  0  0  0  0  0  0
    2.6619   -4.0354    3.7642 C   0  0  0  0  0  0  0  0  0  0  0  0
    1.5119   -3.4771    4.4786 N   0  0  0  0  0  0  0  0  0  0  0  0
    2.2943   -3.9662    6.6255 N   0  0  0  0  0  0  0  0  0  0  0  0
    0.0328   -3.7720    6.2065 O   0  0  0  0  0  0  0  0  0  0  0  0
   -1.8033   -5.9532   11.9609 H   0  0  0  0  0  0  0  0  0  0  0  0
    1.7863   -0.6439   -0.9674 H   0  0  0  0  0  0  0  0  0  0  0  0
   -0.6125   -0.8181   -0.2949 H   0  0  0  0  0  0  0  0  0  0  0  0
    4.6082   -4.6097   10.4871 H   0  0  0  0  0  0  0  0  0  0  0  0
    2.5646   -5.2541   11.7698 H   0  0  0  0  0  0  0  0  0  0  0  0
    3.5411   -1.6422    0.4736 H   0  0  0  0  0  0  0  0  0  0  0  0
   -1.2184   -1.9811    1.8082 H   0  0  0  0  0  0  0  0  0  0  0  0
    4.4407   -4.0095    8.0991 H   0  0  0  0  0  0  0  0  0  0  0  0
    0.1832   -4.6565    8.2235 H   0  0  0  0  0  0  0  0  0  0  0  0
    4.0272   -3.4190    2.2083 H   0  0  0  0  0  0  0  0  0  0  0  0
    3.7152   -2.1881    3.4335 H   0  0  0  0  0  0  0  0  0  0  0  0
   -0.3244   -2.5588    4.1631 H   0  0  0  0  0  0  0  0  0  0  0  0
   -0.1583   -4.1026    3.3452 H   0  0  0  0  0  0  0  0  0  0  0  0
    2.3347   -4.9090    3.1795 H   0  0  0  0  0  0  0  0  0  0  0  0
    3.4167   -4.3962    4.4629 H   0  0  0  0  0  0  0  0  0  0  0  0
    3.1904   -3.6678    6.2676 H   0  0  0  0  0  0  0  0  0  0  0  0
  1  2  3  0  0  0  0
  1 22  1  0  0  0  0
  2 11  1  0  0  0  0
  3  4  1  0  0  0  0
  3  7  2  0  0  0  0
  3 23  1  0  0  0  0
  4  8  2  0  0  0  0
  4 24  1  0  0  0  0
  5  6  2  0  0  0  0
  5  9  1  0  0  0  0
  5 25  1  0  0  0  0
  6 11  1  0  0  0  0
  6 26  1  0  0  0  0
  7 12  1  0  0  0  0
  7 27  1  0  0  0  0
  8 13  1  0  0  0  0
  8 28  1  0  0  0  0
  9 14  2  0  0  0  0
  9 29  1  0  0  0  0
 10 11  2  0  0  0  0
 10 14  1  0  0  0  0
 10 30  1  0  0  0  0
 12 13  2  0  0  0  0
 12 16  1  0  0  0  0
 13 17  1  0  0  0  0
 14 20  1  0  0  0  0
 15 19  1  0  0  0  0
 15 20  1  0  0  0  0
 15 21  2  0  0  0  0
 16 18  1  0  0  0  0
 16 31  1  0  0  0  0
 16 32  1  0  0  0  0
 17 19  1  0  0  0  0
 17 33  1  0  0  0  0
 17 34  1  0  0  0  0
 18 19  1  0  0  0  0
 18 35  1  0  0  0  0
 18 36  1  0  0  0  0
 20 37  1  0  0  0  0
M  END
$$$$
