37
0 1 C18H16N2O
C                     3.035385436400    -2.513294215504    -7.273036322483
C                     3.149863712954    -3.069384347213    -6.200529151896
C                     2.323548370765    -1.294752624223    -0.383870408641
C                     1.735975581755    -1.241607838507    -1.652964261815
C                     4.243541676208    -3.835207336325    -2.710758945960
C                     4.131144865296    -3.195108602596    -3.942872683837
C                     2.206848640032    -2.454093038946     0.385288016179
C                     1.037959518883    -2.349090992709    -2.134259634593
C                     3.515217401353    -4.996748276268    -2.446874670201
C                     2.535399831465    -4.883782689814    -4.656640807074
C                     3.280013233927    -3.722624964131    -4.932625629940
C                     1.511128391321    -3.574326130652    -0.090814561797
C                     0.924892288070    -3.513223424580    -1.366645714005
C                     2.647224591229    -5.516230785810    -3.416971984994
C                     1.380811258757    -6.938838238701    -1.845940357709
C                     1.464033476983    -4.846360256453     0.740535573461
C                     0.187899048024    -4.718656714258    -1.918542841292
C                     0.490488890169    -5.894525222432     0.181717443271
N                     0.619511443605    -5.949862542794    -1.271212985648
N                     1.843435486799    -6.678425254317    -3.154808963947
O                     1.611208200481    -8.014617581863    -1.290851381657
H                     2.938338913346    -2.025758367008    -8.219849982884
H                     2.871751073815    -0.439122277467     0.002233773425
H                     1.832252824023    -0.349781971628    -2.266588979375
H                     4.893625560561    -3.423646904618    -1.944357227484
H                     4.689236027709    -2.287134856091    -4.148708219875
H                     2.668935144651    -2.496186879386     1.370148586676
H                     0.602045679886    -2.321658239729    -3.130763707131
H                     3.612103631338    -5.498453453133    -1.489248861032
H                     1.850411158999    -5.279898232651    -5.400257832350
H                     2.469660670468    -5.285359166837     0.771888926310
H                     1.199669480915    -4.608769060591     1.777567238314
H                    -0.890934330281    -4.608358810666    -1.735548345243
H                     0.314389933015    -4.796116695378    -2.995868826563
H                     0.689029898279    -6.884947043238     0.589298308891
H                    -0.544878517648    -5.624066020374     0.421216418229
H                     2.238933606834    -7.534836793639    -3.532721726214
