15
0 1 C3H5O6P
C                     0.990970175398     1.288111302060    -0.223329266773
C                     0.079982468340     0.330838253003    -0.423209659445
C                     0.113790658394    -0.993099161152     0.262617473143
O                    -0.728309965904    -1.867004447084     0.100054895497
O                    -0.074144680603    -0.930414453350    -3.152767414144
O                     1.162520155913    -1.149352575879     1.091689855058
O                    -2.198752022330     0.573795956669    -3.455935467060
O                    -2.447038191251    -1.404874470557    -2.048103996584
O                    -1.017258916042     0.544491837277    -1.231832538398
P                    -1.313842506886    -0.404634316951    -2.546916627315
H                     0.913080444174     2.235335709812    -0.746779933340
H                     1.807352056993     1.131501354188     0.470659011387
H                     1.088618081894    -2.047392232069     1.468379403035
H                    -1.682677043600     0.900498303471    -4.212287724006
H                    -2.137901585618    -1.856205353117    -1.231263895151
