44
0 1 C15H23N3O2S
C                     3.030521107186     2.545421437106    -3.633539420077
C                     2.782551730202     3.026268930168    -4.922122430702
C                     1.987800004135     1.943716663763    -2.928828281219
C                     1.493406479373     2.881474048881    -5.441604442818
C                     0.728388379383     1.845580242034    -3.536697291720
C                    -0.493898781112     2.635114450139     0.630152615216
C                    -1.243781428608     1.514744407371     1.364454073669
C                    -1.655894141402    -1.030117371917     1.417291730224
C                    -0.708997797062     2.547240975903    -0.882274641568
C                    -0.812972773834    -2.271884217593     1.086285315288
C                    -1.156183147688     0.183049911487    -0.740605737067
C                     0.574031900912    -0.250524657315     1.050631582669
C                    -0.889847733672     0.143661373118     0.776769220801
C                     1.507317749184    -2.280620488832    -1.512978431892
C                    -0.432260748791     1.152661272264    -2.846252426497
N                     0.482308022163     2.309882072960    -4.772265334383
N                    -0.355380449554     1.215865526251    -1.390258336701
N                     0.563343352065    -1.728615001927     1.046170110773
O                     1.528671520748    -3.981101101715     0.512774780930
O                     3.032369152758    -1.903813071922     0.600771431746
S                     1.766383226136    -2.557481761453     0.260995513242
H                     4.017563909247     2.636266834059    -3.186845262321
H                     3.561337121468     3.503352364563    -5.510222211421
H                     2.125810352030     1.560388016166    -1.923038201697
H                     1.258225431701     3.245396085379    -6.440959335867
H                    -0.830299797871     3.614917224233     0.986232843422
H                     0.579011686011     2.567933328870     0.843696538097
H                    -1.016275434904     1.536222948337     2.436655236951
H                    -2.325922455528     1.673845610423     1.265057352912
H                    -2.681806697662    -1.119982558048     1.047380841772
H                    -1.701683850733    -0.887938192416     2.502421518279
H                    -1.765200874911     2.781162883445    -1.121373410386
H                    -0.091989631544     3.291345595645    -1.394271494956
H                    -0.887063779993    -3.057810924109     1.839655034222
H                    -1.104825695043    -2.707022155796     0.122194394674
H                    -0.906874465518    -0.779586031094    -1.195815747879
H                    -2.240535595588     0.341094379401    -0.902312418201
H                     1.254878692766     0.150416939349     0.299138675380
H                     0.905940552410     0.108302677961     2.031242722577
H                     2.312969848444    -2.801626055055    -2.033642774065
H                     0.543000346016    -2.701052650560    -1.802525680368
H                     1.555650393142    -1.210328401131    -1.718528804915
H                    -1.370024706291     1.572401291367    -3.246453677786
H                    -0.415275954239     0.096748458698    -3.144203607049
