
  -OEChem-05262117483D

 44 46  0     1  0  0  0  0  0999 V2000
   -1.4754   -2.3299   -4.8529 C   0  0  0  0  0  0  0  0  0  0  0  0
   -0.4125   -1.9774   -5.6851 C   0  0  0  0  0  0  0  0  0  0  0  0
   -1.8897   -1.4190   -3.8775 C   0  0  0  0  0  0  0  0  0  0  0  0
    0.1788   -0.7213   -5.5040 C   0  0  0  0  0  0  0  0  0  0  0  0
   -1.2291   -0.1889   -3.7664 C   0  0  0  0  0  0  0  0  0  0  0  0
    0.3538    2.3210    0.1382 C   0  0  0  0  0  0  0  0  0  0  0  0
    0.6257    1.0551    0.9599 C   0  0  0  0  0  0  0  0  0  0  0  0
    0.8853   -1.4775    0.9108 C   0  0  0  0  0  0  0  0  0  0  0  0
   -0.8211    2.1184   -0.8200 C   0  0  0  0  0  0  0  0  0  0  0  0
    2.3690   -1.5200    1.3098 C   0  0  0  0  0  0  0  0  0  0  0  0
   -0.4737   -0.2642   -0.8624 C   0  0  0  0  0  0  0  0  0  0  0  0
    2.0580   -0.2065   -0.7314 C   0  0  0  0  0  0  0  0  0  0  0  0
    0.7413   -0.1961    0.0656 C   0  0  1  0  0  0  0  0  0  0  0  0
    5.6524   -0.4353    0.9262 C   0  0  0  0  0  0  0  0  0  0  0  0
   -1.6173    0.8231   -2.7081 C   0  0  0  0  0  0  0  0  0  0  0  0
   -0.2125    0.1573   -4.5748 N   0  0  0  0  0  0  0  0  0  0  0  0
   -0.5961    0.9479   -1.6683 N   0  0  1  0  0  0  0  0  0  0  0  0
    3.0406   -0.6840    0.2787 N   0  0  2  0  0  0  0  0  0  0  0  0
    4.7516   -0.5179   -1.5739 O   0  0  0  0  0  0  0  0  0  0  0  0
    4.6936   -2.6384   -0.1584 O   0  0  0  0  0  0  0  0  0  0  0  0
    4.5428   -1.1803   -0.2826 S   0  0  0  0  0  0  0  0  0  0  0  0
   -1.9687   -3.2932   -4.9564 H   0  0  0  0  0  0  0  0  0  0  0  0
   -0.0475   -2.6496   -6.4564 H   0  0  0  0  0  0  0  0  0  0  0  0
   -2.7097   -1.6569   -3.2049 H   0  0  0  0  0  0  0  0  0  0  0  0
    1.0063   -0.4078   -6.1393 H   0  0  0  0  0  0  0  0  0  0  0  0
    0.1397    3.1631    0.8063 H   0  0  0  0  0  0  0  0  0  0  0  0
    1.2398    2.5917   -0.4454 H   0  0  0  0  0  0  0  0  0  0  0  0
    1.5326    1.1796    1.5616 H   0  0  0  0  0  0  0  0  0  0  0  0
   -0.2047    0.8983    1.6615 H   0  0  0  0  0  0  0  0  0  0  0  0
    0.6442   -2.3511    0.2944 H   0  0  0  0  0  0  0  0  0  0  0  0
    0.2227   -1.4867    1.7810 H   0  0  0  0  0  0  0  0  0  0  0  0
   -1.7614    2.0168   -0.2387 H   0  0  0  0  0  0  0  0  0  0  0  0
   -0.9326    2.9962   -1.4648 H   0  0  0  0  0  0  0  0  0  0  0  0
    2.5369   -1.0770    2.2977 H   0  0  0  0  0  0  0  0  0  0  0  0
    2.7669   -2.5374    1.3125 H   0  0  0  0  0  0  0  0  0  0  0  0
   -0.3683   -1.1238   -1.5306 H   0  0  0  0  0  0  0  0  0  0  0  0
   -1.3864   -0.4367   -0.2530 H   0  0  0  0  0  0  0  0  0  0  0  0
    1.9808   -0.8905   -1.5842 H   0  0  0  0  0  0  0  0  0  0  0  0
    2.3550    0.7678   -1.1133 H   0  0  0  0  0  0  0  0  0  0  0  0
    6.6651   -0.7465    0.6633 H   0  0  0  0  0  0  0  0  0  0  0  0
    5.5465    0.6478    0.8659 H   0  0  0  0  0  0  0  0  0  0  0  0
    5.3891   -0.8047    1.9186 H   0  0  0  0  0  0  0  0  0  0  0  0
   -1.7172    1.7984   -3.1937 H   0  0  0  0  0  0  0  0  0  0  0  0
   -2.6052    0.5576   -2.2850 H   0  0  0  0  0  0  0  0  0  0  0  0
  1  2  1  0  0  0  0
  1  3  2  0  0  0  0
  1 22  1  0  0  0  0
  2  4  2  0  0  0  0
  2 23  1  0  0  0  0
  3  5  1  0  0  0  0
  3 24  1  0  0  0  0
  4 16  1  0  0  0  0
  4 25  1  0  0  0  0
  5 15  1  0  0  0  0
  5 16  2  0  0  0  0
  6  7  1  0  0  0  0
  6  9  1  0  0  0  0
  6 26  1  0  0  0  0
  6 27  1  0  0  0  0
  7 13  1  0  0  0  0
  7 28  1  0  0  0  0
  7 29  1  0  0  0  0
  8 10  1  0  0  0  0
  8 13  1  0  0  0  0
  8 30  1  0  0  0  0
  8 31  1  0  0  0  0
  9 17  1  0  0  0  0
  9 32  1  0  0  0  0
  9 33  1  0  0  0  0
 10 18  1  0  0  0  0
 10 34  1  0  0  0  0
 10 35  1  0  0  0  0
 11 13  1  0  0  0  0
 11 17  1  0  0  0  0
 11 36  1  0  0  0  0
 11 37  1  0  0  0  0
 12 13  1  0  0  0  0
 12 18  1  0  0  0  0
 12 38  1  0  0  0  0
 12 39  1  0  0  0  0
 14 21  1  0  0  0  0
 14 40  1  0  0  0  0
 14 41  1  0  0  0  0
 14 42  1  0  0  0  0
 15 17  1  0  0  0  0
 15 43  1  0  0  0  0
 15 44  1  0  0  0  0
 18 21  1  0  0  0  0
 19 21  2  0  0  0  0
 20 21  2  0  0  0  0
M  END
$$$$
