
  -OEChem-05262117483D

 44 46  0     1  0  0  0  0  0999 V2000
    3.3396   -1.0238   -4.0643 C   0  0  0  0  0  0  0  0  0  0  0  0
    2.9002   -1.5759   -5.2703 C   0  0  0  0  0  0  0  0  0  0  0  0
    2.5438   -0.0665   -3.4389 C   0  0  0  0  0  0  0  0  0  0  0  0
    1.6734   -1.1486   -5.7832 C   0  0  0  0  0  0  0  0  0  0  0  0
    1.3187    0.2836   -4.0212 C   0  0  0  0  0  0  0  0  0  0  0  0
   -0.2624    2.2300    0.2355 C   0  0  0  0  0  0  0  0  0  0  0  0
   -0.7804    0.8806    0.7483 C   0  0  0  0  0  0  0  0  0  0  0  0
   -0.6360   -1.6624    0.4569 C   0  0  0  0  0  0  0  0  0  0  0  0
   -0.3398    2.3023   -1.2909 C   0  0  0  0  0  0  0  0  0  0  0  0
    0.4793   -2.6589    0.1131 C   0  0  0  0  0  0  0  0  0  0  0  0
   -0.1955   -0.0971   -1.4765 C   0  0  0  0  0  0  0  0  0  0  0  0
    1.4057   -0.4102    0.4547 C   0  0  0  0  0  0  0  0  0  0  0  0
   -0.0757   -0.2872    0.0471 C   0  0  1  0  0  0  0  0  0  0  0  0
    3.9254   -3.3418    0.8036 C   0  0  0  0  0  0  0  0  0  0  0  0
    0.4014    1.2971   -3.3644 C   0  0  0  0  0  0  0  0  0  0  0  0
    0.8848   -0.2494   -5.1753 N   0  0  0  0  0  0  0  0  0  0  0  0
    0.3727    1.1807   -1.9047 N   0  0  1  0  0  0  0  0  0  0  0  0
    1.7122   -1.8541    0.2984 N   0  0  2  0  0  0  0  0  0  0  0  0
    3.9488   -1.1652   -0.6968 O   0  0  0  0  0  0  0  0  0  0  0  0
    2.7819   -3.2603   -1.5684 O   0  0  0  0  0  0  0  0  0  0  0  0
    3.1130   -2.3508   -0.4634 S   0  0  0  0  0  0  0  0  0  0  0  0
    4.2718   -1.3393   -3.6060 H   0  0  0  0  0  0  0  0  0  0  0  0
    3.4805   -2.3304   -5.7940 H   0  0  0  0  0  0  0  0  0  0  0  0
    2.8444    0.3759   -2.4965 H   0  0  0  0  0  0  0  0  0  0  0  0
    1.2948   -1.5576   -6.7193 H   0  0  0  0  0  0  0  0  0  0  0  0
   -0.8450    3.0504    0.6694 H   0  0  0  0  0  0  0  0  0  0  0  0
    0.7790    2.3734    0.5460 H   0  0  0  0  0  0  0  0  0  0  0  0
   -0.6506    0.8034    1.8347 H   0  0  0  0  0  0  0  0  0  0  0  0
   -1.8586    0.8076    0.5515 H   0  0  0  0  0  0  0  0  0  0  0  0
   -1.5711   -1.9071   -0.0557 H   0  0  0  0  0  0  0  0  0  0  0  0
   -0.8316   -1.6707    1.5350 H   0  0  0  0  0  0  0  0  0  0  0  0
   -1.4036    2.3171   -1.6043 H   0  0  0  0  0  0  0  0  0  0  0  0
    0.1125    3.2347   -1.6452 H   0  0  0  0  0  0  0  0  0  0  0  0
    0.4818   -3.5275    0.7795 H   0  0  0  0  0  0  0  0  0  0  0  0
    0.4074   -3.0199   -0.9163 H   0  0  0  0  0  0  0  0  0  0  0  0
    0.3301   -0.9006   -1.9989 H   0  0  0  0  0  0  0  0  0  0  0  0
   -1.2643   -0.1740   -1.7592 H   0  0  0  0  0  0  0  0  0  0  0  0
    2.0605    0.1985   -0.1652 H   0  0  0  0  0  0  0  0  0  0  0  0
    1.5476   -0.1214    1.5035 H   0  0  0  0  0  0  0  0  0  0  0  0
    4.8434   -3.7374    0.3647 H   0  0  0  0  0  0  0  0  0  0  0  0
    4.1459   -2.6960    1.6538 H   0  0  0  0  0  0  0  0  0  0  0  0
    3.2580   -4.1564    1.0884 H   0  0  0  0  0  0  0  0  0  0  0  0
    0.7559    2.3066   -3.6079 H   0  0  0  0  0  0  0  0  0  0  0  0
   -0.5988    1.1896   -3.8170 H   0  0  0  0  0  0  0  0  0  0  0  0
  1  2  1  0  0  0  0
  1  3  2  0  0  0  0
  1 22  1  0  0  0  0
  2  4  2  0  0  0  0
  2 23  1  0  0  0  0
  3  5  1  0  0  0  0
  3 24  1  0  0  0  0
  4 16  1  0  0  0  0
  4 25  1  0  0  0  0
  5 15  1  0  0  0  0
  5 16  2  0  0  0  0
  6  7  1  0  0  0  0
  6  9  1  0  0  0  0
  6 26  1  0  0  0  0
  6 27  1  0  0  0  0
  7 13  1  0  0  0  0
  7 28  1  0  0  0  0
  7 29  1  0  0  0  0
  8 10  1  0  0  0  0
  8 13  1  0  0  0  0
  8 30  1  0  0  0  0
  8 31  1  0  0  0  0
  9 17  1  0  0  0  0
  9 32  1  0  0  0  0
  9 33  1  0  0  0  0
 10 18  1  0  0  0  0
 10 34  1  0  0  0  0
 10 35  1  0  0  0  0
 11 13  1  0  0  0  0
 11 17  1  0  0  0  0
 11 36  1  0  0  0  0
 11 37  1  0  0  0  0
 12 13  1  0  0  0  0
 12 18  1  0  0  0  0
 12 38  1  0  0  0  0
 12 39  1  0  0  0  0
 14 21  1  0  0  0  0
 14 40  1  0  0  0  0
 14 41  1  0  0  0  0
 14 42  1  0  0  0  0
 15 17  1  0  0  0  0
 15 43  1  0  0  0  0
 15 44  1  0  0  0  0
 18 21  1  0  0  0  0
 19 21  2  0  0  0  0
 20 21  2  0  0  0  0
M  END
$$$$
