31
0 1 C13H10N4O3S
C                     0.868269268174     4.614844877528     0.592649842172
C                     0.875432168563     5.994419692566     0.532091257275
C                     2.457764174094    -2.449401755971    -0.149482655817
C                     1.394968664764    -2.994735355436     0.521085826530
C                     0.501703869798    -2.003459934747     1.046311173542
C                    -0.195545822763     4.012454555108     1.287610599875
C                     0.915526581706    -0.713194066507     0.766246838890
C                    -0.172037955988     6.688849526773     1.163948780920
C                    -0.260617717756     2.541590315812     1.388547586156
C                     0.291238202502     0.531747699554     1.117102299408
C                     0.242331882822    -4.606358033967     1.743079965729
C                    -0.979908784164    -3.710601232388     1.625514199448
C                    -0.247105177681     8.192590620109     1.153306397493
N                    -1.172886150083     4.716282370198     1.874259895276
N                    -1.159242691567     6.045949154263     1.811392097450
N                     0.701113659885     1.740131787194     0.808524827707
N                    -1.213214062670     1.888236063380     2.021596621084
O                    -0.848174991290     0.536975938645     1.843406053962
O                     1.175802853158    -4.337188182766     0.680803965542
O                    -0.615211656514    -2.320467310541     1.749537113056
S                     2.402136335444    -0.718042292859    -0.158334499359
H                     1.635420158702     4.000433262872     0.133702840108
H                     1.662852498924     6.535871099844     0.013660058805
H                     3.267699047397    -2.981042577604    -0.631080781460
H                     0.736624895665    -4.454056228894     2.710638933861
H                    -0.037994399841    -5.656430096404     1.641513396153
H                    -1.476721955846    -3.864096787163     0.660380810313
H                    -1.687618833775    -3.905174633817     2.433153062794
H                    -0.265337264086     8.576948702592     0.127594854488
H                    -1.149992023036     8.520300271606     1.670838042330
H                     0.624793881025     8.630417736353     1.652065904123
