
  -OEChem-05262117483D

 31 34  0     0  0  0  0  0  0999 V2000
    0.9738    4.5006    1.5906 C   0  0  0  0  0  0  0  0  0  0  0  0
    1.0654    5.8344    1.9362 C   0  0  0  0  0  0  0  0  0  0  0  0
    1.0855   -3.1209   -0.0459 C   0  0  0  0  0  0  0  0  0  0  0  0
    2.1114   -2.5049    0.6208 C   0  0  0  0  0  0  0  0  0  0  0  0
    1.8825   -1.1041    0.8246 C   0  0  0  0  0  0  0  0  0  0  0  0
   -0.2000    4.0919    0.9326 C   0  0  0  0  0  0  0  0  0  0  0  0
    0.6758   -0.6805    0.2941 C   0  0  0  0  0  0  0  0  0  0  0  0
   -0.0116    6.6777    1.6075 C   0  0  0  0  0  0  0  0  0  0  0  0
   -0.3575    2.6785    0.5384 C   0  0  0  0  0  0  0  0  0  0  0  0
    0.1231    0.6453    0.3180 C   0  0  0  0  0  0  0  0  0  0  0  0
    4.3001   -2.2043    1.3522 C   0  0  0  0  0  0  0  0  0  0  0  0
    3.7796   -1.0412    2.1805 C   0  0  0  0  0  0  0  0  0  0  0  0
   -0.0037    8.1444    1.9477 C   0  0  0  0  0  0  0  0  0  0  0  0
   -1.2008    4.9327    0.6392 N   0  0  0  0  0  0  0  0  0  0  0  0
   -1.1048    6.2173    0.9752 N   0  0  0  0  0  0  0  0  0  0  0  0
    0.6284    1.7502    0.8104 N   0  0  0  0  0  0  0  0  0  0  0  0
   -1.4148    2.2002   -0.0842 N   0  0  0  0  0  0  0  0  0  0  0  0
   -1.0997    0.8345   -0.2361 O   0  0  0  0  0  0  0  0  0  0  0  0
    3.2425   -3.1367    1.0658 O   0  0  0  0  0  0  0  0  0  0  0  0
    2.7732   -0.3009    1.4604 O   0  0  0  0  0  0  0  0  0  0  0  0
   -0.1849   -2.0158   -0.4458 S   0  0  0  0  0  0  0  0  0  0  0  0
    1.7551    3.7789    1.8038 H   0  0  0  0  0  0  0  0  0  0  0  0
    1.9399    6.2301    2.4468 H   0  0  0  0  0  0  0  0  0  0  0  0
    1.0198   -4.1644   -0.3234 H   0  0  0  0  0  0  0  0  0  0  0  0
    4.7321   -1.8411    0.4113 H   0  0  0  0  0  0  0  0  0  0  0  0
    5.0567   -2.7640    1.9053 H   0  0  0  0  0  0  0  0  0  0  0  0
    3.3511   -1.4038    3.1223 H   0  0  0  0  0  0  0  0  0  0  0  0
    4.5767   -0.3272    2.3959 H   0  0  0  0  0  0  0  0  0  0  0  0
    0.8693    8.6435    1.5132 H   0  0  0  0  0  0  0  0  0  0  0  0
   -0.9097    8.6164    1.5647 H   0  0  0  0  0  0  0  0  0  0  0  0
    0.0397    8.2928    3.0326 H   0  0  0  0  0  0  0  0  0  0  0  0
  1  2  1  0  0  0  0
  1  6  2  0  0  0  0
  1 22  1  0  0  0  0
  2  8  2  0  0  0  0
  2 23  1  0  0  0  0
  3  4  2  0  0  0  0
  3 21  1  0  0  0  0
  3 24  1  0  0  0  0
  4  5  1  0  0  0  0
  4 19  1  0  0  0  0
  5  7  2  0  0  0  0
  5 20  1  0  0  0  0
  6  9  1  0  0  0  0
  6 14  1  0  0  0  0
  7 10  1  0  0  0  0
  7 21  1  0  0  0  0
  8 13  1  0  0  0  0
  8 15  1  0  0  0  0
  9 16  1  0  0  0  0
  9 17  2  0  0  0  0
 10 16  2  0  0  0  0
 10 18  1  0  0  0  0
 11 12  1  0  0  0  0
 11 19  1  0  0  0  0
 11 25  1  0  0  0  0
 11 26  1  0  0  0  0
 12 20  1  0  0  0  0
 12 27  1  0  0  0  0
 12 28  1  0  0  0  0
 13 29  1  0  0  0  0
 13 30  1  0  0  0  0
 13 31  1  0  0  0  0
 14 15  2  0  0  0  0
 17 18  1  0  0  0  0
M  END
$$$$
