
  -OEChem-05262117483D

 31 33  0     0  0  0  0  0  0999 V2000
    2.9628    0.8118   -0.5581 C   0  0  0  0  0  0  0  0  0  0  0  0
    2.5316    2.1324   -0.2848 C   0  0  0  0  0  0  0  0  0  0  0  0
    4.3091    0.5151   -0.6471 C   0  0  0  0  0  0  0  0  0  0  0  0
    9.6509   -1.3073   -2.1283 C   0  0  0  0  0  0  0  0  0  0  0  0
    3.4524    3.1452   -0.1131 C   0  0  0  0  0  0  0  0  0  0  0  0
   10.9969   -1.4869   -2.4362 C   0  0  0  0  0  0  0  0  0  0  0  0
    9.7329   -3.2451   -0.6871 C   0  0  0  0  0  0  0  0  0  0  0  0
    6.9910    3.6256   -0.1602 C   0  0  0  0  0  0  0  0  0  0  0  0
    5.2801    1.5378   -0.4688 C   0  0  0  0  0  0  0  0  0  0  0  0
    8.9993   -2.1804   -1.2354 C   0  0  0  0  0  0  0  0  0  0  0  0
    4.8425    2.8764   -0.2066 C   0  0  0  0  0  0  0  0  0  0  0  0
   11.7265   -2.5338   -1.8637 C   0  0  0  0  0  0  0  0  0  0  0  0
   11.0834   -3.4216   -0.9865 C   0  0  0  0  0  0  0  0  0  0  0  0
    6.7078    1.3820   -0.5408 C   0  0  0  0  0  0  0  0  0  0  0  0
    7.5669   -2.0762   -0.8899 C   0  0  0  0  0  0  0  0  0  0  0  0
    5.7143    3.9216   -0.0494 N   0  0  0  0  0  0  0  0  0  0  0  0
    7.5380    2.4103   -0.3958 N   0  0  0  0  0  0  0  0  0  0  0  0
    6.8299   -1.0294   -0.7174 N   0  0  0  0  0  0  0  0  0  0  0  0
    7.3839    0.2025   -0.8093 N   0  0  0  0  0  0  0  0  0  0  0  0
   13.4108   -2.7114   -2.2691 Cl  0  0  0  0  0  0  0  0  0  0  0  0
   11.9378   -4.7568   -0.2588 Cl  0  0  0  0  0  0  0  0  0  0  0  0
    2.2279    0.0236   -0.6976 H   0  0  0  0  0  0  0  0  0  0  0  0
    1.4684    2.3477   -0.2140 H   0  0  0  0  0  0  0  0  0  0  0  0
    4.6347   -0.4963   -0.8443 H   0  0  0  0  0  0  0  0  0  0  0  0
    9.1027   -0.5130   -2.6241 H   0  0  0  0  0  0  0  0  0  0  0  0
    3.1503    4.1678    0.0910 H   0  0  0  0  0  0  0  0  0  0  0  0
   11.4937   -0.8180   -3.1315 H   0  0  0  0  0  0  0  0  0  0  0  0
    9.2511   -3.9442   -0.0098 H   0  0  0  0  0  0  0  0  0  0  0  0
    7.7029    4.4418   -0.0464 H   0  0  0  0  0  0  0  0  0  0  0  0
    7.0369   -3.0138   -0.7304 H   0  0  0  0  0  0  0  0  0  0  0  0
    8.3972    0.3185   -0.7650 H   0  0  0  0  0  0  0  0  0  0  0  0
  1  2  1  0  0  0  0
  1  3  2  0  0  0  0
  1 22  1  0  0  0  0
  2  5  2  0  0  0  0
  2 23  1  0  0  0  0
  3  9  1  0  0  0  0
  3 24  1  0  0  0  0
  4  6  2  0  0  0  0
  4 10  1  0  0  0  0
  4 25  1  0  0  0  0
  5 11  1  0  0  0  0
  5 26  1  0  0  0  0
  6 12  1  0  0  0  0
  6 27  1  0  0  0  0
  7 10  2  0  0  0  0
  7 13  1  0  0  0  0
  7 28  1  0  0  0  0
  8 16  1  0  0  0  0
  8 17  2  0  0  0  0
  8 29  1  0  0  0  0
  9 11  1  0  0  0  0
  9 14  2  0  0  0  0
 10 15  1  0  0  0  0
 11 16  2  0  0  0  0
 12 13  2  0  0  0  0
 12 20  1  0  0  0  0
 13 21  1  0  0  0  0
 14 17  1  0  0  0  0
 14 19  1  0  0  0  0
 15 18  2  0  0  0  0
 15 30  1  0  0  0  0
 18 19  1  0  0  0  0
 19 31  1  0  0  0  0
M  END
$$$$
