
  -OEChem-05262117483D

 44 46  0     1  0  0  0  0  0999 V2000
    3.6424    1.6870   -5.3469 C   0  0  0  0  0  0  0  0  0  0  0  0
    3.2423    2.8026   -6.0923 C   0  0  0  0  0  0  0  0  0  0  0  0
    2.6656    0.8388   -4.8307 C   0  0  0  0  0  0  0  0  0  0  0  0
    1.8762    3.0109   -6.2855 C   0  0  0  0  0  0  0  0  0  0  0  0
    1.3153    1.1340   -5.0820 C   0  0  0  0  0  0  0  0  0  0  0  0
    0.1489    1.3108   -0.9076 C   0  0  0  0  0  0  0  0  0  0  0  0
   -0.3571    0.0135   -0.2577 C   0  0  0  0  0  0  0  0  0  0  0  0
   -0.3937   -2.5554   -0.4796 C   0  0  0  0  0  0  0  0  0  0  0  0
   -0.1700    1.3516   -2.4053 C   0  0  0  0  0  0  0  0  0  0  0  0
    0.6026   -3.6113   -1.0051 C   0  0  0  0  0  0  0  0  0  0  0  0
   -0.2947   -1.0518   -2.5125 C   0  0  0  0  0  0  0  0  0  0  0  0
    1.6421   -1.4195   -0.9408 C   0  0  0  0  0  0  0  0  0  0  0  0
    0.1211   -1.2178   -1.0373 C   0  0  1  0  0  0  0  0  0  0  0  0
    3.6618   -4.5966   -2.2724 C   0  0  0  0  0  0  0  0  0  0  0  0
    0.2363    0.2251   -4.5285 C   0  0  0  0  0  0  0  0  0  0  0  0
    0.9232    2.2016   -5.7939 N   0  0  0  0  0  0  0  0  0  0  0  0
    0.3190    0.1440   -3.0705 N   0  0  1  0  0  0  0  0  0  0  0  0
    1.8612   -2.8521   -1.2715 N   0  0  2  0  0  0  0  0  0  0  0  0
    3.5318   -2.0529   -3.0280 O   0  0  0  0  0  0  0  0  0  0  0  0
    1.6976   -3.6528   -3.7595 O   0  0  0  0  0  0  0  0  0  0  0  0
    2.6450   -3.1857   -2.7325 S   0  0  0  0  0  0  0  0  0  0  0  0
    4.6965    1.4823   -5.1752 H   0  0  0  0  0  0  0  0  0  0  0  0
    3.9674    3.4934   -6.5142 H   0  0  0  0  0  0  0  0  0  0  0  0
    2.9273   -0.0386   -4.2458 H   0  0  0  0  0  0  0  0  0  0  0  0
    1.5244    3.8684   -6.8580 H   0  0  0  0  0  0  0  0  0  0  0  0
   -0.3015    2.1801   -0.4153 H   0  0  0  0  0  0  0  0  0  0  0  0
    1.2337    1.3933   -0.7755 H   0  0  0  0  0  0  0  0  0  0  0  0
   -0.0278   -0.0460    0.7873 H   0  0  0  0  0  0  0  0  0  0  0  0
   -1.4553    0.0158   -0.2438 H   0  0  0  0  0  0  0  0  0  0  0  0
   -1.4186   -2.7768   -0.7927 H   0  0  0  0  0  0  0  0  0  0  0  0
   -0.3783   -2.5290    0.6156 H   0  0  0  0  0  0  0  0  0  0  0  0
   -1.2636    1.4627   -2.5512 H   0  0  0  0  0  0  0  0  0  0  0  0
    0.3036    2.2229   -2.8666 H   0  0  0  0  0  0  0  0  0  0  0  0
    0.7952   -4.3991   -0.2708 H   0  0  0  0  0  0  0  0  0  0  0  0
    0.2422   -4.0760   -1.9259 H   0  0  0  0  0  0  0  0  0  0  0  0
    0.0232   -1.9134   -3.1055 H   0  0  0  0  0  0  0  0  0  0  0  0
   -1.4019   -1.0166   -2.5610 H   0  0  0  0  0  0  0  0  0  0  0  0
    2.2036   -0.7772   -1.6152 H   0  0  0  0  0  0  0  0  0  0  0  0
    1.9924   -1.2489    0.0844 H   0  0  0  0  0  0  0  0  0  0  0  0
    4.1895   -4.9145   -3.1734 H   0  0  0  0  0  0  0  0  0  0  0  0
    4.3587   -4.2756   -1.4988 H   0  0  0  0  0  0  0  0  0  0  0  0
    3.0104   -5.3944   -1.9126 H   0  0  0  0  0  0  0  0  0  0  0  0
   -0.7436    0.5831   -4.8837 H   0  0  0  0  0  0  0  0  0  0  0  0
    0.3882   -0.7845   -4.9251 H   0  0  0  0  0  0  0  0  0  0  0  0
  1  2  1  0  0  0  0
  1  3  2  0  0  0  0
  1 22  1  0  0  0  0
  2  4  2  0  0  0  0
  2 23  1  0  0  0  0
  3  5  1  0  0  0  0
  3 24  1  0  0  0  0
  4 16  1  0  0  0  0
  4 25  1  0  0  0  0
  5 15  1  0  0  0  0
  5 16  2  0  0  0  0
  6  7  1  0  0  0  0
  6  9  1  0  0  0  0
  6 26  1  0  0  0  0
  6 27  1  0  0  0  0
  7 13  1  0  0  0  0
  7 28  1  0  0  0  0
  7 29  1  0  0  0  0
  8 10  1  0  0  0  0
  8 13  1  0  0  0  0
  8 30  1  0  0  0  0
  8 31  1  0  0  0  0
  9 17  1  0  0  0  0
  9 32  1  0  0  0  0
  9 33  1  0  0  0  0
 10 18  1  0  0  0  0
 10 34  1  0  0  0  0
 10 35  1  0  0  0  0
 11 13  1  0  0  0  0
 11 17  1  0  0  0  0
 11 36  1  0  0  0  0
 11 37  1  0  0  0  0
 12 13  1  0  0  0  0
 12 18  1  0  0  0  0
 12 38  1  0  0  0  0
 12 39  1  0  0  0  0
 14 21  1  0  0  0  0
 14 40  1  0  0  0  0
 14 41  1  0  0  0  0
 14 42  1  0  0  0  0
 15 17  1  0  0  0  0
 15 43  1  0  0  0  0
 15 44  1  0  0  0  0
 18 21  1  0  0  0  0
 19 21  2  0  0  0  0
 20 21  2  0  0  0  0
M  END
$$$$
