
  -OEChem-05262117483D

 26 27  0     0  0  0  0  0  0999 V2000
    2.5739   -3.7576    2.9639 C   0  0  0  0  0  0  0  0  0  0  0  0
    2.0136   -4.6473    2.0374 C   0  0  0  0  0  0  0  0  0  0  0  0
    1.9768   -2.5111    3.1592 C   0  0  0  0  0  0  0  0  0  0  0  0
    0.8727   -4.2929    1.3191 C   0  0  0  0  0  0  0  0  0  0  0  0
    0.8307   -2.1379    2.4448 C   0  0  0  0  0  0  0  0  0  0  0  0
    0.2804   -3.0383    1.5236 C   0  0  0  0  0  0  0  0  0  0  0  0
    0.9519    1.5850   -0.3931 C   0  0  0  0  0  0  0  0  0  0  0  0
    1.0070    0.3671   -0.9465 C   0  0  0  0  0  0  0  0  0  0  0  0
   -0.7844   -0.3396    0.4492 C   0  0  0  0  0  0  0  0  0  0  0  0
   -0.2510    1.9514    0.4477 C   0  0  0  0  0  0  0  0  0  0  0  0
   -1.5336   -1.5516    0.9710 C   0  0  0  0  0  0  0  0  0  0  0  0
   -0.8923    0.7762    1.0640 N   0  0  0  0  0  0  0  0  0  0  0  0
   -0.0310   -0.5562   -0.7035 N   0  0  0  0  0  0  0  0  0  0  0  0
   -0.8386   -2.7821    0.7561 O   0  0  0  0  0  0  0  0  0  0  0  0
    3.4630   -4.0347    3.5234 H   0  0  0  0  0  0  0  0  0  0  0  0
    2.4651   -5.6227    1.8751 H   0  0  0  0  0  0  0  0  0  0  0  0
    2.4030   -1.8094    3.8714 H   0  0  0  0  0  0  0  0  0  0  0  0
    0.4218   -4.9731    0.6019 H   0  0  0  0  0  0  0  0  0  0  0  0
    0.3985   -1.1568    2.6045 H   0  0  0  0  0  0  0  0  0  0  0  0
    1.7650    2.2903   -0.5324 H   0  0  0  0  0  0  0  0  0  0  0  0
    1.8263    0.0118   -1.5627 H   0  0  0  0  0  0  0  0  0  0  0  0
    0.0295    2.6434    1.2492 H   0  0  0  0  0  0  0  0  0  0  0  0
   -1.0061    2.4788   -0.1574 H   0  0  0  0  0  0  0  0  0  0  0  0
   -2.4695   -1.6653    0.4173 H   0  0  0  0  0  0  0  0  0  0  0  0
   -1.7681   -1.3917    2.0264 H   0  0  0  0  0  0  0  0  0  0  0  0
    0.1534   -1.5302   -0.9155 H   0  0  0  0  0  0  0  0  0  0  0  0
  1  2  1  0  0  0  0
  1  3  2  0  0  0  0
  1 15  1  0  0  0  0
  2  4  2  0  0  0  0
  2 16  1  0  0  0  0
  3  5  1  0  0  0  0
  3 17  1  0  0  0  0
  4  6  1  0  0  0  0
  4 18  1  0  0  0  0
  5  6  2  0  0  0  0
  5 19  1  0  0  0  0
  6 14  1  0  0  0  0
  7  8  2  0  0  0  0
  7 10  1  0  0  0  0
  7 20  1  0  0  0  0
  8 13  1  0  0  0  0
  8 21  1  0  0  0  0
  9 11  1  0  0  0  0
  9 12  2  0  0  0  0
  9 13  1  0  0  0  0
 10 12  1  0  0  0  0
 10 22  1  0  0  0  0
 10 23  1  0  0  0  0
 11 14  1  0  0  0  0
 11 24  1  0  0  0  0
 11 25  1  0  0  0  0
 13 26  1  0  0  0  0
M  END
$$$$
