
  -OEChem-05262117483D

 28 29  0     1  0  0  0  0  0999 V2000
    2.1835   -0.7405    3.8567 C   0  0  0  0  0  0  0  0  0  0  0  0
    2.1458   -2.1339    3.7058 C   0  0  0  0  0  0  0  0  0  0  0  0
    1.4850    0.0726    2.9809 C   0  0  0  0  0  0  0  0  0  0  0  0
    0.8078   -0.6172    1.9212 C   0  0  0  0  0  0  0  0  0  0  0  0
   -0.5588    1.4885   -0.8285 C   0  0  0  0  0  0  0  0  0  0  0  0
   -1.5154    0.2895   -0.7452 C   0  0  0  0  0  0  0  0  0  0  0  0
    0.2619    1.3950    0.4729 C   0  0  0  0  0  0  0  0  0  0  0  0
   -0.6560   -0.7954   -0.0816 C   0  0  1  0  0  0  0  0  0  0  0  0
    1.4052    1.5564    3.2610 C   0  0  0  0  0  0  0  0  0  0  0  0
    0.2384   -1.5332   -1.0892 C   0  0  0  0  0  0  0  0  0  0  0  0
    1.4207   -2.7228    2.7589 N   0  0  0  0  0  0  0  0  0  0  0  0
    0.7706   -1.9723    1.8744 N   0  0  0  0  0  0  0  0  0  0  0  0
    0.1021   -0.0014    0.9128 N   0  0  0  0  0  0  0  0  0  0  0  0
    2.7295   -0.3003    4.6880 H   0  0  0  0  0  0  0  0  0  0  0  0
    2.6789   -2.7997    4.3795 H   0  0  0  0  0  0  0  0  0  0  0  0
    0.0949    1.3929   -1.6999 H   0  0  0  0  0  0  0  0  0  0  0  0
   -1.0771    2.4475   -0.9103 H   0  0  0  0  0  0  0  0  0  0  0  0
   -2.3714    0.5295   -0.1051 H   0  0  0  0  0  0  0  0  0  0  0  0
   -1.8952   -0.0213   -1.7220 H   0  0  0  0  0  0  0  0  0  0  0  0
    1.3156    1.6439    0.3018 H   0  0  0  0  0  0  0  0  0  0  0  0
   -0.1314    2.0901    1.2188 H   0  0  0  0  0  0  0  0  0  0  0  0
   -1.2596   -1.5304    0.4548 H   0  0  0  0  0  0  0  0  0  0  0  0
    1.8562    2.1691    2.4771 H   0  0  0  0  0  0  0  0  0  0  0  0
    0.3663    1.8793    3.3798 H   0  0  0  0  0  0  0  0  0  0  0  0
    1.9271    1.7797    4.1954 H   0  0  0  0  0  0  0  0  0  0  0  0
    0.8628   -0.8356   -1.6582 H   0  0  0  0  0  0  0  0  0  0  0  0
   -0.3849   -2.0875   -1.7999 H   0  0  0  0  0  0  0  0  0  0  0  0
    0.8856   -2.2424   -0.5724 H   0  0  0  0  0  0  0  0  0  0  0  0
  1  2  1  0  0  0  0
  1  3  2  0  0  0  0
  1 14  1  0  0  0  0
  2 11  2  0  0  0  0
  2 15  1  0  0  0  0
  3  4  1  0  0  0  0
  3  9  1  0  0  0  0
  4 12  2  0  0  0  0
  4 13  1  0  0  0  0
  5  6  1  0  0  0  0
  5  7  1  0  0  0  0
  5 16  1  0  0  0  0
  5 17  1  0  0  0  0
  6  8  1  0  0  0  0
  6 18  1  0  0  0  0
  6 19  1  0  0  0  0
  7 13  1  0  0  0  0
  7 20  1  0  0  0  0
  7 21  1  0  0  0  0
  8 10  1  0  0  0  0
  8 13  1  0  0  0  0
  8 22  1  0  0  0  0
  9 23  1  0  0  0  0
  9 24  1  0  0  0  0
  9 25  1  0  0  0  0
 10 26  1  0  0  0  0
 10 27  1  0  0  0  0
 10 28  1  0  0  0  0
 11 12  1  0  0  0  0
M  END
$$$$
