
  -OEChem-05262117483D

 31 33  0     1  0  0  0  0  0999 V2000
    1.7317   -1.0814    0.2110 C   0  0  0  0  0  0  0  0  0  0  0  0
    0.3718   -1.1715    0.5362 C   0  0  0  0  0  0  0  0  0  0  0  0
    7.3411   -3.7308   -0.7794 C   0  0  0  0  0  0  0  0  0  0  0  0
    7.8627   -3.2407    0.4287 C   0  0  0  0  0  0  0  0  0  0  0  0
    2.5821   -2.1432    0.5188 C   0  0  0  0  0  0  0  0  0  0  0  0
   -0.1193   -2.3089    1.1733 C   0  0  0  0  0  0  0  0  0  0  0  0
    6.0445   -4.2215   -0.8138 C   0  0  0  0  0  0  0  0  0  0  0  0
    7.0311   -3.2724    1.5454 C   0  0  0  0  0  0  0  0  0  0  0  0
    2.1104   -3.3032    1.1515 C   0  0  0  0  0  0  0  0  0  0  0  0
    0.7455   -3.3665    1.4871 C   0  0  0  0  0  0  0  0  0  0  0  0
    5.2821   -4.2096    0.3800 C   0  0  0  0  0  0  0  0  0  0  0  0
    2.2256   -5.7298    1.7571 C   0  0  0  0  0  0  0  0  0  0  0  0
    1.0890   -5.3823    2.7058 C   0  0  0  0  0  0  0  0  0  0  0  0
    3.0442   -4.4703    1.4570 C   0  0  1  0  0  0  0  0  0  0  0  0
    5.7727   -3.7373    1.5368 N   0  0  0  0  0  0  0  0  0  0  0  0
    3.9983   -4.7281    0.3816 N   0  0  0  0  0  0  0  0  0  0  0  0
    0.1740   -4.4493    2.1111 O   0  0  0  0  0  0  0  0  0  0  0  0
    2.1230   -0.1930   -0.2770 H   0  0  0  0  0  0  0  0  0  0  0  0
   -0.3046   -0.3543    0.2989 H   0  0  0  0  0  0  0  0  0  0  0  0
    7.9436   -3.7274   -1.6845 H   0  0  0  0  0  0  0  0  0  0  0  0
    8.8718   -2.8475    0.4985 H   0  0  0  0  0  0  0  0  0  0  0  0
    3.6362   -2.0778    0.2649 H   0  0  0  0  0  0  0  0  0  0  0  0
   -1.1680   -2.4006    1.4416 H   0  0  0  0  0  0  0  0  0  0  0  0
    5.6148   -4.6099   -1.7340 H   0  0  0  0  0  0  0  0  0  0  0  0
    7.3857   -2.9004    2.5061 H   0  0  0  0  0  0  0  0  0  0  0  0
    2.8694   -6.4979    2.1966 H   0  0  0  0  0  0  0  0  0  0  0  0
    1.8034   -6.1377    0.8305 H   0  0  0  0  0  0  0  0  0  0  0  0
    0.4859   -6.2574    2.9563 H   0  0  0  0  0  0  0  0  0  0  0  0
    1.4799   -4.9500    3.6379 H   0  0  0  0  0  0  0  0  0  0  0  0
    3.6494   -4.2214    2.3314 H   0  0  0  0  0  0  0  0  0  0  0  0
    3.5832   -4.8370   -0.5362 H   0  0  0  0  0  0  0  0  0  0  0  0
  1  2  1  0  0  0  0
  1  5  2  0  0  0  0
  1 18  1  0  0  0  0
  2  6  2  0  0  0  0
  2 19  1  0  0  0  0
  3  4  1  0  0  0  0
  3  7  2  0  0  0  0
  3 20  1  0  0  0  0
  4  8  2  0  0  0  0
  4 21  1  0  0  0  0
  5  9  1  0  0  0  0
  5 22  1  0  0  0  0
  6 10  1  0  0  0  0
  6 23  1  0  0  0  0
  7 11  1  0  0  0  0
  7 24  1  0  0  0  0
  8 15  1  0  0  0  0
  8 25  1  0  0  0  0
  9 10  2  0  0  0  0
  9 14  1  0  0  0  0
 10 17  1  0  0  0  0
 11 15  2  0  0  0  0
 11 16  1  0  0  0  0
 12 13  1  0  0  0  0
 12 14  1  0  0  0  0
 12 26  1  0  0  0  0
 12 27  1  0  0  0  0
 13 17  1  0  0  0  0
 13 28  1  0  0  0  0
 13 29  1  0  0  0  0
 14 16  1  0  0  0  0
 14 30  1  0  0  0  0
 16 31  1  0  0  0  0
M  END
$$$$
