34
0 1 C12H17N3O2
C                    -2.735593285375     3.919633639084    -0.687471196222
C                    -1.721549390768     3.270182253792    -1.452928105831
C                    -3.702009537655     3.189412253344    -0.053857402207
C                    -1.741239132841     1.906443156744    -1.525096404804
C                    -3.743806260966     1.741292262233    -0.128680091112
C                    -2.802194042122    -1.127163969056     0.306886866931
C                    -2.475898928934    -1.376983328401     2.706579610186
C                    -1.194745502845     0.370240994488     1.562629557913
C                    -1.224776785810    -1.760770381049     3.487565500214
C                     0.028817641491    -0.049828495638     2.380264335347
C                     0.806461634556    -0.917043436429     4.491251153097
C                    -2.689105972311    -0.303675988954    -0.991130939435
N                    -2.692500718202     1.159665922208    -0.882664602838
N                    -2.122595886231    -0.748222301079     1.431131333565
N                    -0.359057606740    -0.595235708946     3.676905143234
O                    -4.587195812779     1.015799223041     0.405039756655
O                    -3.474901765677    -2.155261286348     0.251056919629
H                    -2.737669602121     5.004474067748    -0.611226015474
H                    -0.951213567820     3.827977246305    -1.972521890756
H                    -4.488883365543     3.654251135638     0.530723905697
H                    -1.001345446045     1.347128393742    -2.089164867234
H                    -3.086335110378    -2.252665766035     2.492131371078
H                    -3.070388048212    -0.663987994396     3.292949002593
H                    -1.692035166855     1.218175887494     2.053059672369
H                    -0.849844772936     0.696912347381     0.584674633597
H                    -1.521287228488    -2.142593794653     4.470352294015
H                    -0.695504429078    -2.575006390845     2.955345398872
H                     0.616996682372    -0.783263484618     1.792276443857
H                     0.660763151432     0.830942155504     2.539941145618
H                     0.481132153359    -1.285943458823     5.469081800145
H                     1.406449444814    -0.015279097649     4.651410747613
H                     1.455666063427    -1.686468233183     4.031575368179
H                    -3.552724788823    -0.623315608612    -1.575575132232
H                    -1.782815919520    -0.600694738093    -1.525548909529
