
  -OEChem-05262117483D

 34 35  0     0  0  0  0  0  0999 V2000
   -2.7356    3.9196   -0.6875 C   0  0  0  0  0  0  0  0  0  0  0  0
   -1.7215    3.2702   -1.4529 C   0  0  0  0  0  0  0  0  0  0  0  0
   -3.7020    3.1894   -0.0539 C   0  0  0  0  0  0  0  0  0  0  0  0
   -1.7412    1.9064   -1.5251 C   0  0  0  0  0  0  0  0  0  0  0  0
   -3.7438    1.7413   -0.1287 C   0  0  0  0  0  0  0  0  0  0  0  0
   -2.8022   -1.1272    0.3069 C   0  0  0  0  0  0  0  0  0  0  0  0
   -2.4759   -1.3770    2.7066 C   0  0  0  0  0  0  0  0  0  0  0  0
   -1.1947    0.3702    1.5626 C   0  0  0  0  0  0  0  0  0  0  0  0
   -1.2248   -1.7608    3.4876 C   0  0  0  0  0  0  0  0  0  0  0  0
    0.0288   -0.0498    2.3803 C   0  0  0  0  0  0  0  0  0  0  0  0
    0.8065   -0.9170    4.4913 C   0  0  0  0  0  0  0  0  0  0  0  0
   -2.6891   -0.3037   -0.9911 C   0  0  0  0  0  0  0  0  0  0  0  0
   -2.6925    1.1597   -0.8827 N   0  0  0  0  0  0  0  0  0  0  0  0
   -2.1226   -0.7482    1.4311 N   0  0  0  0  0  0  0  0  0  0  0  0
   -0.3591   -0.5952    3.6769 N   0  0  0  0  0  0  0  0  0  0  0  0
   -4.5872    1.0158    0.4050 O   0  0  0  0  0  0  0  0  0  0  0  0
   -3.4749   -2.1553    0.2511 O   0  0  0  0  0  0  0  0  0  0  0  0
   -2.7377    5.0045   -0.6112 H   0  0  0  0  0  0  0  0  0  0  0  0
   -0.9512    3.8280   -1.9725 H   0  0  0  0  0  0  0  0  0  0  0  0
   -4.4889    3.6543    0.5307 H   0  0  0  0  0  0  0  0  0  0  0  0
   -1.0013    1.3471   -2.0892 H   0  0  0  0  0  0  0  0  0  0  0  0
   -3.0863   -2.2527    2.4921 H   0  0  0  0  0  0  0  0  0  0  0  0
   -3.0704   -0.6640    3.2929 H   0  0  0  0  0  0  0  0  0  0  0  0
   -1.6920    1.2182    2.0531 H   0  0  0  0  0  0  0  0  0  0  0  0
   -0.8498    0.6969    0.5847 H   0  0  0  0  0  0  0  0  0  0  0  0
   -1.5213   -2.1426    4.4704 H   0  0  0  0  0  0  0  0  0  0  0  0
   -0.6955   -2.5750    2.9553 H   0  0  0  0  0  0  0  0  0  0  0  0
    0.6170   -0.7833    1.7923 H   0  0  0  0  0  0  0  0  0  0  0  0
    0.6608    0.8309    2.5399 H   0  0  0  0  0  0  0  0  0  0  0  0
    0.4811   -1.2859    5.4691 H   0  0  0  0  0  0  0  0  0  0  0  0
    1.4064   -0.0153    4.6514 H   0  0  0  0  0  0  0  0  0  0  0  0
    1.4557   -1.6865    4.0316 H   0  0  0  0  0  0  0  0  0  0  0  0
   -3.5527   -0.6233   -1.5756 H   0  0  0  0  0  0  0  0  0  0  0  0
   -1.7828   -0.6007   -1.5255 H   0  0  0  0  0  0  0  0  0  0  0  0
  1  2  1  0  0  0  0
  1  3  2  0  0  0  0
  1 18  1  0  0  0  0
  2  4  2  0  0  0  0
  2 19  1  0  0  0  0
  3  5  1  0  0  0  0
  3 20  1  0  0  0  0
  4 13  1  0  0  0  0
  4 21  1  0  0  0  0
  5 13  1  0  0  0  0
  5 16  2  0  0  0  0
  6 12  1  0  0  0  0
  6 14  1  0  0  0  0
  6 17  2  0  0  0  0
  7  9  1  0  0  0  0
  7 14  1  0  0  0  0
  7 22  1  0  0  0  0
  7 23  1  0  0  0  0
  8 10  1  0  0  0  0
  8 14  1  0  0  0  0
  8 24  1  0  0  0  0
  8 25  1  0  0  0  0
  9 15  1  0  0  0  0
  9 26  1  0  0  0  0
  9 27  1  0  0  0  0
 10 15  1  0  0  0  0
 10 28  1  0  0  0  0
 10 29  1  0  0  0  0
 11 15  1  0  0  0  0
 11 30  1  0  0  0  0
 11 31  1  0  0  0  0
 11 32  1  0  0  0  0
 12 13  1  0  0  0  0
 12 33  1  0  0  0  0
 12 34  1  0  0  0  0
M  END
$$$$
