31
0 1 C14H14N2O
C                     1.731687891655    -1.081361633557     0.210984705471
C                     0.371757367661    -1.171510670343     0.536170663225
C                     7.341089956429    -3.730847150294    -0.779432569703
C                     7.862664943789    -3.240656128684     0.428683616682
C                     2.582100805119    -2.143206417818     0.518835743863
C                    -0.119338404101    -2.308877546445     1.173288319472
C                     6.044545823926    -4.221456571156    -0.813777165528
C                     7.031062809052    -3.272402829538     1.545406099147
C                     2.110439521512    -3.303151258751     1.151491647750
C                     0.745502981105    -3.366453474023     1.487097379955
C                     5.282061011662    -4.209644632009     0.380004922579
C                     2.225575967513    -5.729826546890     1.757144966811
C                     1.088994184012    -5.382331292867     2.705822119468
C                     3.044176525107    -4.470303773756     1.456951133241
N                     5.772650450793    -3.737280653983     1.536823691473
N                     3.998299673276    -4.728061579736     0.381561476177
O                     0.174049363857    -4.449274832332     2.111125441012
H                     2.123026546520    -0.193031289077    -0.276994937493
H                    -0.304590206086    -0.354295302891     0.298880839076
H                     7.943584643178    -3.727427723577    -1.684532000228
H                     8.871817611104    -2.847451055214     0.498485260541
H                     3.636197016822    -2.077819662386     0.264918250987
H                    -1.167984175202    -2.400600769014     1.441636808265
H                     5.614787046154    -4.609917200509    -1.734019890954
H                     7.385668267998    -2.900428578597     2.506060828710
H                     2.869401960925    -6.497857247449     2.196612437156
H                     1.803439447700    -6.137700142760     0.830542981259
H                     0.485896208784    -6.257425883412     2.956256599695
H                     1.479885848179    -4.950048932479     3.637873995278
H                     3.649447270212    -4.221370653945     2.331449621533
H                     3.583159463575    -4.837036392131    -0.536239096422
