31
0 1 C14H14N2O
C                     2.048767976398    -1.163266565660    -0.179807775012
C                     0.670691267335    -0.997647635074     0.014452898561
C                     2.387435750197    -5.914333447283    -2.659391920500
C                     3.440026092895    -6.735596787559    -3.081945950548
C                     2.678997168848    -2.302248453567     0.319048613382
C                    -0.058110007858    -1.960922977187     0.708657181567
C                     2.436578940181    -5.315695462255    -1.405009648875
C                     4.507201310950    -6.914951925552    -2.200705554088
C                     1.964811482458    -3.287355784688     1.014274864584
C                     0.585999852085    -3.099521317451     1.212257961161
C                     3.561830277585    -5.566475696287    -0.587893073517
C                     1.624054024896    -5.623390620916     1.873374237837
C                     0.472322681036    -4.997997473159     2.646134856599
C                     2.661718088266    -4.538565681269     1.537478410686
N                     4.576144587039    -6.358789026684    -0.985174573669
N                     3.742081471349    -4.992632383549     0.664302807210
O                    -0.212652058193    -4.007717921646     1.865215838695
H                     2.621231353723    -0.416676273557    -0.723011669042
H                     0.163866613171    -0.118005486084    -0.373929370230
H                     1.531862025403    -5.734549194198    -3.305915638165
H                     3.436247973990    -7.217569702962    -4.054573018164
H                     3.739393155867    -2.463959008278     0.146994845580
H                    -1.126360461088    -1.854576868461     0.874433362453
H                     1.642226790535    -4.658062838533    -1.074964516092
H                     5.352801368267    -7.543041538121    -2.479153723329
H                     2.089203597714    -6.415695039969     2.469596470689
H                     1.239739684200    -6.080260454258     0.956775781232
H                    -0.288509219752    -5.736173477188     2.907899380747
H                     0.833227042156    -4.528692806174     3.572755643818
H                     3.162581460608    -4.262577291748     2.473644057214
H                     4.531393848368    -5.414988347860     1.139890993187
