34
0 1 C12H17N3O2
C                    -2.797571271720     4.177860682371    -1.265839884296
C                    -3.891314048600     3.332205500665    -0.921584861710
C                    -1.536829803470     3.664087772678    -1.404227413831
C                    -3.646220839716     2.001207216778    -0.736849859480
C                    -1.255112647302     2.257937196569    -1.208115752460
C                    -2.672276200223    -0.423994794381     0.711922083246
C                    -2.299458848275    -0.526357103604     3.124551293680
C                    -0.585024102227     0.549811020763     1.745488986771
C                    -1.204252843490    -1.337678241278     3.813487453508
C                     0.478058893207    -0.279066105345     2.465153535871
C                     1.095397794481    -1.322141048029     4.553439730805
C                    -2.210152330401     0.026174311364    -0.680569899878
N                    -2.387145708168     1.475269967665    -0.867656068206
N                    -1.871174813304    -0.147847810450     1.776787823784
N                     0.057819330816    -0.597423576248     3.829301808614
O                    -0.135331425308     1.734865881269    -1.307392572245
O                    -3.764865376075    -0.994049473463     0.816861162686
H                    -2.968056717024     5.240766980242    -1.420832735405
H                    -4.898467621999     3.716190227459    -0.809064366208
H                    -0.685812876554     4.283281561787    -1.667033115308
H                    -4.422004690217     1.289958178151    -0.470889415144
H                    -3.220888872733    -1.101150252392     3.041073773909
H                    -2.498075100092     0.385620783977     3.702316000053
H                    -0.697354041015     1.514428128736     2.257695129746
H                    -0.265943886381     0.749346696817     0.724563766968
H                    -1.506950643078    -1.541002752076     4.846394944019
H                    -1.098857936092    -2.311808854810     3.297005955554
H                     0.679710023953    -1.196048204844     1.876716351763
H                     1.407113625714     0.299155947724     2.505992702436
H                     0.769562165866    -1.501522703091     5.583040689266
H                     2.009889199727    -0.721389068836     4.586659496968
H                     1.341014190290    -2.298515785692     4.094540169478
H                    -2.841790488925    -0.506293476664    -1.393183898202
H                    -1.166104823505    -0.198164704904    -0.891836376338
