
  -OEChem-05262117483D

 70 71  0     1  0  0  0  0  0999 V2000
   -1.7124    3.4088    0.5573 C   0  0  0  0  0  0  0  0  0  0  0  0
   -0.6368    3.9145   -0.1932 C   0  0  0  0  0  0  0  0  0  0  0  0
   -1.7417    2.0592    0.8861 C   0  0  0  0  0  0  0  0  0  0  0  0
    0.3889    3.0746   -0.6254 C   0  0  0  0  0  0  0  0  0  0  0  0
   -0.7107    1.1964    0.4688 C   0  0  0  0  0  0  0  0  0  0  0  0
    0.3462    1.7137   -0.2984 C   0  0  0  0  0  0  0  0  0  0  0  0
   -0.7052   -0.2204    0.8861 C   0  0  0  0  0  0  0  0  0  0  0  0
    0.5185   -1.0700    0.4960 C   0  0  0  0  0  0  0  0  0  0  0  0
    1.1660   -0.5036   -0.8187 C   0  0  1  0  0  0  0  0  0  0  0  0
    2.5683   -1.0559   -1.0830 C   0  0  0  0  0  0  0  0  0  0  0  0
    1.3794    1.0099   -7.5908 C   0  0  0  0  0  0  0  0  0  0  0  0
   -1.8912   -0.6978   -7.1094 C   0  0  0  0  0  0  0  0  0  0  0  0
   -1.2948   -5.9607    2.2027 C   0  0  0  0  0  0  0  0  0  0  0  0
    4.0350    1.5472    3.7888 C   0  0  0  0  0  0  0  0  0  0  0  0
    0.0647   -2.5319    0.2176 C   0  0  0  0  0  0  0  0  0  0  0  0
    1.4953   -1.0677    1.7023 C   0  0  0  0  0  0  0  0  0  0  0  0
    0.2243   -0.7563   -2.0262 C   0  0  0  0  0  0  0  0  0  0  0  0
    0.5576    0.0762   -3.2719 C   0  0  0  0  0  0  0  0  0  0  0  0
    1.0394    0.0849   -6.4307 C   0  0  0  0  0  0  0  0  0  0  0  0
   -1.4548    0.6253   -6.4974 C   0  0  0  0  0  0  0  0  0  0  0  0
   -0.3950   -0.3125   -4.3993 C   0  0  0  0  0  0  0  0  0  0  0  0
   -0.2948   -3.4006    1.4246 C   0  0  0  0  0  0  0  0  0  0  0  0
    2.0754    0.2854    2.1343 C   0  0  0  0  0  0  0  0  0  0  0  0
   -0.1897    0.5260   -5.6526 N   0  3  0  0  0  0  0  0  0  0  0  0
   -1.6092   -0.6936    1.5654 O   0  0  0  0  0  0  0  0  0  0  0  0
   -2.0999   -4.7346   -0.0270 O   0  0  0  0  0  0  0  0  0  0  0  0
    0.2858   -5.6277    0.0762 O   0  0  0  0  0  0  0  0  0  0  0  0
    3.0694   -0.8785    4.3302 O   0  0  0  0  0  0  0  0  0  0  0  0
    4.5673   -0.5851    2.2788 O   0  0  0  0  0  0  0  0  0  0  0  0
    1.3844    0.9368   -0.7236 O   0  0  0  0  0  0  0  0  0  0  0  0
   -0.8678   -4.9935    0.7420 S   0  0  0  0  0  0  0  0  0  0  0  0
    3.5205   -0.0734    3.1841 S   0  0  0  0  0  0  0  0  0  0  0  0
   -2.5057    4.0720    0.8885 H   0  0  0  0  0  0  0  0  0  0  0  0
   -0.5990    4.9724   -0.4395 H   0  0  0  0  0  0  0  0  0  0  0  0
   -2.5458    1.6382    1.4822 H   0  0  0  0  0  0  0  0  0  0  0  0
    1.2314    3.4547   -1.1963 H   0  0  0  0  0  0  0  0  0  0  0  0
    2.9732   -0.6297   -2.0042 H   0  0  0  0  0  0  0  0  0  0  0  0
    2.5578   -2.1424   -1.1868 H   0  0  0  0  0  0  0  0  0  0  0  0
    3.2586   -0.7947   -0.2795 H   0  0  0  0  0  0  0  0  0  0  0  0
    0.6455    0.9636   -8.3981 H   0  0  0  0  0  0  0  0  0  0  0  0
    1.4850    2.0504   -7.2657 H   0  0  0  0  0  0  0  0  0  0  0  0
    2.3417    0.6998   -8.0060 H   0  0  0  0  0  0  0  0  0  0  0  0
   -1.1685   -1.0833   -7.8321 H   0  0  0  0  0  0  0  0  0  0  0  0
   -2.0840   -1.4637   -6.3546 H   0  0  0  0  0  0  0  0  0  0  0  0
   -2.8275   -0.5267   -7.6469 H   0  0  0  0  0  0  0  0  0  0  0  0
   -1.6403   -6.9279    1.8327 H   0  0  0  0  0  0  0  0  0  0  0  0
   -0.4038   -6.0876    2.8194 H   0  0  0  0  0  0  0  0  0  0  0  0
   -2.0944   -5.4532    2.7441 H   0  0  0  0  0  0  0  0  0  0  0  0
    4.9321    1.3730    4.3862 H   0  0  0  0  0  0  0  0  0  0  0  0
    4.2667    2.1903    2.9385 H   0  0  0  0  0  0  0  0  0  0  0  0
    3.2414    1.9642    4.4104 H   0  0  0  0  0  0  0  0  0  0  0  0
    0.8582   -3.0497   -0.3264 H   0  0  0  0  0  0  0  0  0  0  0  0
   -0.8149   -2.5108   -0.4281 H   0  0  0  0  0  0  0  0  0  0  0  0
    2.3130   -1.7558    1.4712 H   0  0  0  0  0  0  0  0  0  0  0  0
    0.9704   -1.4857    2.5621 H   0  0  0  0  0  0  0  0  0  0  0  0
    0.2699   -1.8182   -2.2803 H   0  0  0  0  0  0  0  0  0  0  0  0
   -0.8124   -0.5498   -1.7397 H   0  0  0  0  0  0  0  0  0  0  0  0
    0.4477    1.1419   -3.0425 H   0  0  0  0  0  0  0  0  0  0  0  0
    1.5968   -0.0894   -3.5667 H   0  0  0  0  0  0  0  0  0  0  0  0
    1.8553    0.0561   -5.7083 H   0  0  0  0  0  0  0  0  0  0  0  0
    0.8478   -0.9360   -6.7621 H   0  0  0  0  0  0  0  0  0  0  0  0
   -2.2209    1.0243   -5.8290 H   0  0  0  0  0  0  0  0  0  0  0  0
   -1.2594    1.3749   -7.2649 H   0  0  0  0  0  0  0  0  0  0  0  0
   -0.2763   -1.3569   -4.6926 H   0  0  0  0  0  0  0  0  0  0  0  0
   -1.4316   -0.1614   -4.0899 H   0  0  0  0  0  0  0  0  0  0  0  0
    0.5623   -3.6307    2.0605 H   0  0  0  0  0  0  0  0  0  0  0  0
   -1.1111   -2.9736    2.0070 H   0  0  0  0  0  0  0  0  0  0  0  0
    2.4544    0.8809    1.3053 H   0  0  0  0  0  0  0  0  0  0  0  0
    1.3631    0.8713    2.7204 H   0  0  0  0  0  0  0  0  0  0  0  0
    0.0018    1.4801   -5.3288 H   0  0  0  0  0  0  0  0  0  0  0  0
  1  2  1  0  0  0  0
  1  3  2  0  0  0  0
  1 33  1  0  0  0  0
  2  4  2  0  0  0  0
  2 34  1  0  0  0  0
  3  5  1  0  0  0  0
  3 35  1  0  0  0  0
  4  6  1  0  0  0  0
  4 36  1  0  0  0  0
  5  6  2  0  0  0  0
  5  7  1  0  0  0  0
  6 30  1  0  0  0  0
  7  8  1  0  0  0  0
  7 25  2  0  0  0  0
  8  9  1  0  0  0  0
  8 15  1  0  0  0  0
  8 16  1  0  0  0  0
  9 10  1  0  0  0  0
  9 17  1  0  0  0  0
  9 30  1  0  0  0  0
 10 37  1  0  0  0  0
 10 38  1  0  0  0  0
 10 39  1  0  0  0  0
 11 19  1  0  0  0  0
 11 40  1  0  0  0  0
 11 41  1  0  0  0  0
 11 42  1  0  0  0  0
 12 20  1  0  0  0  0
 12 43  1  0  0  0  0
 12 44  1  0  0  0  0
 12 45  1  0  0  0  0
 13 31  1  0  0  0  0
 13 46  1  0  0  0  0
 13 47  1  0  0  0  0
 13 48  1  0  0  0  0
 14 32  1  0  0  0  0
 14 49  1  0  0  0  0
 14 50  1  0  0  0  0
 14 51  1  0  0  0  0
 15 22  1  0  0  0  0
 15 52  1  0  0  0  0
 15 53  1  0  0  0  0
 16 23  1  0  0  0  0
 16 54  1  0  0  0  0
 16 55  1  0  0  0  0
 17 18  1  0  0  0  0
 17 56  1  0  0  0  0
 17 57  1  0  0  0  0
 18 21  1  0  0  0  0
 18 58  1  0  0  0  0
 18 59  1  0  0  0  0
 19 24  1  0  0  0  0
 19 60  1  0  0  0  0
 19 61  1  0  0  0  0
 20 24  1  0  0  0  0
 20 62  1  0  0  0  0
 20 63  1  0  0  0  0
 21 24  1  0  0  0  0
 21 64  1  0  0  0  0
 21 65  1  0  0  0  0
 22 31  1  0  0  0  0
 22 66  1  0  0  0  0
 22 67  1  0  0  0  0
 23 32  1  0  0  0  0
 23 68  1  0  0  0  0
 23 69  1  0  0  0  0
 24 70  1  0  0  0  0
 26 31  2  0  0  0  0
 27 31  2  0  0  0  0
 28 32  2  0  0  0  0
 29 32  2  0  0  0  0
M  CHG  1  24   1
M  END
$$$$
