
  -OEChem-05262117483D

 69 70  0     1  0  0  0  0  0999 V2000
   -1.2642    3.2613   -1.3390 C   0  0  0  0  0  0  0  0  0  0  0  0
   -0.2834    3.7755   -0.4717 C   0  0  0  0  0  0  0  0  0  0  0  0
   -1.3570    1.8883   -1.5249 C   0  0  0  0  0  0  0  0  0  0  0  0
    0.5825    2.9264    0.2122 C   0  0  0  0  0  0  0  0  0  0  0  0
   -0.4825    1.0135   -0.8538 C   0  0  0  0  0  0  0  0  0  0  0  0
    0.4781    1.5412    0.0278 C   0  0  0  0  0  0  0  0  0  0  0  0
   -0.5328   -0.4388   -1.1065 C   0  0  0  0  0  0  0  0  0  0  0  0
    0.6260   -1.2691   -0.5018 C   0  0  0  0  0  0  0  0  0  0  0  0
    0.9817   -0.6549    0.8935 C   0  0  1  0  0  0  0  0  0  0  0  0
   -0.2126   -0.7158    1.8631 C   0  0  0  0  0  0  0  0  0  0  0  0
    5.0511    1.1945    6.0810 C   0  0  0  0  0  0  0  0  0  0  0  0
    6.6346   -1.9184    4.8366 C   0  0  0  0  0  0  0  0  0  0  0  0
    2.4046   -3.3072   -5.0143 C   0  0  0  0  0  0  0  0  0  0  0  0
    2.4001   -6.1521   -1.4801 C   0  0  0  0  0  0  0  0  0  0  0  0
    1.8078   -1.0828   -1.5003 C   0  0  0  0  0  0  0  0  0  0  0  0
    0.1632   -2.7469   -0.4135 C   0  0  0  0  0  0  0  0  0  0  0  0
    2.2336   -1.2734    1.5335 C   0  0  0  0  0  0  0  0  0  0  0  0
    2.6180   -0.6911    2.9001 C   0  0  0  0  0  0  0  0  0  0  0  0
    4.8410    0.6007    4.6874 C   0  0  0  0  0  0  0  0  0  0  0  0
    5.2189   -1.7257    5.4094 C   0  0  0  0  0  0  0  0  0  0  0  0
    3.9712   -1.2419    3.3672 C   0  0  0  0  0  0  0  0  0  0  0  0
    1.5093   -1.6341   -2.9033 C   0  0  0  0  0  0  0  0  0  0  0  0
    1.2696   -3.8122   -0.3356 C   0  0  0  0  0  0  0  0  0  0  0  0
    4.3424   -0.7796    4.7069 N   0  0  0  0  0  0  0  0  0  0  0  0
   -1.3832   -0.9473   -1.8290 O   0  0  0  0  0  0  0  0  0  0  0  0
    3.8948   -1.2761   -4.1039 O   0  0  0  0  0  0  0  0  0  0  0  0
    3.5609   -3.3178   -2.6214 O   0  0  0  0  0  0  0  0  0  0  0  0
   -0.1559   -6.0685   -0.6898 O   0  0  0  0  0  0  0  0  0  0  0  0
    0.5448   -4.7366   -2.7453 O   0  0  0  0  0  0  0  0  0  0  0  0
    1.3477    0.7504    0.7086 O   0  0  0  0  0  0  0  0  0  0  0  0
    3.0202   -2.3554   -3.6137 S   0  0  0  0  0  0  0  0  0  0  0  0
    0.8454   -5.2431   -1.3861 S   0  0  0  0  0  0  0  0  0  0  0  0
   -1.9380    3.9340   -1.8612 H   0  0  0  0  0  0  0  0  0  0  0  0
   -0.2020    4.8493   -0.3236 H   0  0  0  0  0  0  0  0  0  0  0  0
   -2.0925    1.4549   -2.1960 H   0  0  0  0  0  0  0  0  0  0  0  0
    1.3353    3.3100    0.8944 H   0  0  0  0  0  0  0  0  0  0  0  0
   -0.0482   -0.0157    2.6839 H   0  0  0  0  0  0  0  0  0  0  0  0
   -0.3138   -1.7160    2.2911 H   0  0  0  0  0  0  0  0  0  0  0  0
   -1.1598   -0.4573    1.3840 H   0  0  0  0  0  0  0  0  0  0  0  0
    4.1510    1.0679    6.6913 H   0  0  0  0  0  0  0  0  0  0  0  0
    5.8909    0.7329    6.6091 H   0  0  0  0  0  0  0  0  0  0  0  0
    5.2661    2.2651    5.9998 H   0  0  0  0  0  0  0  0  0  0  0  0
    6.6074   -2.2613    3.7970 H   0  0  0  0  0  0  0  0  0  0  0  0
    7.2175   -0.9924    4.8693 H   0  0  0  0  0  0  0  0  0  0  0  0
    7.1758   -2.6701    5.4218 H   0  0  0  0  0  0  0  0  0  0  0  0
    3.2839   -3.7512   -5.4850 H   0  0  0  0  0  0  0  0  0  0  0  0
    1.7253   -4.0711   -4.6340 H   0  0  0  0  0  0  0  0  0  0  0  0
    1.9089   -2.6258   -5.7081 H   0  0  0  0  0  0  0  0  0  0  0  0
    2.1927   -7.0366   -2.0856 H   0  0  0  0  0  0  0  0  0  0  0  0
    3.1422   -5.5092   -1.9553 H   0  0  0  0  0  0  0  0  0  0  0  0
    2.6958   -6.4483   -0.4720 H   0  0  0  0  0  0  0  0  0  0  0  0
    2.6888   -1.5831   -1.0989 H   0  0  0  0  0  0  0  0  0  0  0  0
    2.0720   -0.0270   -1.5694 H   0  0  0  0  0  0  0  0  0  0  0  0
   -0.4544   -2.9266   -1.2949 H   0  0  0  0  0  0  0  0  0  0  0  0
   -0.5172   -2.8697    0.4294 H   0  0  0  0  0  0  0  0  0  0  0  0
    2.0736   -2.3503    1.6368 H   0  0  0  0  0  0  0  0  0  0  0  0
    3.0781   -1.1402    0.8516 H   0  0  0  0  0  0  0  0  0  0  0  0
    2.6524    0.3987    2.8256 H   0  0  0  0  0  0  0  0  0  0  0  0
    1.8715   -0.9403    3.6602 H   0  0  0  0  0  0  0  0  0  0  0  0
    5.7745    0.6923    4.1013 H   0  0  0  0  0  0  0  0  0  0  0  0
    4.0964    1.2089    4.1658 H   0  0  0  0  0  0  0  0  0  0  0  0
    5.2918   -1.4114    6.4550 H   0  0  0  0  0  0  0  0  0  0  0  0
    4.7013   -2.6917    5.4240 H   0  0  0  0  0  0  0  0  0  0  0  0
    4.7431   -0.9981    2.6134 H   0  0  0  0  0  0  0  0  0  0  0  0
    3.9062   -2.3363    3.3965 H   0  0  0  0  0  0  0  0  0  0  0  0
    0.7846   -2.4477   -2.9023 H   0  0  0  0  0  0  0  0  0  0  0  0
    1.1755   -0.8601   -3.5972 H   0  0  0  0  0  0  0  0  0  0  0  0
    2.2343   -3.4776   -0.7152 H   0  0  0  0  0  0  0  0  0  0  0  0
    1.4004   -4.2227    0.6676 H   0  0  0  0  0  0  0  0  0  0  0  0
  1  2  1  0  0  0  0
  1  3  2  0  0  0  0
  1 33  1  0  0  0  0
  2  4  2  0  0  0  0
  2 34  1  0  0  0  0
  3  5  1  0  0  0  0
  3 35  1  0  0  0  0
  4  6  1  0  0  0  0
  4 36  1  0  0  0  0
  5  6  2  0  0  0  0
  5  7  1  0  0  0  0
  6 30  1  0  0  0  0
  7  8  1  0  0  0  0
  7 25  2  0  0  0  0
  8  9  1  0  0  0  0
  8 15  1  0  0  0  0
  8 16  1  0  0  0  0
  9 10  1  0  0  0  0
  9 17  1  0  0  0  0
  9 30  1  0  0  0  0
 10 37  1  0  0  0  0
 10 38  1  0  0  0  0
 10 39  1  0  0  0  0
 11 19  1  0  0  0  0
 11 40  1  0  0  0  0
 11 41  1  0  0  0  0
 11 42  1  0  0  0  0
 12 20  1  0  0  0  0
 12 43  1  0  0  0  0
 12 44  1  0  0  0  0
 12 45  1  0  0  0  0
 13 31  1  0  0  0  0
 13 46  1  0  0  0  0
 13 47  1  0  0  0  0
 13 48  1  0  0  0  0
 14 32  1  0  0  0  0
 14 49  1  0  0  0  0
 14 50  1  0  0  0  0
 14 51  1  0  0  0  0
 15 22  1  0  0  0  0
 15 52  1  0  0  0  0
 15 53  1  0  0  0  0
 16 23  1  0  0  0  0
 16 54  1  0  0  0  0
 16 55  1  0  0  0  0
 17 18  1  0  0  0  0
 17 56  1  0  0  0  0
 17 57  1  0  0  0  0
 18 21  1  0  0  0  0
 18 58  1  0  0  0  0
 18 59  1  0  0  0  0
 19 24  1  0  0  0  0
 19 60  1  0  0  0  0
 19 61  1  0  0  0  0
 20 24  1  0  0  0  0
 20 62  1  0  0  0  0
 20 63  1  0  0  0  0
 21 24  1  0  0  0  0
 21 64  1  0  0  0  0
 21 65  1  0  0  0  0
 22 31  1  0  0  0  0
 22 66  1  0  0  0  0
 22 67  1  0  0  0  0
 23 32  1  0  0  0  0
 23 68  1  0  0  0  0
 23 69  1  0  0  0  0
 26 31  2  0  0  0  0
 27 31  2  0  0  0  0
 28 32  2  0  0  0  0
 29 32  2  0  0  0  0
M  END
$$$$
