
  -OEChem-05262117483D

 71 75  0     1  0  0  0  0  0999 V2000
    1.0137   -2.1480   -1.3800 C   0  0  0  0  0  0  0  0  0  0  0  0
    5.9720   -0.9387   -4.7571 C   0  0  0  0  0  0  0  0  0  0  0  0
    1.7144   -2.2795   -2.5782 C   0  0  0  0  0  0  0  0  0  0  0  0
    0.0143   -1.1796   -1.2472 C   0  0  0  0  0  0  0  0  0  0  0  0
    4.7404   -1.4886   -5.1550 C   0  0  0  0  0  0  0  0  0  0  0  0
    0.3968   -0.5109   -3.5734 C   0  0  0  0  0  0  0  0  0  0  0  0
    6.0182    0.0729   -3.7967 C   0  0  0  0  0  0  0  0  0  0  0  0
    1.4320   -1.4511   -3.6774 C   0  0  0  0  0  0  0  0  0  0  0  0
   -0.2816   -0.3806   -2.3572 C   0  0  0  0  0  0  0  0  0  0  0  0
    4.7746    0.5625   -3.3200 C   0  0  0  0  0  0  0  0  0  0  0  0
    3.5849   -0.9775   -4.5762 C   0  0  0  0  0  0  0  0  0  0  0  0
    7.2176    1.6483   -2.3799 C   0  0  0  0  0  0  0  0  0  0  0  0
    3.3802    2.0369   -0.3014 C   0  0  0  0  0  0  0  0  0  0  0  0
    2.8231    3.2129   -2.4279 C   0  0  0  0  0  0  0  0  0  0  0  0
   -3.3995   -0.4670   -0.9448 C   0  0  0  0  0  0  0  0  0  0  0  0
   -3.4927   -0.2749   -3.4047 C   0  0  0  0  0  0  0  0  0  0  0  0
    1.9021    2.0186    0.0903 C   0  0  0  0  0  0  0  0  0  0  0  0
    1.3439    3.2306   -2.0678 C   0  0  0  0  0  0  0  0  0  0  0  0
   -4.9195   -0.6301   -0.9620 C   0  0  0  0  0  0  0  0  0  0  0  0
   -5.0065   -0.4568   -3.2984 C   0  0  0  0  0  0  0  0  0  0  0  0
    5.9205    2.4611   -2.3324 C   0  0  1  0  0  0  0  0  0  0  0  0
    3.4601    1.9493   -1.8289 C   0  0  0  0  0  0  0  0  0  0  0  0
    5.9689    3.4980   -3.4748 C   0  0  0  0  0  0  0  0  0  0  0  0
    8.4647   -0.1749   -3.4462 C   0  0  0  0  0  0  0  0  0  0  0  0
    1.2304    4.4369    0.1267 C   0  0  0  0  0  0  0  0  0  0  0  0
    3.6174    0.0502   -3.7190 N   0  0  0  0  0  0  0  0  0  0  0  0
    7.2104    0.5459   -3.2161 N   0  0  0  0  0  0  0  0  0  0  0  0
    4.7596    1.5688   -2.3623 N   0  0  1  0  0  0  0  0  0  0  0  0
   -3.0176    0.3256   -2.1349 N   0  0  0  0  0  0  0  0  0  0  0  0
    2.2811   -1.5423   -4.8135 N   0  0  0  0  0  0  0  0  0  0  0  0
    1.0912    3.1215   -0.5724 N   0  3  0  0  0  0  0  0  0  0  0  0
    8.2109    2.0223   -1.7699 O   0  0  0  0  0  0  0  0  0  0  0  0
   -1.2329    1.5406   -0.8351 O   0  0  0  0  0  0  0  0  0  0  0  0
   -1.3672    1.8023   -3.3574 O   0  0  0  0  0  0  0  0  0  0  0  0
   -5.3557   -1.2455   -2.1668 O   0  0  0  0  0  0  0  0  0  0  0  0
   -1.4772    0.9450   -2.1746 S   0  0  0  0  0  0  0  0  0  0  0  0
    1.2519   -2.7949   -0.5404 H   0  0  0  0  0  0  0  0  0  0  0  0
    6.8894   -1.3503   -5.1627 H   0  0  0  0  0  0  0  0  0  0  0  0
    2.5095   -3.0130   -2.6731 H   0  0  0  0  0  0  0  0  0  0  0  0
   -0.5019   -1.0373   -0.3040 H   0  0  0  0  0  0  0  0  0  0  0  0
    4.6955   -2.3184   -5.8516 H   0  0  0  0  0  0  0  0  0  0  0  0
    0.1751    0.1675   -4.3916 H   0  0  0  0  0  0  0  0  0  0  0  0
    3.8917    2.9213    0.0954 H   0  0  0  0  0  0  0  0  0  0  0  0
    3.8494    1.1604    0.1549 H   0  0  0  0  0  0  0  0  0  0  0  0
    2.8847    3.1901   -3.5191 H   0  0  0  0  0  0  0  0  0  0  0  0
    3.3299    4.1224   -2.0886 H   0  0  0  0  0  0  0  0  0  0  0  0
   -3.0867    0.0713   -0.0487 H   0  0  0  0  0  0  0  0  0  0  0  0
   -2.9246   -1.4575   -0.9700 H   0  0  0  0  0  0  0  0  0  0  0  0
   -3.0084   -1.2463   -3.5753 H   0  0  0  0  0  0  0  0  0  0  0  0
   -3.2535    0.4032   -4.2252 H   0  0  0  0  0  0  0  0  0  0  0  0
    1.4397    1.0834   -0.2323 H   0  0  0  0  0  0  0  0  0  0  0  0
    1.7496    2.1228    1.1663 H   0  0  0  0  0  0  0  0  0  0  0  0
    0.8305    4.1317   -2.4075 H   0  0  0  0  0  0  0  0  0  0  0  0
    0.8458    2.3793   -2.5265 H   0  0  0  0  0  0  0  0  0  0  0  0
   -5.2297   -1.2835   -0.1436 H   0  0  0  0  0  0  0  0  0  0  0  0
   -5.3972    0.3523   -0.8380 H   0  0  0  0  0  0  0  0  0  0  0  0
   -5.4922    0.5277   -3.2421 H   0  0  0  0  0  0  0  0  0  0  0  0
   -5.3766   -0.9872   -4.1782 H   0  0  0  0  0  0  0  0  0  0  0  0
    5.9380    2.9725   -1.3684 H   0  0  0  0  0  0  0  0  0  0  0  0
    2.8156    1.1203   -2.1250 H   0  0  0  0  0  0  0  0  0  0  0  0
    5.9045    3.0030   -4.4485 H   0  0  0  0  0  0  0  0  0  0  0  0
    6.9121    4.0491   -3.4280 H   0  0  0  0  0  0  0  0  0  0  0  0
    5.1527    4.2189   -3.4008 H   0  0  0  0  0  0  0  0  0  0  0  0
    8.7719   -0.0880   -4.4932 H   0  0  0  0  0  0  0  0  0  0  0  0
    8.3448   -1.2313   -3.1890 H   0  0  0  0  0  0  0  0  0  0  0  0
    9.2282    0.2713   -2.8123 H   0  0  0  0  0  0  0  0  0  0  0  0
    2.2591    4.7858    0.0470 H   0  0  0  0  0  0  0  0  0  0  0  0
    0.5579    5.1563   -0.3410 H   0  0  0  0  0  0  0  0  0  0  0  0
    0.9627    4.3103    1.1760 H   0  0  0  0  0  0  0  0  0  0  0  0
    1.8539   -1.1819   -5.6630 H   0  0  0  0  0  0  0  0  0  0  0  0
    0.1063    2.8017   -0.5000 H   0  0  0  0  0  0  0  0  0  0  0  0
  1  3  1  0  0  0  0
  1  4  2  0  0  0  0
  1 37  1  0  0  0  0
  2  5  2  0  0  0  0
  2  7  1  0  0  0  0
  2 38  1  0  0  0  0
  3  8  2  0  0  0  0
  3 39  1  0  0  0  0
  4  9  1  0  0  0  0
  4 40  1  0  0  0  0
  5 11  1  0  0  0  0
  5 41  1  0  0  0  0
  6  8  1  0  0  0  0
  6  9  2  0  0  0  0
  6 42  1  0  0  0  0
  7 10  2  0  0  0  0
  7 27  1  0  0  0  0
  8 30  1  0  0  0  0
  9 36  1  0  0  0  0
 10 26  1  0  0  0  0
 10 28  1  0  0  0  0
 11 26  2  0  0  0  0
 11 30  1  0  0  0  0
 12 21  1  0  0  0  0
 12 27  1  0  0  0  0
 12 32  2  0  0  0  0
 13 17  1  0  0  0  0
 13 22  1  0  0  0  0
 13 43  1  0  0  0  0
 13 44  1  0  0  0  0
 14 18  1  0  0  0  0
 14 22  1  0  0  0  0
 14 45  1  0  0  0  0
 14 46  1  0  0  0  0
 15 19  1  0  0  0  0
 15 29  1  0  0  0  0
 15 47  1  0  0  0  0
 15 48  1  0  0  0  0
 16 20  1  0  0  0  0
 16 29  1  0  0  0  0
 16 49  1  0  0  0  0
 16 50  1  0  0  0  0
 17 31  1  0  0  0  0
 17 51  1  0  0  0  0
 17 52  1  0  0  0  0
 18 31  1  0  0  0  0
 18 53  1  0  0  0  0
 18 54  1  0  0  0  0
 19 35  1  0  0  0  0
 19 55  1  0  0  0  0
 19 56  1  0  0  0  0
 20 35  1  0  0  0  0
 20 57  1  0  0  0  0
 20 58  1  0  0  0  0
 21 23  1  0  0  0  0
 21 28  1  0  0  0  0
 21 59  1  0  0  0  0
 22 28  1  0  0  0  0
 22 60  1  0  0  0  0
 23 61  1  0  0  0  0
 23 62  1  0  0  0  0
 23 63  1  0  0  0  0
 24 27  1  0  0  0  0
 24 64  1  0  0  0  0
 24 65  1  0  0  0  0
 24 66  1  0  0  0  0
 25 31  1  0  0  0  0
 25 67  1  0  0  0  0
 25 68  1  0  0  0  0
 25 69  1  0  0  0  0
 29 36  1  0  0  0  0
 30 70  1  0  0  0  0
 31 71  1  0  0  0  0
 33 36  2  0  0  0  0
 34 36  2  0  0  0  0
M  CHG  1  31   1
M  END
$$$$
