32
0 1 C13H15NO3
C                     1.596840679370    -2.703892591188     1.757155735568
C                     0.239770225905    -3.023524950535     1.566580908269
C                     2.089008442450    -1.505035698922     1.259066574752
C                    -0.615126977576    -2.150371249705     0.900479824603
C                     1.246282769906    -0.612619926456     0.570224349171
C                    -0.116193186432    -0.936929598500     0.405013514757
C                     1.780879691857     0.626108071461    -0.027932497354
C                    -2.576735255126     0.222194059945    -3.105597420144
C                     0.801789073871     1.353973861890    -0.935271723341
C                    -0.637900494553     1.267032231679    -0.417556872062
C                    -2.355679296608    -0.418240034549    -4.466007733240
C                    -0.813186720180     2.014068286788     0.909529411085
C                    -1.655112991171     1.805620811414    -1.439057810211
N                    -1.623529985996     1.139168846215    -2.725749186937
O                     2.929144062428     1.022591413627     0.139819350773
O                    -3.540515368797    -0.064659443691    -2.402609684459
O                    -1.004434163464    -0.124537268565    -0.229335645077
H                     2.251332048960    -3.391855805797     2.284314764900
H                    -0.153779204343    -3.961286669615     1.950686816645
H                     3.132951166966    -1.227906710258     1.373584936479
H                    -1.667281934432    -2.377848122786     0.758266539630
H                     1.121205423080     2.392801183772    -1.049044728383
H                     0.864766152081     0.864662999568    -1.915915539943
H                    -2.186830215410    -1.488991813202    -4.320792018485
H                    -3.266191828990    -0.306028001735    -5.059516297730
H                    -1.510261080456    -0.000537988011    -5.020754659727
H                    -1.842704359689     1.911124321851     1.263030265522
H                    -0.589265711575     3.077872455508     0.781961385882
H                    -0.145214809862     1.621572522451     1.680603457409
H                    -1.481468167416     2.879404749025    -1.570628145537
H                    -2.660075696833     1.664079179325    -1.036690811228
H                    -0.883567553788     1.360271504622    -3.376437005365
