
  -OEChem-05262117483D

 40 40  0     1  0  0  0  0  0999 V2000
    9.0244   -1.8738   -1.0612 C   0  0  0  0  0  0  0  0  0  0  0  0
    7.3346   -1.4877    0.5188 C   0  0  0  0  0  0  0  0  0  0  0  0
   10.1002   -1.8169   -2.1050 C   0  0  0  0  0  0  0  0  0  0  0  0
    7.0067   -0.8096    8.2487 C   0  0  0  0  0  0  0  0  0  0  0  0
    9.5607   -4.6254   -6.4719 C   0  0  0  0  0  0  0  0  0  0  0  0
    6.2365   -0.5506    6.9494 C   0  0  0  0  0  0  0  0  0  0  0  0
   10.1291   -4.5217   -5.0522 C   0  0  0  0  0  0  0  0  0  0  0  0
    6.9975   -1.0207    5.7038 C   0  0  0  0  0  0  0  0  0  0  0  0
   11.0371   -3.3012   -4.8665 C   0  0  0  0  0  0  0  0  0  0  0  0
    6.2297   -0.7546    4.4016 C   0  0  0  0  0  0  0  0  0  0  0  0
   11.6373   -3.1843   -3.4596 C   0  0  0  0  0  0  0  0  0  0  0  0
    7.0080   -1.2382    3.1812 C   0  0  0  0  0  0  0  0  0  0  0  0
    8.5769   -2.9852   -0.5303 N   0  0  0  0  0  0  0  0  0  0  0  0
    7.5853   -2.7618    0.3871 N   0  0  0  0  0  0  0  0  0  0  0  0
   10.6295   -3.0245   -2.4133 N   0  0  0  0  0  0  0  0  0  0  0  0
   10.4392   -0.7390   -2.5960 O   0  0  0  0  0  0  0  0  0  0  0  0
    6.1341    0.6819    1.4697 O   0  0  0  0  0  0  0  0  0  0  0  0
    8.2692   -0.4177   -0.4837 S   0  0  0  0  0  0  0  0  0  0  0  0
    6.0680   -0.8229    1.6420 S   0  0  1  0  0  0  0  0  0  0  0  0
    7.2089   -1.8786    8.3826 H   0  0  0  0  0  0  0  0  0  0  0  0
    7.9704   -0.2875    8.2479 H   0  0  0  0  0  0  0  0  0  0  0  0
    6.4419   -0.4653    9.1214 H   0  0  0  0  0  0  0  0  0  0  0  0
   10.3631   -4.7077   -7.2140 H   0  0  0  0  0  0  0  0  0  0  0  0
    8.9141   -5.5025   -6.5796 H   0  0  0  0  0  0  0  0  0  0  0  0
    8.9671   -3.7391   -6.7230 H   0  0  0  0  0  0  0  0  0  0  0  0
    6.0206    0.5214    6.8568 H   0  0  0  0  0  0  0  0  0  0  0  0
    5.2636   -1.0572    6.9916 H   0  0  0  0  0  0  0  0  0  0  0  0
    9.3007   -4.4734   -4.3344 H   0  0  0  0  0  0  0  0  0  0  0  0
   10.6930   -5.4346   -4.8154 H   0  0  0  0  0  0  0  0  0  0  0  0
    7.2121   -2.0943    5.7919 H   0  0  0  0  0  0  0  0  0  0  0  0
    7.9709   -0.5143    5.6604 H   0  0  0  0  0  0  0  0  0  0  0  0
   11.8675   -3.3462   -5.5834 H   0  0  0  0  0  0  0  0  0  0  0  0
   10.4823   -2.3821   -5.0871 H   0  0  0  0  0  0  0  0  0  0  0  0
    6.0341    0.3186    4.3015 H   0  0  0  0  0  0  0  0  0  0  0  0
    5.2549   -1.2570    4.4408 H   0  0  0  0  0  0  0  0  0  0  0  0
   12.3018   -2.3186   -3.4081 H   0  0  0  0  0  0  0  0  0  0  0  0
   12.2242   -4.0762   -3.2167 H   0  0  0  0  0  0  0  0  0  0  0  0
    7.1495   -2.3234    3.1706 H   0  0  0  0  0  0  0  0  0  0  0  0
    7.9783   -0.7398    3.0915 H   0  0  0  0  0  0  0  0  0  0  0  0
   10.2148   -3.8357   -1.9687 H   0  0  0  0  0  0  0  0  0  0  0  0
  1  3  1  0  0  0  0
  1 13  2  0  0  0  0
  1 18  1  0  0  0  0
  2 14  2  0  0  0  0
  2 18  1  0  0  0  0
  2 19  1  0  0  0  0
  3 15  1  0  0  0  0
  3 16  2  0  0  0  0
  4  6  1  0  0  0  0
  4 20  1  0  0  0  0
  4 21  1  0  0  0  0
  4 22  1  0  0  0  0
  5  7  1  0  0  0  0
  5 23  1  0  0  0  0
  5 24  1  0  0  0  0
  5 25  1  0  0  0  0
  6  8  1  0  0  0  0
  6 26  1  0  0  0  0
  6 27  1  0  0  0  0
  7  9  1  0  0  0  0
  7 28  1  0  0  0  0
  7 29  1  0  0  0  0
  8 10  1  0  0  0  0
  8 30  1  0  0  0  0
  8 31  1  0  0  0  0
  9 11  1  0  0  0  0
  9 32  1  0  0  0  0
  9 33  1  0  0  0  0
 10 12  1  0  0  0  0
 10 34  1  0  0  0  0
 10 35  1  0  0  0  0
 11 15  1  0  0  0  0
 11 36  1  0  0  0  0
 11 37  1  0  0  0  0
 12 19  1  0  0  0  0
 12 38  1  0  0  0  0
 12 39  1  0  0  0  0
 13 14  1  0  0  0  0
 15 40  1  0  0  0  0
 17 19  2  0  0  0  0
M  END
$$$$
