26   
torsion grid (-165,)
C       -1.8194876452   -7.0149975480    0.1757414462
C       -1.1730265821   -6.5570673890   -0.9807049111
C       -2.0668548690   -6.1196701571    1.2169614151
C       -0.7827894145   -5.2242892184   -1.0924548007
C       -1.6800085973   -4.7762770678    1.1205080660
C       -1.0368224734   -4.3306510321   -0.0410175527
C        0.7770424533    1.5667629079   -0.5966123176
C        0.6460958533    0.5218227156   -1.4235264801
C       -0.4201819084   -0.7086132176    0.3111951757
C        0.0239274455    1.5708254362    0.7155061311
C       -0.9028315525   -2.0705227651    0.7694518674
N       -0.3250906847    0.2197018918    1.1842524746
N       -0.1583404161   -0.5724926157   -1.0490463749
O       -0.6128781747   -3.0387080484   -0.2401318004
H       -2.1232176445   -8.0544236499    0.2607296340
H       -0.9723403870   -7.2421561511   -1.8003505195
H       -2.5653702736   -6.4606514354    2.1206619268
H       -0.2807916385   -4.8566806195   -1.9830363177
H       -1.8802084866   -4.1030805074    1.9461204749
H        1.4222680572    2.3983054269   -0.8624962292
H        1.1430508766    0.4397498114   -2.3848493212
H        0.6136742561    2.0600071087    1.4994121449
H       -0.9053509377    2.1574913782    0.6301204898
H       -1.9848172207   -2.0260821838    0.9442895949
H       -0.4040523794   -2.3155462243    1.7118443288
H       -0.0540290358   -1.4427346472   -1.5564162387
26   
torsion grid (-150,)
C       -1.7943554363   -7.0083986695    0.1616145545
C       -1.0231469029   -6.5699674570   -0.9238020213
C       -2.1532238629   -6.0959162379    1.1543661825
C       -0.6204286364   -5.2393386177   -1.0151002303
C       -1.7552128243   -4.7544840147    1.0773781487
C       -0.9881848662   -4.3276333000   -0.0139336384
C        0.7731588322    1.5449835261   -0.6461236140
C        0.4661332011    0.5533846849   -1.4914245181
C       -0.4310542190   -0.7025337125    0.3203249057
C        0.2090484024    1.5225404280    0.7570801041
C       -0.9478340453   -2.0518397368    0.7646944591
N       -0.1526255666    0.1697747987    1.2121010232
N       -0.3527085805   -0.5102361458   -1.0591451297
O       -0.5437677640   -3.0387352735   -0.1885504626
H       -2.1069900880   -8.0463985542    0.2302212422
H       -0.7335637733   -7.2692680269   -1.7039117424
H       -2.7479667444   -6.4216324895    2.0038944536
H       -0.0203124359   -4.8871220250   -1.8494110464
H       -2.0414235607   -4.0678515367    1.8657701062
H        1.4273346735    2.3516526430   -0.9619134831
H        0.8231393538    0.4929018121   -2.5145221313
H        0.9288488747    1.9379611268    1.4715984330
H       -0.6867932007    2.1605721140    0.8290201900
H       -2.0441880012   -2.0189808225    0.8210684840
H       -0.5449227345   -2.2637089089    1.7585689666
H       -0.3290861684   -1.3669766289   -1.6001424211
26   
torsion grid (-135,)
C       -1.7452359297   -7.0118680107    0.1573902372
C       -0.8813384006   -6.5747853111   -0.8564740493
C       -2.2124033320   -6.0916588554    1.0965226687
C       -0.4947975255   -5.2383090831   -0.9299603378
C       -1.8327172890   -4.7439704754    1.0374643816
C       -0.9723423933   -4.3193219239    0.0170326729
C        0.7825336798    1.5000585821   -0.6663789051
C        0.2956608125    0.5833806559   -1.5114440344
C       -0.4969840886   -0.6914455980    0.3373452164
C        0.3812237755    1.4468863634    0.7905455581
C       -1.0447158259   -2.0324176016    0.7595887042
N       -0.0372352711    0.1037299861    1.2261234076
N       -0.5622865037   -0.4302868595   -1.0344926020
O       -0.5343310056   -3.0255928820   -0.1365231209
H       -2.0452697371   -8.0543955367    0.2127128649
H       -0.5062650591   -7.2796853634   -1.5939973171
H       -2.8795531287   -6.4166238403    1.8907695425
H        0.1771439611   -4.8862408695   -1.7076333505
H       -2.2038244138   -4.0519194952    1.7847274174
H        1.4663328107    2.2651417185   -1.0205054099
H        0.5300619901    0.5470797261   -2.5704538854
H        1.2091916029    1.7658673192    1.4336124555
H       -0.4451208985    2.1463840017    0.9961357028
H       -2.1424373194   -2.0184614933    0.7107330140
H       -0.7287635681   -2.2210870653    1.7886146769
H       -0.6430054261   -1.2619421402   -1.6089440997
26   
torsion grid (-120,)
C       -1.6735656995   -7.0019913720    0.1641609931
C       -0.7284690384   -6.5701131097   -0.7770967573
C       -2.2455857246   -6.0711371651    1.0320211607
C       -0.3652215121   -5.2271207773   -0.8489999854
C       -1.8900076991   -4.7168297569    0.9721549908
C       -0.9473751854   -4.2960226628    0.0252449566
C        0.8277232470    1.4566926832   -0.7286665575
C        0.1599878558    0.6409162008   -1.5528713782
C       -0.5410273863   -0.6653497869    0.3144281790
C        0.5941357806    1.3515317584    0.7611329164
C       -1.1255754907   -1.9978770997    0.7092342655
N        0.0946760703    0.0302442258    1.1773594679
N       -0.7357914308   -0.3162140075   -1.0282879887
O       -0.5250020089   -2.9969811636   -0.1232760852
H       -1.9551918209   -8.0496577554    0.2191116324
H       -0.2715256962   -7.2837875794   -1.4578941306
H       -2.9766015967   -6.3923718979    1.7696243667
H        0.3686540645   -4.8775830075   -1.5696329989
H       -2.3437874098   -4.0159056192    1.6634684452
H        1.5368836561    2.1770384692   -1.1242583802
H        0.2656967907    0.6487726365   -2.6329312747
H        1.5185481425    1.5502749046    1.3150205470
H       -0.1281294923    2.1111900384    1.1006318021
H       -2.2149219690   -1.9948170462    0.5631307362
H       -0.8964456173   -2.1721989521    1.7634775416
H       -0.9413028297   -1.1047105267   -1.6320747277
26   
torsion grid (-105,)
C       -1.6264934325   -7.0021876306    0.1741834008
C       -0.6008791003   -6.5707785647   -0.6791239483
C       -2.2922618395   -6.0657627503    0.9657046528
C       -0.2502053129   -5.2240743135   -0.7407509680
C       -1.9509379114   -4.7072933458    0.9156204317
C       -0.9267015424   -4.2873239984    0.0566681677
C        0.8379162358    1.4224495996   -0.7452800842
C        0.0133536919    0.7243899271   -1.5346976379
C       -0.5872318239   -0.6531786496    0.3193497854
C        0.7603666499    1.2320449917    0.7521869032
C       -1.1989960403   -1.9838186038    0.6798911540
N        0.1978543102   -0.0715445940    1.1417785286
N       -0.8996766937   -0.1922320829   -0.9682861829
O       -0.5085584251   -2.9858805069   -0.0745503992
H       -1.8976461783   -8.0530547971    0.2205352250
H       -0.0705859205   -7.2886436324   -1.2996947509
H       -3.0866966664   -6.3857433328    1.6351865830
H        0.5446691327   -4.8748385369   -1.3935802115
H       -2.4792149317   -4.0023927926    1.5474711902
H        1.5608305589    2.1082217124   -1.1758264121
H       -0.0008039705    0.7996991034   -2.6171988428
H        1.7528726258    1.3189226045    1.2082990118
H        0.1462414415    2.0196720471    1.2174035549
H       -2.2703478733   -1.9973633529    0.4350388989
H       -1.0657024282   -2.1447889700    1.7529878336
H       -1.2463583601   -0.9086381401   -1.5961922908
26   
torsion grid (-90,)
C       -1.5838479015   -7.0197203359    0.2058305518
C       -0.4788741546   -6.5995852379   -0.5485345978
C       -2.3405757109   -6.0688078967    0.8910346636
C       -0.1396168341   -5.2504829957   -0.6169417258
C       -2.0122248888   -4.7073414809    0.8325179820
C       -0.9072837774   -4.2987622157    0.0735878477
C        0.8240992273    1.4155039297   -0.7767307995
C       -0.1393066309    0.8477870076   -1.5113900255
C       -0.6120371802   -0.6579039920    0.2830153616
C        0.9220738733    1.0874397792    0.6955002872
C       -1.2576297459   -1.9857155010    0.6026955962
N        0.3025194411   -0.2002377961    1.0466329231
N       -1.0373633798   -0.0649376150   -0.9156674530
O       -0.4922144289   -2.9972965423   -0.0570792607
H       -1.8459451234   -8.0726293291    0.2580413401
H        0.1225907408   -7.3283971731   -1.0859169391
H       -3.1977878033   -6.3795590583    1.4829870632
H        0.7152941647   -4.9092847593   -1.1936161202
H       -2.6141349182   -3.9912991671    1.3805417376
H        1.5332709824    2.0971638227   -1.2358219553
H       -0.2825389521    1.0299891780   -2.5715807217
H        1.9688179219    1.0558153754    1.0187661556
H        0.4444256699    1.8712021071    1.3049509304
H       -2.3004579077   -2.0084525773    0.2564318776
H       -1.2331813265   -2.1337309292    1.6862895858
H       -1.5215754486   -0.6866454175   -1.5523385121
26   
torsion grid (-75,)
C       -1.5648910247   -7.0064385707    0.2694461966
C       -0.3882234969   -6.6137475969   -0.3849634428
C       -2.3933347138   -6.0291781298    0.8213915304
C       -0.0490437241   -5.2668336348   -0.4854738543
C       -2.0665831680   -4.6690868899    0.7285176181
C       -0.8885779395   -4.2882628108    0.0714716969
C        0.7827847965    1.5073516224   -0.8054039039
C       -0.2931714286    1.0682301455   -1.4680886750
C       -0.6055481342   -0.6370655507    0.1812278692
C        1.0748934781    0.9779622505    0.5800441283
C       -1.2885617152   -1.9599824519    0.4586346079
N        0.4134924425   -0.3025073151    0.8711560048
N       -1.1405698596    0.1015465257   -0.8846282048
O       -0.4656165563   -2.9925816385   -0.0810045445
H       -1.8268034427   -8.0578382537    0.3472299059
H        0.2696411673   -7.3627914605   -0.8184081043
H       -3.3074282053   -6.3177903118    1.3342041110
H        0.8605544409   -4.9465728288   -0.9852676620
H       -2.7277580810   -3.9327225209    1.1712559548
H        1.4452552234    2.2357857487   -1.2628631540
H       -0.5714907747    1.4027514271   -2.4622631394
H        2.1532296849    0.8393786751    0.7231691451
H        0.7646867779    1.7025396488    1.3497585635
H       -2.2893566166   -1.9894219091    0.0055192602
H       -1.3885044574   -2.0836171943    1.5421448282
H       -1.7326716023   -0.4156570563   -1.5225815942
26   
torsion grid (-60,)
C       -1.5566071512   -7.0578716947    0.3593173779
C       -0.3122370677   -6.6950601579   -0.1766841751
C       -2.4446885313   -6.0571458785    0.7538189286
C        0.0355714558   -5.3538937150   -0.3150448773
C       -2.1101233927   -4.7023271954    0.6200125792
C       -0.8636581906   -4.3511839390    0.0834253197
C        0.7256705654    1.5819118297   -0.7112276895
C       -0.4426512679    1.2592761909   -1.2767313027
C       -0.5666737860   -0.6932383519    0.1053217159
C        1.2162873455    0.8159396410    0.4959137033
C       -1.2847413493   -2.0125243606    0.3249821897
N        0.5396196035   -0.4725629021    0.6974018438
N       -1.2182559205    0.1985847921   -0.7600987451
O       -0.4275471915   -3.0644359757   -0.0982791547
H       -1.8249147550   -8.1049860435    0.4672161880
H        0.3919728559   -7.4630449352   -0.4865606939
H       -3.4122784588   -6.3225993991    1.1723933808
H        0.9967241019   -5.0554895684   -0.7234174026
H       -2.8205792021   -3.9468213707    0.9361755412
H        1.3216382691    2.3924964414   -1.1198950273
H       -0.8576818675    1.7690560223   -2.1402901908
H        2.2935377627    0.6220392688    0.4195972984
H        1.0897841521    1.4113340675    1.4139806192
H       -2.2311741544   -2.0400243864   -0.2335126680
H       -1.5138369308   -2.1158040871    1.3924624733
H       -1.8893567894   -0.2140692619   -1.3958544369
26   
torsion grid (-45,)
C       -1.5516972688   -7.0660649270    0.4294139658
C       -0.2581527519   -6.7249433715    0.0075982607
C       -2.4733773852   -6.0491956737    0.6784109210
C        0.1047245145   -5.3912598630   -0.1607033249
C       -2.1242643823   -4.7015426445    0.5120746795
C       -0.8282448481   -4.3721051659    0.0915700646
C        0.6770717528    1.6699309088   -0.6325356226
C       -0.5580275502    1.4241215659   -1.0826750083
C       -0.5215216742   -0.7108070049    0.0063232242
C        1.3242071701    0.7311457812    0.3593897278
C       -1.2577299873   -2.0284618368    0.1794929184
N        0.6505659168   -0.5678878830    0.4816548942
N       -1.2694726990    0.2864714826   -0.6413019646
O       -0.3733706378   -3.0953183884   -0.1104895509
H       -1.8315958526   -8.1074171448    0.5612631541
H        0.4731745214   -7.5048433853   -0.1889137777
H       -3.4799682419   -6.2963656891    1.0064147532
H        1.1034902869   -5.1100538894   -0.4814610532
H       -2.8636192169   -3.9341676688    0.7122983686
H        1.2165972953    2.5456673576   -0.9809888838
H       -1.0797572207    2.0586364793   -1.7920385287
H        2.3716462476    0.5443920011    0.0896843037
H        1.3577472638    1.1865844897    1.3615860655
H       -2.1355537315   -2.0701536942   -0.4828516186
H       -1.6166715517   -2.0920030570    1.2151894725
H       -2.0043588638   -0.0417972726   -1.2556713694
26   
torsion grid (-30,)
C       -1.5748980255   -7.0756001891    0.4585040102
C       -0.2425779139   -6.7513547763    0.1626904991
C       -2.5135257738   -6.0508215375    0.5781287209
C        0.1414529886   -5.4241921625   -0.0094080356
C       -2.1423512928   -4.7097634291    0.4061256938
C       -0.8079898255   -4.3963098211    0.1122713813
C        0.6367188914    1.7064578377   -0.6026494504
C       -0.6469637586    1.4972260092   -0.9137643463
C       -0.4838995486   -0.7363036115   -0.0585344381
C        1.3931857378    0.6806009124    0.2090735143
C       -1.2273856418   -2.0536235016    0.0783048808
N        0.7396426051   -0.6331774732    0.2740818508
N       -1.3037593985    0.3194440537   -0.4943834077
O       -0.3268961415   -3.1281110350   -0.0811899626
H       -1.8719778894   -8.1117629054    0.5934470493
H        0.5012341896   -7.5384280680    0.0678194374
H       -3.5499110283   -6.2862528579    0.8071135169
H        1.1689563586   -5.1539324333   -0.2343885927
H       -2.8949940450   -3.9353336563    0.5034184988
H        1.1351371724    2.6128308237   -0.9333139330
H       -1.2501115812    2.1922120330   -1.4892743257
H        2.4026013955    0.5345141011   -0.1959342927
H        1.5409097939    1.0325831422    1.2421556735
H       -2.0310501612   -2.1125174068   -0.6723483708
H       -1.6993584479   -2.0817991227    1.0709533443
H       -2.1183934281    0.0530019893   -1.0336983825
26   
torsion grid (-15,)
C       -1.5878618593   -7.0316119738    0.4402666270
C       -0.2296511748   -6.7186763820    0.2816611227
C       -2.5254982282   -5.9991898320    0.4582772156
C        0.1811816769   -5.3956094597    0.1438108305
C       -2.1278966206   -4.6617601622    0.3199553795
C       -0.7679870064   -4.3604304070    0.1625445545
C        0.6592290166    1.7534482899   -0.6262507197
C       -0.6557620313    1.5684439212   -0.7861025530
C       -0.4159676623   -0.7036383457   -0.0668658781
C        1.4818595407    0.6955953705    0.0718557583
C       -1.1641840181   -2.0193969838    0.0438645455
N        0.8406285752   -0.6261952193    0.1119008446
N       -1.2713518947    0.3860390764   -0.3191432694
O       -0.2583758623   -3.0971891728    0.0156643595
H       -1.9055178999   -8.0648491738    0.5480835416
H        0.5134627618   -7.5119399423    0.2665658578
H       -3.5817520414   -6.2256133332    0.5807894919
H        1.2281640045   -5.1339263373    0.0222986632
H       -2.8802728272   -3.8811615896    0.3378913616
H        1.1319218196    2.6582271588   -0.9960665380
H       -1.3136223004    2.2829055733   -1.2705835252
H        2.4588290425    0.5807727293   -0.4130821811
H        1.7005983590    0.9932593321    1.1095660571
H       -1.8871167343   -2.1018062121   -0.7837625057
H       -1.7379910091   -2.0106328224    0.9827946949
H       -2.1609222523    0.1578744883   -0.7467733423
26   
torsion grid (0,)
C       -1.5917054745   -7.0086898252    0.4049526769
C       -0.2242239107   -6.6962595623    0.3906454771
C       -2.5260782051   -5.9762310467    0.3256455393
C        0.1984293160   -5.3729801093    0.2982711758
C       -2.1161992119   -4.6386206919    0.2323900760
C       -0.7471950510   -4.3375029495    0.2184568004
C        0.6520006354    1.7760057960   -0.6717326478
C       -0.6752795189    1.6077126732   -0.6746592361
C       -0.3749381340   -0.6849864853   -0.0584790004
C        1.5298559241    0.7014343276   -0.0732838639
C       -1.1269965269   -1.9987839088    0.0301467872
N        0.8947557317   -0.6246045663   -0.0392184883
N       -1.2374251266    0.4265972040   -0.1413249962
O       -0.2244203307   -3.0740038466    0.1313575726
H       -1.9191180847   -8.0419752265    0.4771353311
H        0.5163307920   -7.4896973368    0.4518439732
H       -3.5893514893   -6.2027158070    0.3362930024
H        1.2523676486   -5.1113413040    0.2854521741
H       -2.8663498919   -3.8578933200    0.1739154018
H        1.0917585512    2.6711405347   -1.1004195436
H       -1.3791069461    2.3294156483   -1.0768315835
H        2.4686976728    0.6106768707   -0.6315620614
H        1.8192017009    0.9624598955    0.9570978928
H       -1.7627113807   -2.1096414399   -0.8631659304
H       -1.7921489698   -1.9588268563    0.9066200986
H       -2.1896985048    0.2273793163   -0.4246020928
26   
torsion grid (15,)
C       -1.5914714751   -7.0018727348    0.3775750956
C       -0.2308188269   -6.6857964942    0.5062108074
C       -2.5140833213   -5.9720325808    0.1945079920
C        0.1974256110   -5.3622135390    0.4515837555
C       -2.0989818535   -4.6339773951    0.1382296123
C       -0.7366790724   -4.3296831177    0.2670226934
C        0.6436370855    1.7850511839   -0.6991927093
C       -0.6766621914    1.6296428367   -0.5443039568
C       -0.3344292762   -0.6859242219   -0.0543905950
C        1.5667423128    0.6881349679   -0.2208595452
C       -1.0977020892   -1.9936120910    0.0095012437
N        0.9281613324   -0.6377657632   -0.1994402797
N       -1.1761452831    0.4399723183    0.0294362635
O       -0.2107847431   -3.0651169839    0.2314271666
H       -1.9226043580   -8.0356263260    0.4200262146
H        0.5006364558   -7.4772088147    0.6487972482
H       -3.5720989139   -6.2009741337    0.0937901075
H        1.2466161761   -5.0984628389    0.5467818019
H       -2.8401413148   -3.8551170606   -0.0024042962
H        1.0410094311    2.6787990829   -1.1698107122
H       -1.4178191473    2.3619987708   -0.8480417574
H        2.4573213924    0.6235518429   -0.8555240927
H        1.9348229565    0.9035513668    0.7949130818
H       -1.6429523096   -2.1315532997   -0.9374445656
H       -1.8433096393   -1.9287866540    0.8174750902
H       -2.1673861161    0.2688501901   -0.0903322235
26   
torsion grid (30,)
C       -1.5876687901   -7.0068582070    0.3724522121
C       -0.2507895761   -6.6757536206    0.6387454530
C       -2.4933491937   -5.9889168277    0.0742519213
C        0.1708164171   -5.3492993114    0.6061503219
C       -2.0845295818   -4.6482434931    0.0389272496
C       -0.7459017465   -4.3285290734    0.3053124210
C        0.6323654297    1.7969494829   -0.6763517607
C       -0.6636557013    1.6524774957   -0.3734814947
C       -0.3215723152   -0.6965034411   -0.0832990941
C        1.5783823151    0.6563984505   -0.3771454360
C       -1.0943739235   -1.9997561795   -0.0454197665
N        0.9143915129   -0.6575031386   -0.3845317691
N       -1.1161954359    0.4339288195    0.1759621073
O       -0.2299359648   -3.0594452497    0.3043479637
H       -1.9135141647   -8.0428482776    0.3977388598
H        0.4675808028   -7.4577339856    0.8714640417
H       -3.5329298458   -6.2293713448   -0.1341106090
H        1.2024684246   -5.0748310111    0.8056473003
H       -2.8123706661   -3.8787440733   -0.1930631274
H        0.9911663712    2.7108075617   -1.1393140086
H       -1.4196284091    2.4129564676   -0.5409159391
H        2.3958644817    0.6263585098   -1.1054991168
H        2.0541657196    0.7925377616    0.6071653709
H       -1.5406013502   -2.1736129244   -1.0360342043
H       -1.9143934072   -1.9160925943    0.6843687621
H       -2.1180783669    0.2906867232    0.1998243436
26   
torsion grid (45,)
C       -1.5799988263   -7.0111926601    0.4060405608
C       -0.2833224962   -6.6498591823    0.8007051820
C       -2.4595088958   -6.0193388121   -0.0277259782
C        0.1245892243   -5.3192785213    0.7608939354
C       -2.0645597138   -4.6748307254   -0.0721281285
C       -0.7658750680   -4.3251182925    0.3231388936
C        0.6208305066    1.8152484733   -0.6091718160
C       -0.6329230689    1.6638924792   -0.1644620415
C       -0.3346496467   -0.7096378996   -0.1649746089
C        1.5594729186    0.6309491320   -0.5568112990
C       -1.1070710247   -2.0143519245   -0.1542709773
N        0.8558786835   -0.6605433579   -0.6160441562
N       -1.0579798514    0.4007127257    0.2963495061
O       -0.2679512873   -3.0487147859    0.3266690765
H       -1.8951041847   -8.0503460639    0.4371142760
H        0.4145767795   -7.4113213543    1.1395652234
H       -3.4677193181   -6.2835962400   -0.3369703619
H        1.1260691457   -5.0222968216    1.0581029272
H       -2.7712075205   -3.9259610790   -0.4119893558
H        0.9504970386    2.7685280395   -1.0103108491
H       -1.3770158280    2.4538081940   -0.1518271863
H        2.2755580353    0.6645880408   -1.3850299292
H        2.1619714509    0.6506097626    0.3654081441
H       -1.4424641568   -2.2338769398   -1.1772034159
H       -1.9972485155   -1.9214663430    0.4854707850
H       -2.0508154202    0.2745442792    0.4435751650
26   
torsion grid (60,)
C       -1.5787044477   -6.9980423043    0.4624636484
C       -0.3338888582   -6.5952325581    0.9681193602
C       -2.4189093023   -6.0432637636   -0.1101984611
C        0.0620752574   -5.2620057066    0.9016469946
C       -2.0357316550   -4.6966585353   -0.1837757445
C       -0.7890139076   -4.3055662424    0.3239346246
C        0.6207676425    1.8328439648   -0.5139439198
C       -0.5692541394    1.6452699821    0.0703947564
C       -0.3546661498   -0.7121494734   -0.2743121590
C        1.5182031411    0.6371687452   -0.7426708262
C       -1.1166819303   -2.0219932509   -0.2950895034
N        0.7702484339   -0.6239513155   -0.8691061369
N       -0.9771050331    0.3396960729    0.4108488492
O       -0.3082007393   -3.0222806977    0.3100244243
H       -1.8838633619   -8.0393034038    0.5151166878
H        0.3337015558   -7.3270445837    1.4158506889
H       -3.3866217966   -6.3388496295   -0.5077990713
H        1.0244155084   -4.9352021559    1.2846355027
H       -2.7104674131   -3.9779603593   -0.6350944077
H        0.9275624328    2.8254044989   -0.8286004596
H       -1.2775926403    2.4393472465    0.2836063765
H        2.1187907468    0.7682522238   -1.6493291910
H        2.2382151126    0.5251714500    0.0838642229
H       -1.3329725736   -2.2855628495   -1.3376543420
H       -2.0692446070   -1.9297520536    0.2458519370
H       -1.9441004487    0.2103183112    0.6762580658
26   
torsion grid (75,)
C       -1.6029675893   -6.9793263829    0.5357328636
C       -0.4221212252   -6.5331514098    1.1470786294
C       -2.3815310097   -6.0716896560   -0.1825155267
C       -0.0294692341   -5.2013906071    1.0412607766
C       -2.0003181885   -4.7275810546   -0.2979449958
C       -0.8184268996   -4.2924057709    0.3172776349
C        0.6115233057    1.8280575597   -0.4074337371
C       -0.4905056272    1.5621821848    0.3048124157
C       -0.3727964604   -0.7251880482   -0.3848593336
C        1.4421089262    0.6781253881   -0.9324770753
C       -1.1133318480   -2.0436017387   -0.4446054948
N        0.6666382619   -0.5599978926   -1.1078444855
N       -0.8811813843    0.2239648103    0.5095133701
O       -0.3451201882   -3.0065419122    0.2734214082
H       -1.9067097477   -8.0189625843    0.6192054757
H        0.1967387995   -7.2283543508    1.7087255829
H       -3.2982384732   -6.4030633348   -0.6639087512
H        0.8834367362   -4.8402883087    1.5058839893
H       -2.6236161165   -4.0462193299   -0.8659855850
H        0.8974414829    2.8549965744   -0.6121829762
H       -1.1415348442    2.3205767914    0.7275893729
H        1.8966144162    0.9336421802   -1.8961447599
H        2.2808328535    0.4586639525   -0.2523480484
H       -1.2080055169   -2.3394330451   -1.4949542922
H       -2.1178267862   -1.9604166758   -0.0063276338
H       -1.8082413621    0.0606358019    0.8780263076
26   
torsion grid (90,)
C       -1.6427068596   -6.9541729914    0.5918642274
C       -0.5283646909   -6.4725056384    1.2940952893
C       -2.3464087977   -6.0861227766   -0.2432288628
C       -0.1282049938   -5.1450190805    1.1634508031
C       -1.9567697088   -4.7471406592   -0.3861019530
C       -0.8424941602   -4.2765992917    0.3220276307
C        0.5867569608    1.8302536231   -0.3296034179
C       -0.4057856170    1.4581799799    0.4881035995
C       -0.3567658864   -0.7361128779   -0.4636644900
C        1.3496640106    0.7689631606   -1.0911711257
C       -1.0745838532   -2.0621486137   -0.5618865240
N        0.5803807983   -0.4697465002   -1.2907234500
N       -0.7540549335    0.0970236317    0.5869289782
O       -0.3680812465   -2.9911504862    0.2615541354
H       -1.9526623463   -7.9901860636    0.6952449149
H        0.0323944253   -7.1363885396    1.9471853365
H       -3.2102755829   -6.4455078991   -0.7967773927
H        0.7337225908   -4.7571332223    1.6985987171
H       -2.5190933885   -4.0978334879   -1.0475725800
H        0.8353003715    2.8801787659   -0.4482473590
H       -0.9989816615    2.1478262527    1.0799298157
H        1.6570254139    1.1399513622   -2.0754448871
H        2.2811291833    0.5040416232   -0.5654553865
H       -1.0547074522   -2.3832174246   -1.6078215995
H       -2.1186761647   -1.9821701891   -0.2273033525
H       -1.6197630115   -0.1325991917    1.0556726896
26   
torsion grid (105,)
C       -1.9829621324   -6.9873397086    0.1750129324
C       -2.0722001963   -6.3468511776   -1.0693473865
C       -1.5622569211   -6.2586482332    1.2878724747
C       -1.7424759340   -4.9995963794   -1.1960151683
C       -1.2275381718   -4.9020511643    1.1766077622
C       -1.3176820950   -4.2726690884   -0.0721896380
C        0.6600764340    1.6967813540   -0.4057255824
C        1.4260853657    0.6309783477   -0.6695857027
C       -0.2380137257   -0.7935492086    0.2903183006
C       -0.7826558452    1.4847460140   -0.0027890809
C       -0.5224435913   -2.1858737213    0.8001494868
N       -1.0369363881    0.1596514773    0.5866711205
N        0.8948699993   -0.6636428822   -0.5167985432
O       -1.0167040644   -2.9534269281   -0.3002368688
H       -2.2408862908   -8.0381022315    0.2718896978
H       -2.4007061769   -6.9005329019   -1.9452740830
H       -1.4923840975   -6.7411500960    2.2595234503
H       -1.8076756127   -4.4875197009   -2.1517050626
H       -0.9117943100   -4.3579757589    2.0595877194
H        1.0698348341    2.6991785204   -0.4794978751
H        2.4647023976    0.6882879379   -0.9790519746
H       -1.1013904909    2.2435179259    0.7209157111
H       -1.4515267261    1.5987744037   -0.8710203362
H       -1.2742404983   -2.1073578789    1.5902438425
H        0.3861091661   -2.6545070490    1.2058477588
H        1.5337800574   -1.4463899194   -0.5475520202
26   
torsion grid (120,)
C       -1.9068539235   -7.0109616643    0.1828366965
C       -1.9074951224   -6.4008777519   -1.0796823837
C       -1.6053922017   -6.2438115640    1.3085641887
C       -1.6078409409   -5.0469212368   -1.2115832030
C       -1.3026422320   -4.8801842036    1.1925119799
C       -1.3026206779   -4.2820963787   -0.0745304899
C        0.7060930265    1.6666027547   -0.3972524978
C        1.3328741824    0.5533864060   -0.7987438140
C       -0.3334116536   -0.7680685210    0.2925336320
C       -0.6966395366    1.5592872356    0.1600041989
C       -0.6457314957   -2.1509280091    0.8101809297
N       -1.0059324300    0.2319300932    0.7196756372
N        0.7019035557   -0.6936703068   -0.6396277456
O       -1.0227806303   -2.9582510270   -0.3081821231
H       -2.1410002663   -8.0669152148    0.2835974464
H       -2.1433200465   -6.9838225765   -1.9663696073
H       -1.6054543254   -6.7016868557    2.2944879047
H       -1.6068196326   -4.5590086486   -2.1820739616
H       -1.0811549686   -4.3063993457    2.0852377151
H        1.1987588223    2.6310741401   -0.4688203334
H        2.3312442328    0.5347563222   -1.2239171941
H       -0.8627662402    2.3050931784    0.9456446328
H       -1.4438663990    1.7744857595   -0.6207499535
H       -1.4632262653   -2.0649458060    1.5309226840
H        0.2339101859   -2.5871693723    1.3056540659
H        1.2317568563   -1.5357262438   -0.8183975594
26   
torsion grid (135,)
C       -1.8387237007   -7.0089589743    0.1851155832
C       -1.7400149083   -6.4292271058   -1.0876607965
C       -1.6563812737   -6.2073104453    1.3124419043
C       -1.4601448324   -5.0718419534   -1.2289093989
C       -1.3750754523   -4.8399423543    1.1878919309
C       -1.2748659052   -4.2735092465   -0.0894298577
C        0.7946148796    1.6315322396   -0.4170606081
C        1.2587909978    0.4899960465   -0.9419093584
C       -0.3925638043   -0.7312144524    0.2758783966
C       -0.5396220636    1.6224186783    0.2972443265
C       -0.7425983859   -2.1054092706    0.7941898553
N       -0.9150414000    0.2983672160    0.8247108388
N        0.5328763140   -0.7006606018   -0.7644042708
O       -1.0047573340   -2.9483118953   -0.3305902846
H       -2.0571751592   -8.0676362926    0.2922940069
H       -1.8826614886   -7.0391087799   -1.9760515710
H       -1.7341149257   -6.6409157865    2.3061924360
H       -1.3845387332   -4.6081144511   -2.2083552087
H       -1.2466088988   -4.2391481784    2.0810398171
H        1.3679813343    2.5491636651   -0.5029379422
H        2.1943809077    0.4044261424   -1.4852372133
H       -0.5398702007    2.3323281781    1.1322936843
H       -1.3446674413    1.9541302461   -0.3781033329
H       -1.6197676720   -2.0147150414    1.4400192435
H        0.0968187546   -2.5117126274    1.3768421976
H        0.9330784249   -1.5806990550   -1.0599865065
26   
torsion grid (150,)
C       -1.7875456353   -7.0194365281    0.1974112702
C       -1.5848797888   -6.4696458714   -1.0762148240
C       -1.7200999321   -6.1886753848    1.3163962860
C       -1.3162236056   -5.1107767273   -1.2252699194
C       -1.4513916664   -4.8197491952    1.1824575761
C       -1.2465300357   -4.2822634607   -0.0946785947
C        0.8345923146    1.5951030243   -0.4350290845
C        1.1423926753    0.4550884015   -1.0673521205
C       -0.4560908410   -0.7081564171    0.2671411757
C       -0.4050121444    1.6438400036    0.4318142729
C       -0.8381468486   -2.0800765945    0.7760575274
N       -0.8242639149    0.3212977219    0.9290053460
N        0.3476244705   -0.6872706343   -0.8679821810
O       -0.9764440350   -2.9580250208   -0.3432040435
H       -1.9972658196   -8.0791076399    0.3116210585
H       -1.6374385324   -7.1030860725   -1.9579846808
H       -1.8789865609   -6.6000521299    2.3099176507
H       -1.1615682106   -4.6696672904   -2.2059064492
H       -1.4120694223   -4.1957196946    2.0679321063
H        1.4666760390    2.4709658707   -0.5428604165
H        1.9997588898    0.3328055638   -1.7214337150
H       -0.2486724800    2.2974991727    1.2977103386
H       -1.2509289851    2.0802072185   -0.1234898242
H       -1.7720042454   -1.9973588469    1.3382514217
H       -0.0485845610   -2.4499345854    1.4450573859
H        0.6452932249   -1.5804561797   -1.2371715132
26   
torsion grid (165,)
C       -1.7611616875   -7.0208607457    0.2117934525
C       -1.4340032399   -6.4995385821   -1.0477276693
C       -1.8082230296   -6.1640345784    1.3120535673
C       -1.1563893787   -5.1430449975   -1.2018362629
C       -1.5321512214   -4.7971171078    1.1736812174
C       -1.2031413589   -4.2890890785   -0.0893460899
C        0.8489466911    1.5745655248   -0.4654758022
C        1.0027791167    0.4594501532   -1.1915364848
C       -0.4845525586   -0.6896867406    0.2716616283
C       -0.2649226324    1.6400165625    0.5568743275
C       -0.9048721239   -2.0612880463    0.7629097464
N       -0.6932406166    0.3138363894    1.0344929056
N        0.1682547225   -0.6473636906   -0.9545374054
O       -0.9141649511   -2.9692731793   -0.3394896608
H       -1.9774157195   -8.0788139871    0.3295071976
H       -1.3957990618   -7.1536133994   -1.9150095415
H       -2.0632815581   -6.5533235795    2.2943397567
H       -0.9053777256   -4.7248641458   -2.1725975850
H       -1.5811451369   -4.1527087163    2.0439108210
H        1.5186446814    2.4172703296   -0.6059649859
H        1.7643535378    0.3282322032   -1.9535438159
H        0.0406034168    2.2326166068    1.4269398353
H       -1.1461236303    2.1536304085    0.1393696572
H       -1.8954948368   -1.9863510044    1.2205205525
H       -0.1892142126   -2.3982753738    1.5236816546
H        0.3781043433   -1.5375031276   -1.3867859954
26   
torsion grid (180,)
C       -1.7772631583   -7.0263739106    0.2096380160
C       -1.2879385225   -6.5342433590   -1.0082850514
C       -1.9419763657   -6.1473705451    1.2806386921
C       -0.9685051935   -5.1855035819   -1.1495679231
C       -1.6251430654   -4.7881851306    1.1539220143
C       -1.1356998731   -4.3082209612   -0.0673484053
C        0.8169748587    1.5693888321   -0.5203987955
C        0.8191044041    0.4897588309   -1.3130384279
C       -0.4649506896   -0.6950138236    0.3032207162
C       -0.1208791045    1.6089066143    0.6665624349
C       -0.9238269102   -2.0645998655    0.7706984315
N       -0.5123112916    0.2701605767    1.1391479907
N       -0.0084691945   -0.6059878267   -1.0059515597
O       -0.7940725505   -2.9980647787   -0.3016497001
H       -2.0257486674   -8.0782289784    0.3180107335
H       -1.1544910311   -7.2052950446   -1.8528714010
H       -2.3214558172   -6.5133465342    2.2311753149
H       -0.5898077273   -4.7918876094   -2.0886461885
H       -1.7644797955   -4.1277544124    2.0019646400
H        1.4847318234    2.4007716414   -0.7239250635
H        1.4510046426    0.3782491337   -2.1883021090
H        0.3378359667    2.1452792287    1.5052590026
H       -1.0378819137    2.1683576177    0.4191983644
H       -1.9674306647   -1.9984974894    1.0961779106
H       -0.3090965132   -2.3665574872    1.6257609917
H        0.1314383482   -1.4840677979   -1.4889247091
