18   
torsion grid (-165,)
C       -0.7444716617    1.1229268073    1.9894158882
C        0.6292266333   -2.6463703876    2.7092500314
C        0.8353684072    1.2022457675    0.0897562517
C        1.6575338811    1.4667950893    2.4881991562
C        0.6317086345    0.7863753203    1.5572406999
N       -1.8216465772    1.4299142601    2.3001019612
N        0.1255997885   -1.3137185593    2.3343292272
N        0.9384068291   -0.6644861501    1.6595446256
N       -0.4088578704   -3.5278047410    2.7454607304
O        1.7867451240   -2.8739319807    2.9988400955
H        1.8469724735    0.9295694362   -0.2213521552
H        0.1171447462    0.6951050674   -0.5592902543
H        0.7036304488    2.2813132024   -0.0177552089
H        2.6658504545    1.1667148541    2.1928054452
H        1.4895755726    1.1719691648    3.5263415534
H        1.5629970768    2.5521911401    2.4035597421
H       -0.2436215190   -4.4393679417    3.1515436029
H       -1.3559632744   -3.1738965230    2.7087096333
18   
torsion grid (-150,)
C       -0.7585307799    1.2149560764    1.9826989683
C        0.5600223954   -2.5196889703    2.8650583072
C        0.8055409698    1.2883719459    0.0703173893
C        1.6717267576    1.2976847733    2.4693167713
C        0.5772567228    0.7907125064    1.5062555570
N       -1.8097341050    1.5779993686    2.3209856352
N        0.0097948475   -1.2883287969    2.3135673763
N        0.7584264959   -0.6895870273    1.5245607638
N       -0.2771900571   -3.5845575429    2.7152882387
O        1.6130991607   -2.5009372705    3.4737722061
H        1.7782661649    0.9326795213   -0.2792111896
H        0.0294614022    0.9100898788   -0.5997182075
H        0.7910684781    2.3802018045    0.0400283576
H        2.6448313515    0.9290909805    2.1360423838
H        1.4871891006    0.9390632577    3.4837247890
H        1.6757743369    2.3906351278    2.4637382448
H       -0.1022332942   -4.3957785909    3.2953074706
H       -1.2302954100   -3.4141342538    2.4201108681
18   
torsion grid (-135,)
C       -0.7612181556    1.2166009026    1.9804568463
C        0.5361658259   -2.4382422869    2.8979845355
C        0.8282716157    1.3926566885    0.0934547524
C        1.6659130226    1.1586351702    2.4920869366
C        0.5627548705    0.7850770817    1.4785983714
N       -1.8036563392    1.5823386338    2.3423304242
N       -0.0425303656   -1.3359059153    2.1614914078
N        0.6967193678   -0.7007928672    1.3897056537
N       -0.2036129875   -3.5825411302    2.8559467827
O        1.5270370152   -2.2383104658    3.5778195444
H        1.7846450127    1.0181215614   -0.2809062089
H        0.0397562000    1.1150635895   -0.6104217023
H        0.8712638817    2.4822953041    0.1571829690
H        2.6304493932    0.7998377064    2.1257161221
H        1.4689976147    0.7049324432    3.4646106238
H        1.6952853949    2.2470212205    2.5915693940
H       -0.0379922068   -4.2632389263    3.5871080114
H       -1.1349957646   -3.5390651722    2.4618713012
18   
torsion grid (-120,)
C       -2.2935521713    1.4731636307    3.7706117290
C       -3.8412630541   -1.8182242012    2.6245487970
C       -0.0204971064    1.0505119755    2.8849641021
C       -1.0453147692   -0.4868483684    4.6467266392
C       -1.3119798247    0.4220669199    3.4259351093
N       -3.0432959611    2.3226875484    4.0306531983
N       -3.0799593902   -0.6464637665    2.3761423232
N       -1.8416618291   -0.5626783504    2.4263231814
N       -4.9287203689   -1.9733341782    1.8067432357
O       -3.5659589494   -2.5087298000    3.5942797065
H        0.6558688521    0.2524236473    2.5674723235
H       -0.2308682869    1.6975200672    2.0298032320
H        0.4682328902    1.6447028637    3.6604943949
H       -0.3192107888   -1.2555304358    4.3731631180
H       -1.9626452160   -0.9712426749    4.9841654636
H       -0.6358847918    0.1315538008    5.4504137213
H       -5.6832840743   -2.5315904577    2.1877251579
H       -5.2023631438   -1.1772322389    1.2435096894
18   
torsion grid (-105,)
C       -0.5708915228    0.6323185765    2.1172327736
C        0.4418279170   -2.5918889016    2.8930981893
C        0.7304227584    1.3354477392    0.1301371892
C        1.8182756593    1.2348618947    2.4416383378
C        0.7618175831    0.6398345634    1.4948677397
N       -1.6347268949    0.5498405486    2.5804114923
N        0.7136103873   -1.6546756372    1.9472437225
N        1.2317579643   -0.8087965199    1.2398612421
N       -0.6857622838   -3.3552131242    2.6269499986
O        1.1893560946   -2.7276889863    3.8597765231
H        1.7179830100    1.2571505912   -0.3318560484
H       -0.0039363625    0.8679452907   -0.5307025833
H        0.4741881992    2.3913070200    0.2469940884
H        2.8060620222    1.1349482406    1.9831451662
H        1.8179726679    0.7110533438    3.4004920619
H        1.6128322990    2.2949477550    2.6119558606
H       -0.9894063310   -3.8588512392    3.4532536329
H       -1.4394457428   -2.8722757847    2.1484062553
18   
torsion grid (-90,)
C       -0.5702115448    0.5738026058    2.1156459372
C        0.4282355470   -2.5927644156    2.8915952586
C        0.7232776410    1.3239991043    0.1406763825
C        1.8063913192    1.2203362128    2.4544241976
C        0.7640270201    0.6166519645    1.4989974057
N       -1.6329742561    0.4458434421    2.5712995825
N        0.7624520419   -1.6871936467    1.9350108070
N        1.2523664361   -0.8281385191    1.2252128772
N       -0.7411090291   -3.2913816680    2.6209661392
O        1.1676147132   -2.7723318090    3.8572476113
H        1.7125600142    1.2645193854   -0.3204443861
H       -0.0026683568    0.8509241869   -0.5254130481
H        0.4509349199    2.3748033276    0.2665539866
H        2.7976113439    1.1383904898    1.9995789689
H        1.8105091407    0.6894956959    3.4094991158
H        1.5856740138    2.2760568465    2.6326600676
H       -1.0457514208   -3.8118077009    3.4367727200
H       -1.4835041159   -2.7455420616    2.1943467845
18   
torsion grid (-75,)
C       -0.5509178019    0.5554014827    2.1361280880
C        0.4277520579   -2.5487822307    2.9030128268
C        0.7190214190    1.3275903206    0.1542847533
C        1.8202025262    1.2289203978    2.4599503886
C        0.7775243702    0.6156458131    1.5098649149
N       -1.6065521910    0.4054355120    2.6017107009
N        0.7746483206   -1.7045298520    1.8915811705
N        1.2843390874   -0.8207440669    1.2257581260
N       -0.7340548890   -3.2692578681    2.6693688647
O        1.1718778709   -2.6760545700    3.8732241632
H        1.7063419802    1.2835231336   -0.3126793863
H       -0.0041411728    0.8469985121   -0.5094962775
H        0.4329076738    2.3740740171    0.2860738806
H        2.8083764034    1.1611364618    1.9964120234
H        1.8388197377    0.6945714171    3.4128397657
H        1.5878174564    2.2811785099    2.6441641314
H       -1.0387993648   -3.7490702187    3.5093801235
H       -1.4780031815   -2.7557777187    2.2071001069
18   
torsion grid (-60,)
C       -0.5091728207   -0.2282771250    1.7134318151
C       -0.1756147213   -1.7993445505    4.1395534267
C        1.4235793184   -0.6527103364    0.2423998718
C        1.5392603359    1.1370808267    2.0596113093
C        0.9625767183   -0.2290663198    1.6490666835
N       -1.6673320018   -0.3167471534    1.7776755163
N        0.8506472073   -2.0766355927    3.1737872767
N        1.5779951500   -1.2848591794    2.5607592084
N       -1.1562402299   -2.7534773397    4.2058991328
O        0.0124680365   -0.9062603256    4.9512683023
H        2.5149857382   -0.6871094254    0.2208951104
H        1.0330880028   -1.6392607233   -0.0178507821
H        1.0676113431    0.0757569385   -0.4912412451
H        2.6300316753    1.0645030744    2.0858817443
H        1.1796355268    1.4225707382    3.0502765913
H        1.2527000547    1.9056231478    1.3371237902
H       -1.9259043978   -2.5109182767    4.8176902887
H       -1.4149063975   -3.2125115282    3.3404355211
18   
torsion grid (-45,)
C       -0.5242974953   -0.3236636621    1.6628712079
C       -0.1584061199   -1.6997869776    4.0450946426
C        1.4247851016   -0.5839129148    0.1933381439
C        1.4978300188    1.0344353240    2.1650182536
C        0.9494655126   -0.3028490204    1.6315218366
N       -1.6845501471   -0.4064390576    1.6576549417
N        0.8926854895   -2.1748118435    3.1516898861
N        1.5767854193   -1.4258158134    2.4404551531
N       -1.1405792423   -2.6205535786    4.2538450703
O        0.0106889033   -0.6724047669    4.6832903516
H        2.5167121120   -0.5776106981    0.1727233424
H        1.0709578075   -1.5579449895   -0.1527497509
H        1.0425271010    0.1909246714   -0.4764836848
H        2.5892887336    0.9756601106    2.2037696892
H        1.1154328217    1.2279598646    3.1681213154
H        1.2125195821    1.8522195154    1.4979289874
H       -1.9395839509   -2.2988766385    4.7853300461
H       -1.3123527873   -3.3154351333    3.5379004390
18   
torsion grid (-30,)
C       -0.5338611168   -0.3732035411    1.6643526104
C       -0.1364330696   -1.6428265253    4.0459160554
C        1.4040621756   -0.5640885801    0.1831138246
C        1.4892957051    0.9778542279    2.2090459859
C        0.9400158705   -0.3437114075    1.6363325689
N       -1.6935627383   -0.4592320945    1.6342434866
N        0.9664931617   -2.1651838333    3.2362463711
N        1.5804794070   -1.4874954914    2.4018638761
N       -1.1230991180   -2.5582480350    4.2461706203
O       -0.0148681209   -0.5771176557    4.6292725609
H        2.4959460080   -0.5529225117    0.1548822987
H        1.0522809686   -1.5258499943   -0.1979842765
H        1.0148232761    0.2330494337   -0.4553325913
H        2.5812674863    0.9209272269    2.2352644857
H        1.1143267966    1.1413890520    3.2193568358
H        1.1966201722    1.8114551682    1.5649633039
H       -1.9637420337   -2.2133951245    4.6926736108
H       -1.2300722707   -3.3111298687    3.5777030760
18   
torsion grid (-15,)
C       -0.5463930950   -0.3921057141    1.6695887867
C       -0.1256522951   -1.5979286263    4.0675955454
C        1.3866043456   -0.5459576543    0.1845317277
C        1.4875087694    0.9369770200    2.2497724791
C        0.9275932825   -0.3660299978    1.6447353439
N       -1.7062857315   -0.4720871962    1.6293954285
N        1.0311572134   -2.1170529727    3.3317857207
N        1.5677797052   -1.5269296045    2.3858038555
N       -1.1030147614   -2.5313514054    4.2225840724
O       -0.0691009460   -0.5153803374    4.6290709019
H        2.4786504268   -0.5384708194    0.1542572380
H        1.0310715856   -1.4958647454   -0.2221745112
H        1.0003384201    0.2687331187   -0.4328568041
H        2.5786319427    0.8669319903    2.2806497968
H        1.1077358686    1.0873686154    3.2598009627
H        1.2086286641    1.7837913601    1.6168392706
H       -1.9839945102   -2.1921057362    4.5891916801
H       -1.1410422568   -3.3091847059    3.5754179482
18   
torsion grid (0,)
C       -0.5632660817   -0.3917584984    1.6606440714
C       -0.1165527962   -1.5464389847    4.0915426017
C        1.3633968675   -0.5477897655    0.1708027630
C        1.4948624629    0.8974071487    2.2596884808
C        0.9113007052   -0.3855110008    1.6344969036
N       -1.7238947772   -0.4577879863    1.6151419435
N        1.0849118625   -2.0442778394    3.4120111466
N        1.5370608163   -1.5626160127    2.3654760349
N       -1.0702613554   -2.5101982711    4.2009830594
O       -0.1302262957   -0.4546810969    4.6369737691
H        2.4555030441   -0.5587684614    0.1381688249
H        0.9910556889   -1.4847169372   -0.2507144512
H        0.9909567390    0.2827749709   -0.4335120235
H        2.5848163310    0.8096664608    2.2838855938
H        1.1207712557    1.0401396087    3.2728621806
H        1.2262440079    1.7566415890    1.6392073094
H       -1.9838351049   -2.1947805482    4.5040465840
H       -1.0384521071   -3.3061010045    3.5759716831
18   
torsion grid (15,)
C        0.4465193413   -0.3487414726    0.8707365764
C       -0.7157829754   -1.2844427849    3.1409726339
C        2.5399856931   -0.3282587987    2.2336918187
C        1.5776909738    1.7897877314    1.2030613571
C        1.2532393493    0.4219294703    1.8349329167
N       -0.2284400513   -0.8809631689    0.0868195269
N       -0.4176828417    0.0849618198    3.5716028919
N        0.5087652710    0.7650345717    3.1128499702
N       -2.0361951770   -1.4663147004    2.8704835746
O        0.1270965244   -2.1625322312    3.2355738550
H        3.0590466896    0.2522652697    3.0017499444
H        2.3037063762   -1.3164291378    2.6270491357
H        3.1942448258   -0.4209231019    1.3625905763
H        2.1673032494    2.3753351268    1.9122995539
H        0.6622258257    2.3392066554    0.9702804733
H        2.1495457884    1.6509781810    0.2823127575
H       -2.2815873770   -2.3443498116    2.4296860708
H       -2.6043604264   -0.6593510515    2.6443834117
18   
torsion grid (30,)
C        0.4689722545   -0.3510928577    0.8743548066
C       -0.7603919978   -1.2558926613    3.1350377858
C        2.5804871880   -0.3265465571    2.2000526911
C        1.5762228836    1.8020034509    1.2254703739
C        1.2805929308    0.4176963406    1.8357615364
N       -0.2137053241   -0.8874646283    0.1000993614
N       -0.4778938544    0.1390343909    3.4815285724
N        0.5465586402    0.7360467993    3.1255412903
N       -2.0778798219   -1.4809007715    2.8800422870
O        0.0970262651   -2.1104432640    3.2940797866
H        3.1093921169    0.2472380658    2.9664304486
H        2.3557877829   -1.3203679976    2.5871948730
H        3.2212175527   -0.4080826044    1.3178796159
H        2.1683706089    2.3827493118    1.9362440895
H        0.6500465171    2.3422707656    1.0150919472
H        2.1364775781    1.6847062819    0.2943899252
H       -2.3073177654   -2.3966822972    2.5144587653
H       -2.6546008328   -0.7046235439    2.5802295483
18   
torsion grid (45,)
C        0.5137158161   -0.3689350215    0.8665871473
C       -0.8185929150   -1.2438498970    3.1388330272
C        2.6372668969   -0.3167880247    2.1607187055
C        1.5655101466    1.8144802237    1.2550536802
C        1.3178144231    0.4063646088    1.8289138114
N       -0.1710905086   -0.9249186000    0.1082941862
N       -0.5140078076    0.1627660578    3.3793464890
N        0.5862374815    0.6762733763    3.1329379679
N       -2.1402290477   -1.4714281476    2.8975113106
O        0.0247464619   -2.0942325842    3.3773256939
H        3.1639516783    0.2506783346    2.9332604040
H        2.4354015761   -1.3223845227    2.5319564733
H        3.2705276916   -0.3724783217    1.2713198392
H        2.1474351861    2.3938788114    1.9750900597
H        0.6220775148    2.3320654328    1.0659801864
H        2.1207520181    1.7348719637    0.3166900297
H       -2.3807327439   -2.4154640838    2.6230063401
H       -2.6955081686   -0.7216871987    2.5042759417
18   
torsion grid (60,)
C        0.5937225829   -0.4414177149    0.8810437451
C       -0.9263544123   -1.2698196729    3.2196084555
C        2.7619876990   -0.2703520234    2.0849820166
C        1.5042950580    1.8103541348    1.3053350627
C        1.3853570855    0.3659814963    1.8252928147
N       -0.1055430036   -1.0448011342    0.1737647207
N       -0.4562288578    0.0823963281    3.3349292162
N        0.6874530174    0.5262246691    3.1713485895
N       -2.2516642648   -1.3769249722    2.8902321775
O       -0.2142814417   -2.1726499755    3.6315576497
H        3.2769347166    0.3088424216    2.8564107515
H        2.6489535280   -1.2995976849    2.4315786335
H        3.3652328298   -0.2614382585    1.1735117599
H        2.0590100111    2.4061617960    2.0334267475
H        0.5181376560    2.2573608604    1.1598211219
H        2.0391418648    1.8101985781    0.3516334194
H       -2.5573513404   -2.3266866386    2.7169826756
H       -2.6315917919   -0.6755724229    2.2654054866
18   
torsion grid (75,)
C       -0.5970588261    0.5169541691    1.9800623010
C        0.2128598074   -2.7228306324    2.1476775959
C        1.1792097582    0.7251931793    0.2531351570
C        1.4037835347    1.8707863569    2.5281094283
C        0.8471353272    0.6712631194    1.7540456901
N       -1.7162522309    0.3145338787    2.2251146591
N        0.9244515498   -1.5886019729    2.3993100010
N        1.5937623552   -0.5766463891    2.2890549720
N       -0.5725918440   -3.1485902554    3.2084389226
O        0.3671621529   -3.3154797625    1.0817679486
H        2.2656249269    0.7368063278    0.1285481243
H        0.7727293280   -0.1461584713   -0.2658962712
H        0.7629047330    1.6330403869   -0.1914862667
H        2.4884142210    1.9054537907    2.3970482641
H        1.1824594166    1.7852030134    3.5949881451
H        0.9690172372    2.8006489295    2.1530313720
H       -1.2037195372   -3.8879408054    2.9190508047
H       -1.0315742825   -2.4102116237    3.7327808286
18   
torsion grid (90,)
C       -0.6040970381    0.5456887718    1.9989797803
C        0.2208056073   -2.7580572502    2.1693739007
C        1.1734376848    0.7216470920    0.2697277955
C        1.4175992722    1.8706476085    2.5407524713
C        0.8424989604    0.6777654825    1.7705236262
N       -1.7273024113    0.3694515866    2.2455823401
N        0.8875513705   -1.5900186237    2.3641100245
N        1.5669091728   -0.5814197598    2.3096107511
N       -0.5564752438   -3.1493717110    3.2516669045
O        0.3799046590   -3.3939451287    1.1292994457
H        2.2597356506    0.7151492094    0.1431259388
H        0.7520683251   -0.1447109682   -0.2458818456
H        0.7711393147    1.6346261488   -0.1771064177
H        2.5028230380    1.8873976749    2.4108874972
H        1.1936205613    1.7925602518    3.6076193296
H        0.9985319272    2.8061464825    2.1620276803
H       -1.1712871821   -3.9143157877    2.9946614197
H       -1.0354417845   -2.3965334276    3.7363494089
18   
torsion grid (105,)
C       -0.6139128700    0.6024318443    1.9759140468
C        0.2377593973   -2.7549768552    2.1464485728
C        1.1848010253    0.7462395089    0.2671603426
C        1.4247438088    1.8915691350    2.5403054232
C        0.8382790731    0.7069968777    1.7656000237
N       -1.7466797169    0.4624223171    2.2002523495
N        0.8378853823   -1.5545845355    2.3587813152
N        1.5393656745   -0.5600967068    2.2998554357
N       -0.5026017249   -3.2166996823    3.2255103420
O        0.4033115964   -3.3481986487    1.0822099192
H        2.2719932534    0.7254902585    0.1508929535
H        0.7563686568   -0.1143403337   -0.2520792405
H        0.7983779894    1.6649945044   -0.1817811890
H        2.5110414708    1.8934953311    2.4186268981
H        1.1912982420    1.8167874146    3.6054064422
H        1.0215090855    2.8327499933    2.1586173835
H       -1.1190067929   -3.9727925558    2.9478074079
H       -0.9651650693   -2.5012111730    3.7773543267
18   
torsion grid (120,)
C       -9.4692537034   -0.2203269492    1.0793095811
C       -7.7256482602   -2.2222446715   -1.6575506814
C       -9.8941539433   -2.6567044257    1.3059504658
C      -11.7591039410   -1.0487636821    0.6319835825
C      -10.2574334368   -1.3562902789    0.5547220651
N       -8.8789996169    0.6900815179    1.4966459497
N       -8.7597061145   -1.3580061496   -1.2136225515
N       -9.8956147111   -1.7122836020   -0.8566732476
N       -6.9690211459   -1.7222163120   -2.6838157625
O       -7.5033911131   -3.2498082616   -1.0346549555
H      -10.4877121753   -3.4823294726    0.9072729903
H       -8.8357536236   -2.8947175836    1.1912839856
H      -10.1295739047   -2.5170055432    2.3647735853
H      -12.3133078104   -1.8715201159    0.1725373991
H      -11.9945502606   -0.1230814514    0.1010704765
H      -12.0738473671   -0.9440062452    1.6728191336
H       -6.0290878612   -2.0939174915   -2.7513071860
H       -7.0769926829   -0.7391542831   -2.9025645268
18   
torsion grid (135,)
C       -0.7731231964    1.2061184410    1.9410563250
C        0.2916030591   -2.6329101985    2.0467140622
C        1.0417304581    0.6676078374    0.3371851748
C        1.5230283614    1.9396496701    2.4959131967
C        0.6615842748    0.8624061655    1.8208309759
N       -1.8888220518    1.5137019759    2.0506091698
N        0.0450820925   -1.2688595708    2.4602926432
N        0.9944844187   -0.4674962977    2.4159733682
N       -0.1840174708   -3.5702741922    2.9148128474
O        0.7663692019   -2.8385940705    0.9438699507
H        2.0925098971    0.3771460254    0.2679907098
H        0.4311212604   -0.1121592962   -0.1205738455
H        0.8890483268    1.6132210153   -0.1899269204
H        2.5727588888    1.6390376810    2.4432755742
H        1.2420682308    2.0610311114    3.5450005723
H        1.4000349456    2.8991742915    1.9885604517
H       -0.3360896314   -4.5013323446    2.5468706509
H       -0.7821436064   -3.2649781769    3.6722421537
18   
torsion grid (150,)
C       -0.7717867275    1.2034079294    1.9386209298
C        0.3382068780   -2.6964702707    2.0922453596
C        1.0420756033    0.8024065209    0.2957875839
C        1.5276118571    1.8567910348    2.5669301147
C        0.6591876067    0.8547422615    1.7901197141
N       -1.8826243944    1.5189968327    2.0717006615
N        0.0065993575   -1.2927175676    2.2987785748
N        0.9770232483   -0.5185781407    2.2773773323
N       -0.1747983399   -3.5071633971    3.0601818125
O        0.9233689698   -3.0454254414    1.0844406906
H        2.0844313552    0.4887659612    0.2009732503
H        0.4095731255    0.0907966707   -0.2382904214
H        0.9208336270    1.7972567253   -0.1402875744
H        2.5764238826    1.5614408687    2.4795039055
H        1.2517475307    1.8716628835    3.6242958094
H        1.4033076862    2.8626805846    2.1595555336
H       -0.2266391075   -4.4972460725    2.8548516480
H       -0.8566334605   -3.1236978673    3.7025512426
18   
torsion grid (165,)
C       -0.7525049063    1.1155638625    1.9631494636
C        0.4913225520   -2.7570087047    2.2261199624
C        1.0007147767    0.9501104946    0.2208965276
C        1.5531451054    1.7673420758    2.5715214225
C        0.6801171194    0.8240981030    1.7253527989
N       -1.8648474926    1.3944324975    2.1528839797
N        0.0975892842   -1.3374589355    2.2338390990
N        1.0586467877   -0.5706724502    2.0729161635
N       -0.3086256467   -3.4524747189    3.0818812267
O        1.3565303349   -3.2137639426    1.5062205462
H        2.0459430715    0.6799850998    0.0519727680
H        0.3631995154    0.2846003959   -0.3652260158
H        0.8361023507    1.9810866333   -0.1018634254
H        2.6058197746    1.5273353975    2.4019550245
H        1.3307511409    1.6502292267    3.6350665271
H        1.3699220406    2.8061626175    2.2876527518
H       -0.2684608454   -4.4627940426    3.0535425469
H       -1.1387159787   -3.0069160719    3.4507213207
18   
torsion grid (180,)
C       -0.7304176422    1.0595540175    1.9830989376
C        0.6383024142   -2.7519736569    2.4919392749
C        0.9275596589    1.0740878145    0.1463871964
C        1.6103804881    1.6389932924    2.5353594268
C        0.6860407234    0.7879859359    1.6420678075
N       -1.8330253171    1.3249792262    2.2377566033
N        0.1766411440   -1.3510533731    2.2928465349
N        1.0834409089   -0.6241559019    1.8621634684
N       -0.4200471183   -3.4599687120    2.9655428986
O        1.7535035002   -3.1746534477    2.2685311945
H        1.9668238492    0.8421997754   -0.0990589427
H        0.2710202695    0.4599829786   -0.4746556169
H        0.7315081316    2.1276730583   -0.0663041412
H        2.6513612271    1.4078024040    2.2965482128
H        1.4322876503    1.4230679125    3.5915309677
H        1.4251983580    2.7007023055    2.3556920098
H       -0.3090207619   -4.4443630535    3.1658550099
H       -1.3095241008   -3.0023401298    3.1139830892
