
  -OEChem-05262117483D

 45 49  0     0  0  0  0  0  0999 V2000
   -2.5462    5.4484    1.1682 C   0  0  0  0  0  0  0  0  0  0  0  0
   -1.2905    5.6731    1.7642 C   0  0  0  0  0  0  0  0  0  0  0  0
   -2.8161    4.2607    0.4895 C   0  0  0  0  0  0  0  0  0  0  0  0
   -0.2643    4.7284    1.7059 C   0  0  0  0  0  0  0  0  0  0  0  0
   -0.5338    3.5258    1.0202 C   0  0  0  0  0  0  0  0  0  0  0  0
   -1.7964    3.3060    0.4239 C   0  0  0  0  0  0  0  0  0  0  0  0
   -0.1626    1.5106    0.1905 C   0  0  0  0  0  0  0  0  0  0  0  0
    0.1250   -0.7442   -0.7851 C   0  0  0  0  0  0  0  0  0  0  0  0
    3.8106   -3.0677   -0.4534 C   0  0  0  0  0  0  0  0  0  0  0  0
    1.9068   -4.7103   -0.5201 C   0  0  0  0  0  0  0  0  0  0  0  0
    2.7516   -3.6766   -2.6522 C   0  0  0  0  0  0  0  0  0  0  0  0
    1.5599   -2.4193    0.4592 C   0  0  0  0  0  0  0  0  0  0  0  0
    2.4081   -1.3814   -1.6814 C   0  0  0  0  0  0  0  0  0  0  0  0
    0.5013   -3.0228   -1.7429 C   0  0  0  0  0  0  0  0  0  0  0  0
    2.5615   -3.5770    0.2902 C   0  0  0  0  0  0  0  0  0  0  0  0
    3.4071   -2.5423   -1.8440 C   0  0  0  0  0  0  0  0  0  0  0  0
    1.5016   -4.1795   -1.9073 C   0  0  0  0  0  0  0  0  0  0  0  0
    1.1412   -1.8756   -0.9332 C   0  0  0  0  0  0  0  0  0  0  0  0
    1.0842    4.9563    2.3394 C   0  0  0  0  0  0  0  0  0  0  0  0
    0.3738    2.4831    0.8685 N   0  0  0  0  0  0  0  0  0  0  0  0
    0.5666    0.3629   -0.0813 N   0  0  0  0  0  0  0  0  0  0  0  0
   -1.0123   -0.7813   -1.2444 O   0  0  0  0  0  0  0  0  0  0  0  0
   -1.8299    1.7258   -0.3525 S   0  0  0  0  0  0  0  0  0  0  0  0
   -3.3163    6.2120    1.2384 H   0  0  0  0  0  0  0  0  0  0  0  0
   -1.1137    6.6108    2.2860 H   0  0  0  0  0  0  0  0  0  0  0  0
   -3.7850    4.0872    0.0297 H   0  0  0  0  0  0  0  0  0  0  0  0
    4.2972   -2.2717    0.1253 H   0  0  0  0  0  0  0  0  0  0  0  0
    4.5411   -3.8793   -0.5575 H   0  0  0  0  0  0  0  0  0  0  0  0
    1.0250   -5.0918    0.0098 H   0  0  0  0  0  0  0  0  0  0  0  0
    2.6073   -5.5484   -0.6244 H   0  0  0  0  0  0  0  0  0  0  0  0
    3.4661   -4.4976   -2.7918 H   0  0  0  0  0  0  0  0  0  0  0  0
    2.4756   -3.3167   -3.6514 H   0  0  0  0  0  0  0  0  0  0  0  0
    0.6699   -2.7602    1.0015 H   0  0  0  0  0  0  0  0  0  0  0  0
    2.0185   -1.6285    1.0664 H   0  0  0  0  0  0  0  0  0  0  0  0
    2.8914   -0.5617   -1.1346 H   0  0  0  0  0  0  0  0  0  0  0  0
    2.1220   -0.9833   -2.6623 H   0  0  0  0  0  0  0  0  0  0  0  0
    0.1840   -2.6461   -2.7205 H   0  0  0  0  0  0  0  0  0  0  0  0
   -0.4050   -3.3664   -1.2344 H   0  0  0  0  0  0  0  0  0  0  0  0
    2.8467   -3.9463    1.2824 H   0  0  0  0  0  0  0  0  0  0  0  0
    4.2947   -2.1744   -2.3722 H   0  0  0  0  0  0  0  0  0  0  0  0
    1.0266   -4.9814   -2.4843 H   0  0  0  0  0  0  0  0  0  0  0  0
    1.3034    4.1829    3.0830 H   0  0  0  0  0  0  0  0  0  0  0  0
    1.8819    4.9081    1.5906 H   0  0  0  0  0  0  0  0  0  0  0  0
    1.1273    5.9324    2.8302 H   0  0  0  0  0  0  0  0  0  0  0  0
    1.5072    0.3835    0.2947 H   0  0  0  0  0  0  0  0  0  0  0  0
  1  2  1  0  0  0  0
  1  3  2  0  0  0  0
  1 24  1  0  0  0  0
  2  4  2  0  0  0  0
  2 25  1  0  0  0  0
  3  6  1  0  0  0  0
  3 26  1  0  0  0  0
  4  5  1  0  0  0  0
  4 19  1  0  0  0  0
  5  6  2  0  0  0  0
  5 20  1  0  0  0  0
  6 23  1  0  0  0  0
  7 20  2  0  0  0  0
  7 21  1  0  0  0  0
  7 23  1  0  0  0  0
  8 18  1  0  0  0  0
  8 21  1  0  0  0  0
  8 22  2  0  0  0  0
  9 15  1  0  0  0  0
  9 16  1  0  0  0  0
  9 27  1  0  0  0  0
  9 28  1  0  0  0  0
 10 15  1  0  0  0  0
 10 17  1  0  0  0  0
 10 29  1  0  0  0  0
 10 30  1  0  0  0  0
 11 16  1  0  0  0  0
 11 17  1  0  0  0  0
 11 31  1  0  0  0  0
 11 32  1  0  0  0  0
 12 15  1  0  0  0  0
 12 18  1  0  0  0  0
 12 33  1  0  0  0  0
 12 34  1  0  0  0  0
 13 16  1  0  0  0  0
 13 18  1  0  0  0  0
 13 35  1  0  0  0  0
 13 36  1  0  0  0  0
 14 17  1  0  0  0  0
 14 18  1  0  0  0  0
 14 37  1  0  0  0  0
 14 38  1  0  0  0  0
 15 39  1  0  0  0  0
 16 40  1  0  0  0  0
 17 41  1  0  0  0  0
 19 42  1  0  0  0  0
 19 43  1  0  0  0  0
 19 44  1  0  0  0  0
 21 45  1  0  0  0  0
M  END
$$$$
