
  -OEChem-05262117483D

 27 27  0     0  0  0  0  0  0999 V2000
    1.8660   -1.6643   -0.0505 C   0  0  0  0  0  0  0  0  0  0  0  0
    0.7868   -1.0125    0.5432 C   0  0  0  0  0  0  0  0  0  0  0  0
    2.8752   -1.9294    2.1315 C   0  0  0  0  0  0  0  0  0  0  0  0
    2.9304   -2.1239    0.7414 C   0  0  0  0  0  0  0  0  0  0  0  0
    1.8041   -1.2820    2.7498 C   0  0  0  0  0  0  0  0  0  0  0  0
    0.7585   -0.8110    1.9274 C   0  0  0  0  0  0  0  0  0  0  0  0
    4.1164   -2.8293    0.1648 C   0  0  0  0  0  0  0  0  0  0  0  0
    1.7550   -1.1210    4.2508 C   0  0  0  0  0  0  0  0  0  0  0  0
    4.1651   -3.0663   -1.3357 C   0  0  0  0  0  0  0  0  0  0  0  0
   -0.1405    2.1126    1.6467 C   0  0  0  0  0  0  0  0  0  0  0  0
   -0.1811    1.1826    2.8536 C   0  0  0  0  0  0  0  0  0  0  0  0
    5.0349   -3.2117    0.8833 O   0  0  0  0  0  0  0  0  0  0  0  0
   -0.3495   -0.2024    2.4809 O   0  0  0  0  0  0  0  0  0  0  0  0
    1.8703   -1.8092   -1.1262 H   0  0  0  0  0  0  0  0  0  0  0  0
   -0.0501   -0.6543   -0.0489 H   0  0  0  0  0  0  0  0  0  0  0  0
    3.6973   -2.3141    2.7288 H   0  0  0  0  0  0  0  0  0  0  0  0
    2.1937   -0.1677    4.5690 H   0  0  0  0  0  0  0  0  0  0  0  0
    0.7246   -1.1473    4.6142 H   0  0  0  0  0  0  0  0  0  0  0  0
    2.3200   -1.9180    4.7412 H   0  0  0  0  0  0  0  0  0  0  0  0
    4.1262   -2.1186   -1.8836 H   0  0  0  0  0  0  0  0  0  0  0  0
    3.3123   -3.6700   -1.6643 H   0  0  0  0  0  0  0  0  0  0  0  0
    5.0916   -3.5867   -1.5805 H   0  0  0  0  0  0  0  0  0  0  0  0
    0.7284    1.9068    1.0148 H   0  0  0  0  0  0  0  0  0  0  0  0
   -1.0457    2.0004    1.0421 H   0  0  0  0  0  0  0  0  0  0  0  0
   -0.0755    3.1532    1.9840 H   0  0  0  0  0  0  0  0  0  0  0  0
   -1.0437    1.4031    3.4874 H   0  0  0  0  0  0  0  0  0  0  0  0
    0.7246    1.2978    3.4601 H   0  0  0  0  0  0  0  0  0  0  0  0
  1  2  1  0  0  0  0
  1  4  2  0  0  0  0
  1 14  1  0  0  0  0
  2  6  2  0  0  0  0
  2 15  1  0  0  0  0
  3  4  1  0  0  0  0
  3  5  2  0  0  0  0
  3 16  1  0  0  0  0
  4  7  1  0  0  0  0
  5  6  1  0  0  0  0
  5  8  1  0  0  0  0
  6 13  1  0  0  0  0
  7  9  1  0  0  0  0
  7 12  2  0  0  0  0
  8 17  1  0  0  0  0
  8 18  1  0  0  0  0
  8 19  1  0  0  0  0
  9 20  1  0  0  0  0
  9 21  1  0  0  0  0
  9 22  1  0  0  0  0
 10 11  1  0  0  0  0
 10 23  1  0  0  0  0
 10 24  1  0  0  0  0
 10 25  1  0  0  0  0
 11 13  1  0  0  0  0
 11 26  1  0  0  0  0
 11 27  1  0  0  0  0
M  END
$$$$
