20
0 1 C10F2H5NOS
C                     1.756113462842    -1.346944446452    -0.121877793241
C                     0.989382045796    -0.294291311586     0.380045330551
C                     2.660235645936    -1.745470687823     2.103629428861
C                    -0.564813956700     0.339281555863     6.574101184631
C                    -1.495505291443    -0.356642674788     5.836119896648
C                     1.867392609151    -0.709904600422     2.622887143924
C                     2.580212536787    -2.052237812535     0.753479422662
C                     1.054780834719     0.004913029393     1.737228043669
C                     0.740587670957    -0.215308633626     4.881993599874
C                     1.991091840935    -0.389816227905     4.087768844350
N                     0.689332508267     0.402881544444     6.035644004888
O                     3.087832570757    -0.344620498826     4.621577964312
F                     3.331683440887    -3.068715049169     0.264494253038
F                     0.332050756745     1.057079972113     2.194776541492
S                    -0.781326214476    -0.945685994349     4.386185774932
H                     1.728489465217    -1.614966623410    -1.173266602039
H                     0.352474414693     0.300626774614    -0.266724925485
H                     3.326810157994    -2.298561734150     2.757435720342
H                    -0.763622051132     0.820062399055     7.525995258469
H                    -2.533895655827    -0.549091609637     6.073921085903
