38
0 1 C14H18N4OS
C                    -0.982105504601     2.185707264326    -6.914368306590
C                     0.960673388352    -0.998820794491    -1.391792447894
C                    -0.136061795694    -0.146137520289    -1.447852317402
C                     0.751302514620     1.587130859649    -5.662276171055
C                     0.099631061593     0.375381120282    -5.679295901886
C                     0.498792934755    -0.790412001971    -3.493967851241
C                     1.774079992246    -1.464857056643    -0.238389570812
C                    -1.000357667989     0.561750925544    -0.447825491006
C                    -0.044494876198    -0.816959531438     1.442041750542
C                    -0.467311288183     0.605069562513     0.997823052027
C                     2.039948751339     1.881031908335    -4.950031051581
C                    -1.621428946090     1.056745669702     1.910541189732
C                     0.702938342284     1.593220488112     1.119622585250
C                     0.494693779911    -0.907932481266    -4.992106926454
N                     0.124750357644     2.600824068519    -6.368845319892
N                     1.337433867242    -1.377325875393    -2.675933571472
N                    -0.414792894822    -0.031124457247    -2.797091530245
N                     1.286835471680    -1.235046459145     1.029874130321
O                     2.867018287471    -2.008170860780    -0.392620396154
S                    -1.366105926791     0.511018944486    -6.616023666906
H                    -1.632861523387     2.807813311421    -7.520006686978
H                    -1.173990040204     1.591377538516    -0.788091242396
H                    -1.986315349845     0.075729381137    -0.440940625615
H                    -0.044394083814    -0.849595657472     2.535228007624
H                    -0.804721043708    -1.536335065112     1.104856667785
H                     2.785341748252     2.257663723079    -5.657719881186
H                     1.887192584130     2.658550544610    -4.193964370408
H                     2.442491738787     0.996547025852    -4.453219186966
H                    -1.270590525078     1.210455218449     2.936656129816
H                    -2.425744391341     0.311855396431     1.936875915876
H                    -2.052721274127     2.001137254259     1.560778490738
H                     1.127568980126     1.570288879443     2.129055594776
H                     0.357776182957     2.614527556898     0.923350159842
H                     1.507059579499     1.363653455008     0.417218278024
H                    -0.175764199651    -1.719692433851    -5.296532928852
H                     1.500515160266    -1.214347724300    -5.292233882609
H                    -1.121320037572     0.568142386104    -3.207661739095
H                     1.909642911417    -1.593603162612     1.743107742241
