19
0 1 C8H7N3O
C                     1.741112945244     1.128895696186     0.168736017195
C                     1.254122424447     2.237831928675    -0.423006084972
C                    -0.915427212809     1.149729360636    -0.887791853750
C                     0.933523517633    -0.086937333292     0.267709073386
C                    -0.468303913503    -0.056359939446    -0.267123517636
C                    -0.104059571041     2.258902415802    -0.971375388884
C                    -0.830490333418    -2.229351895624     0.464502124501
C                     0.644145664073    -2.327396526274     0.849448646751
N                    -1.292211642260    -1.077876493614    -0.170554820436
N                     1.468040216319    -1.135924190856     0.792003920482
N                    -0.495742169926     3.415774419924    -1.599745872840
O                    -1.575939163819    -3.172287893595     0.701401537579
H                     2.746064384723     1.085052104840     0.577740311303
H                     1.863414709974     3.134515314257    -0.512340871493
H                    -1.928819568559     1.160963951572    -1.279456095477
H                     0.719398177167    -2.750608831606     1.857277455562
H                     1.115827691428    -3.077179889541     0.198275482861
H                    -1.475630289720     3.529171418099    -1.826813914193
H                    -0.000930531666     4.272662044106    -1.390771532760
