20
0 1 C7H9IN2O
C                     2.441337529205    -0.505495773769     5.071827563202
C                     1.724027575271     0.712537193544     5.002205500921
C                     1.465111310418     0.943725234030     3.649915703170
C                     0.832269940502    -0.924385918397     0.972879485145
C                     0.847465078894     2.096617904904     2.918016180077
C                     0.007264460080    -1.827391299447     1.858330888636
C                     2.118439611999    -0.331995912819     1.570821014755
N                     2.654035562315    -0.992253911686     3.848700360343
N                     2.063642380483    -0.102763282670     3.001530684043
O                     0.544226973499    -0.669743225195    -0.183692681878
I                     0.653064702538     1.660310913699     6.650387217860
H                     2.807317551751    -1.029930037893     5.944549137923
H                     1.613471861835     2.832233289204     2.646236813172
H                     0.346616745769     1.781136559767     1.998801376091
H                     0.113823509715     2.595678486909     3.552639458998
H                    -0.450927982907    -1.238549654614     2.661109190509
H                    -0.774482148648    -2.307988322352     1.269078178945
H                     0.643301827510    -2.571182291732     2.349532231251
H                     2.360837774267     0.588321357800     1.036284477215
H                     2.926046581835    -1.049390392229     1.399129204164
