42
0 1 C19FH17N4O
C                    -0.623593775905     3.684430773435   -11.431038423500
C                    -1.386772090779     4.722000992518   -10.885137990573
C                     0.049096759975     2.800383711009   -10.580168957105
C                     2.768993310463     0.700203829631    -1.069678358556
C                    -1.481678393646     4.882912145676    -9.501637331521
C                    -0.034827491197     2.946022344191    -9.194644793192
C                     1.747184295925    -0.011133761510    -0.446297153137
C                     0.171091183873     0.963914741645    -2.028708201868
C                     2.533785317087     1.549722079061    -2.159805632687
C                    -0.801616069965     3.990520831781    -8.665515578895
C                     1.214298569029     1.684370098460    -2.637828451883
C                     0.459798966789     0.141370480305    -0.954171991226
C                    -0.597604512520     3.821631273818    -5.195091567897
C                    -1.484498728259     4.920458448839    -5.372175482593
C                    -0.239548320734     3.197790530909    -3.890927362937
C                     3.706964567843     2.262594855624    -2.804102424480
C                     3.259944262298     3.311648109053    -3.820791252622
C                     2.106851784692     2.759501601713    -4.657103736589
C                    -2.175350123291     5.770905504816    -4.356682240399
N                    -0.248353353260     3.354857677307    -6.402669618101
N                    -1.642412029017     5.109113447675    -6.683813029753
N                    -0.892553893010     4.148436931886    -7.256090718796
N                     0.949487047794     2.495153496837    -3.784680718359
O                    -1.045461341400     3.308615727840    -2.964668950980
F                    -0.558489034883    -0.550414404494    -0.376443978001
H                    -0.554731305176     3.564816630964   -12.508652365841
H                    -1.913751030522     5.412743937972   -11.537657381287
H                     0.641934142550     1.989589565043   -10.994697490869
H                     3.787078928311     0.599878746834    -0.699796135633
H                    -2.070034169132     5.681386162452    -9.065240702988
H                     0.477526636185     2.264810959823    -8.525338573121
H                     1.929435911840    -0.662832641792     0.402124619945
H                    -0.850392540142     1.048168807805    -2.373109414949
H                     4.332215901400     2.719132947773    -2.029268499990
H                     4.336855885937     1.517477094362    -3.307862200659
H                     2.919601526207     4.221541123091    -3.313483385579
H                     4.091160468095     3.591705305104    -4.476437995982
H                     1.816693691086     3.462132862462    -5.430230482480
H                     2.399699955940     1.825851372597    -5.152020839867
H                    -1.465552723588     6.149916151042    -3.616301382479
H                    -2.668634847168     6.611297950370    -4.849608393798
H                    -2.915240513313     5.181668395270    -3.808882849760
