42
0 1 C19FH17N4O
C                    -0.138821846439     3.668645120901    11.530850347280
C                    -0.874204355724     4.746702069236    11.026859685793
C                     0.454388225062     2.762713675631    10.644612607621
C                     2.658095372832     0.630908433735     1.007364434642
C                    -1.019881634717     4.926239355316     9.650083810733
C                     0.318883944018     2.926545601236     9.265218480143
C                     1.576909489611    -0.023355140941     0.422821074036
C                     0.119764037207     1.010036038708     2.080388748950
C                     2.511718204060     1.479176639590     2.113894260224
C                    -0.419083691193     4.011491648380     8.778171506721
C                     1.222129672066     1.672510094146     2.649831032413
C                     0.321490835003     0.185966286472     0.987324779430
C                    -0.371635508733     3.868526397299     5.300921691800
C                    -1.194974700079     5.007512873172     5.525009417685
C                    -0.100676371796     3.241451365613     3.977441894221
C                     3.744943685046     2.127477138533     2.712707445243
C                     3.393930497969     3.185532458330     3.757392541885
C                     2.251964288724     2.680980757872     4.637846020082
C                    -1.885823152885     5.901026529597     4.547190809419
N                     0.005338985297     3.372871361693     6.488474363993
N                    -1.287318483471     5.190202573732     6.843719640520
N                    -0.562055382360     4.188161582453     7.375311502678
N                     1.046749469858     2.482877172936     3.814014805057
O                    -0.939062447248     3.400981726092     3.087829131106
F                    -0.753266714591    -0.449418700709     0.448407289598
H                    -0.030130175602     3.534726011359    12.603488023551
H                    -1.339603409138     5.454720311655    11.707101776264
H                     1.025019236335     1.920600790297    11.026586677978
H                     3.653243254140     0.485271382792     0.592817850644
H                    -1.587525059629     5.756076811059     9.245960282084
H                     0.769427611976     2.228908386912     8.568915199856
H                     1.690517237902    -0.674042012142    -0.438252569430
H                    -0.880643119434     1.140051450301     2.469523084394
H                     4.359072962493     1.347289215988     3.181609784086
H                     4.357473249202     2.561991430810     1.915375604559
H                     4.265218700962     3.417342393166     4.378970057365
H                     3.077426274451     4.116625607912     3.273665954373
H                     2.519497654109     1.728769971473     5.111269680764
H                     2.030012708360     3.388321383581     5.429053856952
H                    -2.677641930136     5.354709232031     4.028243964800
H                    -2.314279911297     6.760247528940     5.067509747043
H                    -1.190867459408     6.251104242493     3.779024867040
