
  -OEChem-05262117483D

 25 26  0     0  0  0  0  0  0999 V2000
    1.8814   -1.0219   -0.1501 C   0  0  0  0  0  0  0  0  0  0  0  0
    0.8017   -0.3712    0.4562 C   0  0  0  0  0  0  0  0  0  0  0  0
    5.3779   -2.4666    4.6942 C   0  0  0  0  0  0  0  0  0  0  0  0
    2.8594   -1.6328    0.6321 C   0  0  0  0  0  0  0  0  0  0  0  0
    0.7054   -0.3470    1.8485 C   0  0  0  0  0  0  0  0  0  0  0  0
    4.3223   -1.8033    4.0654 C   0  0  0  0  0  0  0  0  0  0  0  0
    5.9780   -3.5590    4.0710 C   0  0  0  0  0  0  0  0  0  0  0  0
    2.7977   -1.6094    2.0374 C   0  0  0  0  0  0  0  0  0  0  0  0
    1.6902   -0.9671    2.6128 C   0  0  0  0  0  0  0  0  0  0  0  0
    3.8884   -2.2599    2.8126 C   0  0  0  0  0  0  0  0  0  0  0  0
    5.4757   -3.9158    2.8146 C   0  0  0  0  0  0  0  0  0  0  0  0
    0.7873   -1.8330    4.6197 C   0  0  0  0  0  0  0  0  0  0  0  0
    4.4828   -3.3066    2.2008 N   0  0  0  0  0  0  0  0  0  0  0  0
    1.5688   -0.8983    4.0203 O   0  0  0  0  0  0  0  0  0  0  0  0
    1.1386   -3.0957    4.2982 F   0  0  0  0  0  0  0  0  0  0  0  0
   -0.5225   -1.6968    4.3048 F   0  0  0  0  0  0  0  0  0  0  0  0
    0.9161   -1.6775    5.9445 F   0  0  0  0  0  0  0  0  0  0  0  0
    6.2118   -5.2767    1.9700 Cl  0  0  0  0  0  0  0  0  0  0  0  0
    1.9622   -1.0508   -1.2331 H   0  0  0  0  0  0  0  0  0  0  0  0
    0.0380    0.1120   -0.1465 H   0  0  0  0  0  0  0  0  0  0  0  0
    5.7332   -2.1315    5.6649 H   0  0  0  0  0  0  0  0  0  0  0  0
    3.6957   -2.1464    0.1701 H   0  0  0  0  0  0  0  0  0  0  0  0
   -0.1248    0.1394    2.3499 H   0  0  0  0  0  0  0  0  0  0  0  0
    3.8549   -0.9463    4.5322 H   0  0  0  0  0  0  0  0  0  0  0  0
    6.7969   -4.1073    4.5230 H   0  0  0  0  0  0  0  0  0  0  0  0
  1  2  1  0  0  0  0
  1  4  2  0  0  0  0
  1 19  1  0  0  0  0
  2  5  2  0  0  0  0
  2 20  1  0  0  0  0
  3  6  2  0  0  0  0
  3  7  1  0  0  0  0
  3 21  1  0  0  0  0
  4  8  1  0  0  0  0
  4 22  1  0  0  0  0
  5  9  1  0  0  0  0
  5 23  1  0  0  0  0
  6 10  1  0  0  0  0
  6 24  1  0  0  0  0
  7 11  2  0  0  0  0
  7 25  1  0  0  0  0
  8  9  2  0  0  0  0
  8 10  1  0  0  0  0
  9 14  1  0  0  0  0
 10 13  2  0  0  0  0
 11 13  1  0  0  0  0
 11 18  1  0  0  0  0
 12 14  1  0  0  0  0
 12 15  1  0  0  0  0
 12 16  1  0  0  0  0
 12 17  1  0  0  0  0
M  END
$$$$
