21
0 1 C8H6N4O2S
C                     2.243302504469    -1.209895804053    -0.038058271530
C                     2.892463958858    -1.943102590652     0.961342035508
C                     1.227347983792    -0.309221654994     0.300184059668
C                     2.525791756646    -1.780831663734     2.301030419922
C                     0.854930710983    -0.141416423470     1.637608317052
C                     1.501226877155    -0.884305734830     2.635475015616
C                    -1.726888212020    -3.165100905059     5.140310349282
C                    -0.215387772078    -1.896683530864     4.462434009032
N                    -0.913295147244    -2.164893158266     5.557826003731
N                    -1.604230480364    -3.551016864084     3.880517854524
N                    -0.621600010803    -2.721126273657     3.452951452645
N                    -2.703261219274    -3.802881572725     6.025705458901
O                    -2.755234856447    -3.387730610143     7.183170744761
O                    -3.393077157383    -4.702288871541     5.541820187019
S                     1.034068510603    -0.662977070128     4.358674232757
H                     2.531071945064    -1.337452907038    -1.078006496580
H                     3.684918182688    -2.639279471670     0.701132154628
H                     0.725514327992     0.264594918419    -0.473928040648
H                     3.025859918518    -2.344659641580     3.083013750783
H                     0.068591733084     0.556846167190     1.908839287030
H                    -0.289025384495    -2.769208463333     2.496462252622
