42
0 1 C19FH17N4O
C                    -2.318722375148     8.576799972045    -7.794861340784
C                    -2.196059060672     7.492490551545    -8.670223298114
C                    -2.056184305045     8.398032998647    -6.432094649194
C                     2.782704180864    -0.049563806489    -1.060366638851
C                    -1.812609289703     6.236758687529    -8.195538168923
C                    -1.673243216254     7.149282246774    -5.940018910031
C                     1.766649243520    -0.778237618768    -0.447222022607
C                     0.168198965828     0.265350451182    -1.961879877753
C                     2.533673687154     0.842046246048    -2.113151184293
C                    -1.553312646979     6.076158447150    -6.830109996428
C                     1.207070167084     0.997656900967    -2.562396129665
C                     0.470665213344    -0.598499853901    -0.923644075449
C                    -0.527711151667     3.297858756379    -5.009142156886
C                    -0.675654769651     2.741267874859    -6.307192417691
C                    -0.236878611122     2.615015119613    -3.708721081634
C                     3.696542491472     1.581684694800    -2.747374833876
C                     3.236148464910     2.674677627572    -3.712302468327
C                     2.067955936765     2.153455569660    -4.548039932463
C                    -0.455146689466     1.338661537204    -6.778801106375
N                    -0.848506547271     4.594617808915    -5.056898865535
N                    -1.082889966134     3.715892686989    -7.125578976021
N                    -1.162452415938     4.800801564725    -6.337414664836
N                     0.925640332975     1.853345653012    -3.671238401448
O                    -1.035295138086     2.687912450154    -2.781975244548
F                    -0.540924404986    -1.303770195484    -0.352124369259
H                    -2.617706372029     9.551399362501    -8.170577668369
H                    -2.399279662232     7.621149158062    -9.729884448491
H                    -2.151915409972     9.233551182329    -5.744075712225
H                     3.805827793304    -0.168951826246    -0.710736048947
H                    -1.715027953701     5.388013634798    -8.862203461331
H                    -1.471725702753     6.995576449893    -4.886308336221
H                     1.959527642717    -1.462504752815     0.372737435606
H                    -0.859038216242     0.374884185838    -2.282168279255
H                     4.333597350259     2.006326127857    -1.964278447545
H                     4.318918360735     0.858854835172    -3.291312463859
H                     2.902925644144     3.562508809772    -3.163789498095
H                     4.057176850504     2.980303052452    -4.369076475566
H                     1.762285415403     2.893629048323    -5.284240777261
H                     2.358664533423     1.240169815312    -5.081574584081
H                    -0.778784904423     0.617302515050    -6.023957877622
H                    -1.012630266482     1.160748867495    -7.700718550671
H                     0.604829289600     1.150214378009    -6.982053924244
