
  -OEChem-05262117483D

 21 22  0     0  0  0  0  0  0999 V2000
    2.2433   -1.2099   -0.0381 C   0  0  0  0  0  0  0  0  0  0  0  0
    2.8925   -1.9431    0.9613 C   0  0  0  0  0  0  0  0  0  0  0  0
    1.2273   -0.3092    0.3002 C   0  0  0  0  0  0  0  0  0  0  0  0
    2.5258   -1.7808    2.3010 C   0  0  0  0  0  0  0  0  0  0  0  0
    0.8549   -0.1414    1.6376 C   0  0  0  0  0  0  0  0  0  0  0  0
    1.5012   -0.8843    2.6355 C   0  0  0  0  0  0  0  0  0  0  0  0
   -1.7269   -3.1651    5.1403 C   0  0  0  0  0  0  0  0  0  0  0  0
   -0.2154   -1.8967    4.4624 C   0  0  0  0  0  0  0  0  0  0  0  0
   -0.9133   -2.1649    5.5578 N   0  0  0  0  0  0  0  0  0  0  0  0
   -1.6042   -3.5510    3.8805 N   0  0  0  0  0  0  0  0  0  0  0  0
   -0.6216   -2.7211    3.4530 N   0  0  0  0  0  0  0  0  0  0  0  0
   -2.7033   -3.8029    6.0257 N   0  3  0  0  0  0  0  0  0  0  0  0
   -2.7552   -3.3877    7.1832 O   0  5  0  0  0  0  0  0  0  0  0  0
   -3.3931   -4.7023    5.5418 O   0  0  0  0  0  0  0  0  0  0  0  0
    1.0341   -0.6630    4.3587 S   0  0  0  0  0  0  0  0  0  0  0  0
    2.5311   -1.3375   -1.0780 H   0  0  0  0  0  0  0  0  0  0  0  0
    3.6849   -2.6393    0.7011 H   0  0  0  0  0  0  0  0  0  0  0  0
    0.7255    0.2646   -0.4739 H   0  0  0  0  0  0  0  0  0  0  0  0
    3.0259   -2.3447    3.0830 H   0  0  0  0  0  0  0  0  0  0  0  0
    0.0686    0.5568    1.9088 H   0  0  0  0  0  0  0  0  0  0  0  0
   -0.2890   -2.7692    2.4965 H   0  0  0  0  0  0  0  0  0  0  0  0
  1  2  1  0  0  0  0
  1  3  2  0  0  0  0
  1 16  1  0  0  0  0
  2  4  2  0  0  0  0
  2 17  1  0  0  0  0
  3  5  1  0  0  0  0
  3 18  1  0  0  0  0
  4  6  1  0  0  0  0
  4 19  1  0  0  0  0
  5  6  2  0  0  0  0
  5 20  1  0  0  0  0
  6 15  1  0  0  0  0
  7  9  1  0  0  0  0
  7 10  2  0  0  0  0
  7 12  1  0  0  0  0
  8  9  2  0  0  0  0
  8 11  1  0  0  0  0
  8 15  1  0  0  0  0
 10 11  1  0  0  0  0
 11 21  1  0  0  0  0
 12 13  1  0  0  0  0
 12 14  2  0  0  0  0
M  CHG  2  12   1  13  -1
M  END
$$$$
