18   
torsion grid (-165,)
C       -0.6010837310    1.3194367907    2.4205452436
C        1.3986902378   -1.8112259675    4.2250476844
C        0.5798718350    0.6809112181    0.3392846548
C        1.8067795351    1.8623364458    2.2252761812
C        0.6874377088    0.8642018818    1.8599663876
N       -1.6290879018    1.6758921423    2.8301996342
N        0.9211393331   -0.5261004934    3.6626005570
N        1.0875088180   -0.4652792821    2.4365635596
N        0.6935945707   -2.0602832766    5.3599538351
O        2.2975672826   -2.4841379544    3.7642307322
H        1.5422564670    0.3334349049   -0.0444229491
H       -0.1826219993   -0.0613712424    0.0907244792
H        0.3193345082    1.6268992145   -0.1410496521
H        2.7643435576    1.4726959422    1.8683120180
H        1.8570886092    1.9979047235    3.3074204271
H        1.6146333746    2.8259658979    1.7474656735
H        0.8489659276   -2.9273114028    5.8556540358
H       -0.0411387477   -1.4301973346    5.6528339189
18   
torsion grid (-150,)
C       -0.5673582242    1.3359574943    2.4587025516
C        1.3640573291   -1.8207579598    4.2339700521
C        0.5679944863    0.6441608597    0.3683696930
C        1.8244030030    1.9116624231    2.1785338709
C        0.7151109020    0.8792111550    1.8802323024
N       -1.5894276939    1.7068902732    2.8699086592
N        0.8090222724   -0.5734407535    3.6473500337
N        1.1879975542   -0.4028702082    2.4800519377
N        0.6297821533   -2.1148872423    5.3386722966
O        2.3186596398   -2.4381938312    3.8097210545
H        1.5260352824    0.3053300392   -0.0329924243
H       -0.1867432705   -0.1197963256    0.1656992696
H        0.2723374070    1.5699083331   -0.1307124986
H        2.7803637454    1.5273272033    1.8125902907
H        1.9000531922    2.0914546810    3.2532137472
H        1.5997659477    2.8529429491    1.6710697806
H        0.8436387134   -2.9487796888    5.8681886310
H       -0.1413797511   -1.5194557179    5.6093757685
18   
torsion grid (-135,)
C       -0.5225045114    1.3480871173    2.5065791302
C        1.3550437942   -1.8525127719    4.2229830367
C        0.5697088925    0.5866716834    0.4190730595
C        1.8409769896    1.9791302860    2.1277153254
C        0.7586705790    0.8992230339    1.9145841356
N       -1.5391316702    1.7258176250    2.9247839133
N        0.7484996574   -0.6363287761    3.6160121221
N        1.2946017881   -0.3343332412    2.5453356277
N        0.5973812872   -2.1852831396    5.3003895208
O        2.3497522119   -2.4248238598    3.8292500351
H        1.5211462039    0.2466699091    0.0032527112
H       -0.1773710515   -0.1983677282    0.2786086210
H        0.2410530420    1.4832545068   -0.1117294277
H        2.7940031853    1.6140755673    1.7364034242
H        1.9554396954    2.2044472420    3.1905767778
H        1.5606274360    2.8927998738    1.5980368715
H        0.8391674421   -3.0019018791    5.8446094666
H       -0.2166449147   -1.6337141258    5.5364165917
18   
torsion grid (-120,)
C       -0.4757627299    1.3995836802    2.5533697019
C        1.3478457502   -1.8524945431    4.2159150849
C        0.5645359149    0.5271132913    0.4851087968
C        1.8548915470    2.0636019070    2.0565518235
C        0.7996061274    0.9446945597    1.9505076625
N       -1.4756450469    1.7995098988    2.9907859185
N        0.7107798501   -0.6670873311    3.5791010171
N        1.3816506954   -0.2387773359    2.6290514052
N        0.5277295618   -2.2583924353    5.2200712685
O        2.4030362507   -2.3556059473    3.8912224513
H        1.5040358071    0.1647835596    0.0606379765
H       -0.1817349258   -0.2688008414    0.4259889635
H        0.2130270222    1.3848027341   -0.0933277004
H        2.7977536465    1.7076459411    1.6342422382
H        2.0168362825    2.3431978302    3.1003158056
H        1.5195187963    2.9438538059    1.5029939486
H        0.7956498662   -3.0483615140    5.7907493437
H       -0.3224131547   -1.7473727957    5.4169137606
18   
torsion grid (-105,)
C       -0.4390539720    1.4396298910    2.6058805560
C        1.3330935426   -1.8751580939    4.2082161854
C        0.5662643243    0.4560354252    0.5730668367
C        1.8616703913    2.1210076495    2.0090262015
C        0.8325686525    0.9771104689    2.0012355866
N       -1.4285028882    1.8504361366    3.0568264709
N        0.6814463733   -0.7182947671    3.5358137933
N        1.4456934439   -0.1592779014    2.7363862399
N        0.4753448634   -2.3209237382    5.1629252765
O        2.4215686596   -2.3367797308    3.9360256245
H        1.4961052002    0.0622250159    0.1545223800
H       -0.1823756956   -0.3393695622    0.5888907925
H        0.2058241738    1.2727443026   -0.0570109059
H        2.7961909135    1.7641415815    1.5693717429
H        2.0582284799    2.4571015297    3.0300620473
H        1.4864802072    2.9661743367    1.4272043166
H        0.7515577977   -3.0912073892    5.7561287376
H       -0.4040889320   -1.8454722005    5.3152744798
18   
torsion grid (-90,)
C       -0.7162929102    1.1491204075    2.0957954376
C        0.5787002787   -2.7209244227    2.4886727173
C        0.8953354731    0.9085263929    0.2394027798
C        1.6260437157    1.8150312099    2.5140340488
C        0.6957436394    0.8462390769    1.7687326758
N       -1.8109912741    1.4292766079    2.3687385102
N        0.1395558739   -1.3410180474    2.1548244086
N        1.0827484299   -0.5380151856    2.1743582243
N       -0.5310327588   -3.4381044024    2.8051984939
O        1.7212511589   -3.1277742081    2.4514798895
H        1.9181022495    0.6071707307   -0.0035541393
H        0.1962323706    0.2361252612   -0.2623729121
H        0.7305492577    1.9292518579   -0.1141093357
H        2.6631045542    1.5755517936    2.2663531027
H        1.4936692165    1.7230053671    3.5948108863
H        1.4121219035    2.8454614915    2.2208280191
H       -0.4327595042   -4.4024919734    3.0912516545
H       -1.4404122168   -2.9959159903    2.7982558554
18   
torsion grid (-75,)
C       -0.7106404221    1.1740922773    2.1292544908
C        0.6038164547   -2.7186295413    2.4592968719
C        0.8714080397    0.8552498231    0.2609406981
C        1.6354060210    1.8551456726    2.4868034239
C        0.6951066452    0.8605003801    1.7930321323
N       -1.8043825882    1.4465487099    2.4141500124
N        0.1900163332   -1.3580114750    2.0435521914
N        1.0629719723   -0.5128565515    2.2839749929
N       -0.5182906413   -3.4309860072    2.7425034976
O        1.7484562124   -3.1213112939    2.4879916138
H        1.8932304204    0.5503029619    0.0170928605
H        0.1703160310    0.1558521541   -0.1984325297
H        0.6960490821    1.8580018914   -0.1360663715
H        2.6690134944    1.6010206867    2.2383510799
H        1.5161531410    1.8067825026    3.5718566787
H        1.4245360656    2.8742987207    2.1545942437
H       -0.4281663655   -4.3774057835    3.0856125668
H       -1.4290915662   -2.9965775374    2.6770815344
18   
torsion grid (-60,)
C       -0.9049866987    1.1315186991    1.7820326842
C        0.2894721119   -2.8599049106    1.9102037267
C        1.0353298830    0.8819767849    0.2651317370
C        1.3275097296    1.6547566498    2.6801929210
C        0.5262024013    0.7722450658    1.7135026897
N       -2.0244734284    1.4327623268    1.8694332462
N        0.0536784610   -1.4694766908    1.5035330944
N        0.6879211304   -0.6555077882    2.1935413522
N        0.0670159273   -3.1037955856    3.2309495173
O        0.5774351488   -3.6728437231    1.0538983274
H        2.0859345047    0.5788636931    0.2294713463
H        0.4548178521    0.2335193252   -0.3926007759
H        0.9540814015    1.9156627485   -0.0792870983
H        2.3798211942    1.3597157167    2.6450360619
H        0.9652824781    1.5370284508    3.7044142573
H        1.2424457977    2.7061564767    2.3964423058
H        0.3080088413   -4.0268548837    3.5698596754
H        0.1072045432   -2.3303160075    3.8826581080
18   
torsion grid (-45,)
C       -0.8972658706    1.1251757331    1.8633831104
C        0.4439787909   -2.8732191234    1.9288342760
C        0.9728801594    0.8840539500    0.2540477535
C        1.3753642712    1.6533696003    2.6504349469
C        0.5292889784    0.7705207175    1.7214306569
N       -2.0170260252    1.4066268662    2.0009583975
N        0.2459125829   -1.5006775382    1.4452341968
N        0.6729031611   -0.6495361673    2.2407862542
N       -0.0585206351   -3.1045995358    3.1723461893
O        0.9481816760   -3.6861777931    1.1792187010
H        2.0214358571    0.5828865372    0.1737684114
H        0.3705086146    0.2398191468   -0.3867123815
H        0.8759554972    1.9197569369   -0.0802292803
H        2.4234016382    1.3501206585    2.5739651939
H        1.0546129521    1.5426714732    3.6888071058
H        1.2881107878    2.7035119383    2.3626734074
H        0.1346644949   -4.0103654148    3.5812276532
H       -0.1997820950   -2.3190184987    3.7950363789
18   
torsion grid (-30,)
C       -0.8749586893    1.1322850278    1.9552088594
C        0.6501533942   -2.8619128635    2.0353684629
C        0.9144918298    0.8678047881    0.2579840687
C        1.4377705011    1.6675780065    2.6182501669
C        0.5421903681    0.7730770022    1.7443881241
N       -1.9904121703    1.4072767531    2.1349098014
N        0.4774890633   -1.5171895578    1.4731482982
N        0.6761948925   -0.6260140574    2.3135943552
N       -0.1720034324   -3.1278352416    3.0868739334
O        1.4149361540   -3.6327583261    1.4895966436
H        1.9523327109    0.5484406150    0.1287934954
H        0.2762604384    0.2320598732   -0.3557146475
H        0.8169771335    1.9038337960   -0.0754115175
H        2.4794015132    1.3577861344    2.4939308121
H        1.1680966962    1.5738971039    3.6723439123
H        1.3415030007    2.7129989555    2.3165410119
H       -0.0379957107   -4.0131999870    3.5592505943
H       -0.5580829248   -2.3564353366    3.6166898310
18   
torsion grid (-15,)
C       -0.9071243948    1.2103460132    1.9734792124
C        0.6731403058   -2.8577313769    2.0210701889
C        0.8440598306    0.8746482067    0.2528985306
C        1.4391765934    1.6133644845    2.6164874602
C        0.4868042406    0.7765155350    1.7415257282
N       -2.0045897466    1.5485835282    2.1552159484
N        0.5741915686   -1.5082414254    1.4409934241
N        0.5404744013   -0.6219224498    2.3091357199
N       -0.2170864786   -3.1062581397    3.0207177013
O        1.4581688729   -3.6440083977    1.5285325365
H        1.8583016334    0.4976481277    0.0987267512
H        0.1632039399    0.2880470610   -0.3645614526
H        0.7992194102    1.9208664373   -0.0595774689
H        2.4632169999    1.2590719892    2.4674459588
H        1.1817006798    1.5145039536    3.6730175888
H        1.3845374693    2.6665815921    2.3322117892
H       -0.1121612599   -3.9844799156    3.5131953587
H       -0.6090117911   -2.3200338553    3.5250357233
18   
torsion grid (0,)
C       -0.9273379991    1.2862870924    1.9773812040
C        0.7318309672   -2.8511860007    2.0169665103
C        0.7912482858    0.8842212724    0.2437882936
C        1.4399415328    1.5479757026    2.6179896488
C        0.4399079714    0.7767838228    1.7323658173
N       -2.0003302238    1.6941911557    2.1609320506
N        0.6917231130   -1.4931961236    1.4381254806
N        0.4186822160   -0.6243062545    2.2814201582
N       -0.2219289251   -3.1023756141    2.9544344000
O        1.5467738822   -3.6381136683    1.5762146695
H        1.7942507375    0.4874067459    0.0726423227
H        0.0913839918    0.3188570783   -0.3736699241
H        0.7634011116    1.9346827091   -0.0563113869
H        2.4439811668    1.1473420558    2.4523723924
H        1.1847938244    1.4430197869    3.6745343895
H        1.4326344682    2.6077202182    2.3533240926
H       -0.1497071363   -3.9799033083    3.4532966492
H       -0.6557445321   -2.3154864683    3.4227393921
18   
torsion grid (15,)
C       -0.5098862312    0.5067861980    1.9276354333
C        3.2438995033   -2.0426771282    1.9609794851
C        1.1635169551    1.0899702979    0.2072110725
C        1.4063666879    1.9013465350    2.6152047061
C        0.9279255680    0.7628889519    1.6875172483
N       -1.6441270633    0.3196775397    2.0993480949
N        2.5107945189   -0.8799002948    1.4153833317
N        1.6231804455   -0.4723891037    2.1817117995
N        2.5057134384   -2.8791901985    2.7390693834
O        4.4049486263   -2.1899621800    1.6316259081
H        2.2217734000    1.2918640303    0.0338206350
H        0.8638894616    0.2566907563   -0.4318851660
H        0.5779059750    1.9720701921   -0.0632466414
H        2.4714252657    2.0756243590    2.4401771366
H        1.2536831449    1.6394859829    3.6644408042
H        0.8525233734    2.8164363971    2.3937552530
H        3.0071512396   -3.6118781788    3.2242284871
H        1.6460156790   -2.5272167247    3.1441669054
18   
torsion grid (30,)
C       -0.4450782009    0.7173222823    2.4865274192
C        3.0582010920   -2.2590502696    2.4634817941
C        0.6834514445    0.4126831937    0.3128589705
C        1.7366639393    1.8252614373    2.1627393889
C        0.8738843227    0.5887373444    1.8269827708
N       -1.4896864155    0.8357478632    2.9819351647
N        2.3301601144   -1.1795546045    1.7615622513
N        1.5405186447   -0.5734682945    2.5036765150
N        2.3832313544   -2.8439176331    3.4892599044
O        4.1558233331   -2.5705659120    2.0433122294
H        1.6547153439    0.3312827691   -0.1765636586
H        0.1066429021   -0.4897847211    0.0966790059
H        0.1468141760    1.2765468775   -0.0867722977
H        2.7040873503    1.7230659401    1.6643691351
H        1.8946384207    1.9101719558    3.2404109388
H        1.2395504102    2.7305248243    1.8069708342
H        2.9045144958   -3.4908144729    4.0666522392
H        1.6056028552   -2.3411178898    3.9014615327
18   
torsion grid (45,)
C       -0.4332942681    0.7170705592    2.5628036661
C        3.1929515747   -2.1673411142    2.4932827129
C        0.6271115884    0.3751481051    0.3614162661
C        1.7498613159    1.7991929336    2.1621088701
C        0.8656756277    0.5685612900    1.8691776518
N       -1.4633809455    0.8551196348    3.0827140694
N        2.4803860171   -1.0490082494    1.8338986217
N        1.5299069293   -0.6192287774    2.5070461210
N        2.4721243044   -2.8605583606    3.4128564750
O        4.3313250122   -2.4014317847    2.1351818676
H        1.5860015286    0.2663929018   -0.1471522379
H        0.0233420174   -0.5169155455    0.1769542690
H        0.0986423309    1.2435440945   -0.0389775730
H        2.6977672556    1.6819412627    1.6315024879
H        1.9464209248    1.8921721617    3.2330728937
H        1.2478271215    2.7062379244    1.8178924246
H        2.9694127659   -3.5449687195    3.9669575958
H        1.6259848931   -2.4428094115    3.7825835394
18   
torsion grid (60,)
C       -0.4248278142    0.7838499697    2.5749903340
C        3.2244171531   -2.0988120692    2.5544317094
C        0.5956225443    0.3601914301    0.3682621575
C        1.7690378054    1.8158355910    2.1103178420
C        0.8615472477    0.5938605515    1.8678806866
N       -1.4419262603    0.9620452966    3.1079892393
N        2.5708503320   -0.9161596709    1.9440268366
N        1.4889525835   -0.6286799222    2.4804851278
N        2.4260388409   -2.8818914020    3.3241781637
O        4.3960050473   -2.2928766253    2.2918946861
H        1.5499020483    0.2216878318   -0.1436427225
H       -0.0250522245   -0.5267153271    0.2176499955
H        0.0771649810    1.2245374269   -0.0531133301
H        2.7169471914    1.6590504757    1.5916049555
H        1.9614812597    1.9508871861    3.1776117306
H        1.2853895402    2.7166962593    1.7257216129
H        2.8697662271   -3.6205344173    3.8530501592
H        1.5270183909   -2.5212969034    3.6219886237
18   
torsion grid (75,)
C       -0.3572891654    0.8822364898    2.6169123971
C        3.2488969158   -1.9890538970    2.0764059102
C        0.5294213414    0.7198003479    0.3168980259
C        1.8148261061    1.9556905116    2.1445596187
C        0.8835346447    0.7742070630    1.8182402908
N       -1.3356057733    0.9999527275    3.2328990478
N        2.6591505764   -0.6629761707    1.7783952981
N        1.4944693906   -0.5475171408    2.1923811402
N        2.6677403719   -2.6758128776    3.0943474353
O        4.2171145086   -2.3345954721    1.4267447135
H        1.4559240612    0.6416452942   -0.2565262788
H       -0.1043055234   -0.1427694166    0.0962994597
H       -0.0037253492    1.6288198643    0.0292821519
H        2.7289840641    1.8678130651    1.5556126445
H        2.0734681825    1.9629990293    3.2064447224
H        1.3129246180    2.8950839749    1.9012362416
H        2.9631629160   -3.6330795860    3.2323197926
H        1.7486396382   -2.3890844911    3.4110852729
18   
torsion grid (90,)
C       -0.3146887029    0.9046278550    2.6280684582
C        3.2561293095   -1.9756641074    2.1951847476
C        0.5110378429    0.7118865417    0.3076505758
C        1.8533349002    1.9551420019    2.0872256281
C        0.9051924238    0.7800854895    1.7997551913
N       -1.2722406459    1.0315153999    3.2742690805
N        2.7076278779   -0.6230230341    1.9566806909
N        1.4810357616   -0.5640334487    2.1397724122
N        2.5878958340   -2.7208209278    3.1157942488
O        4.2708202446   -2.2891861840    1.6030887959
H        1.4215297113    0.6220168399   -0.2901282584
H       -0.1338044445   -0.1482165527    0.1123601465
H       -0.0213693733    1.6225743889    0.0240390035
H        2.7444429900    1.8722396087    1.4639873965
H        2.1582573559    1.9593752486    3.1365821153
H        1.3420109259    2.8953279604    1.8671137044
H        2.8630383267   -3.6904234554    3.2032506635
H        1.6359169373   -2.4606653057    3.3468851007
18   
torsion grid (105,)
C       -0.2646066039    0.8937362199    2.6567886890
C        3.2989178450   -1.9248443352    2.3279584087
C        0.4644886565    0.7189426330    0.3054669432
C        1.8718142523    1.9642806560    2.0324911792
C        0.9224824019    0.7854119250    1.7794246867
N       -1.1968077049    1.0049122301    3.3420408995
N        2.7422980817   -0.5698338463    2.1289890899
N        1.5017184143   -0.5661238611    2.0789468539
N        2.5373423551   -2.7575517152    3.0880600876
O        4.3950752618   -2.1651202441    1.8601322524
H        1.3469069644    0.6326428076   -0.3341174627
H       -0.1860211117   -0.1422071402    0.1376178644
H       -0.0797518319    1.6298228042    0.0460832662
H        2.7371879089    1.8948747090    1.3717027873
H        2.2264746552    1.9667152574    3.0655489510
H        1.3422948064    2.9002996218    1.8385084960
H        2.8301232760   -3.7250224913    3.1343117262
H        1.5522691225   -2.5439628307    3.1944263727
18   
torsion grid (120,)
C       -0.2067537161    0.8696930536    2.6813130487
C        3.3171146008   -1.8840399723    2.4460047873
C        0.4044521517    0.7473744178    0.2969448710
C        1.8892695610    1.9712789157    1.9769564632
C        0.9368760766    0.7925572169    1.7446984761
N       -1.1032329373    0.9442350443    3.4175551667
N        2.7395558494   -0.5347385131    2.2753675688
N        1.5305993278   -0.5654929140    1.9955289589
N        2.4886616653   -2.7962397128    3.0217964611
O        4.4776168533   -2.0535375490    2.1257712424
H        1.2505100956    0.6634086905   -0.3908749166
H       -0.2581642189   -0.1086312884    0.1537669020
H       -0.1452575590    1.6646408876    0.0743837461
H        2.7386023695    1.9014075452    1.2942742756
H        2.2726988178    1.9764133624    2.9988016192
H        1.3542995126    2.9062455714    1.7928028245
H        2.8121897585   -3.7545432020    3.0494401067
H        1.4909873135   -2.6201693179    3.0077477488
18   
torsion grid (135,)
C       -0.1552532248    0.8193102153    2.6846524337
C        3.3004607423   -1.8711799264    2.5147746883
C        0.3464847853    0.7905278649    0.2754227859
C        1.8960959806    1.9736098619    1.9295436075
C        0.9450237347    0.7944347798    1.6948867893
N       -1.0176741441    0.8390339584    3.4641474915
N        2.6978666670   -0.5322459236    2.3890235632
N        1.5664322925   -0.5676254701    1.8799461661
N        2.4613493089   -2.8246187549    3.0034503787
O        4.4803225944   -2.0004389791    2.2527232538
H        1.1587829479    0.7330895564   -0.4549428723
H       -0.3146360285   -0.0674047350    0.1376538189
H       -0.2189463099    1.7091451304    0.1037942885
H        2.7331328189    1.9121546463    1.2295276492
H        2.2981223426    1.9694253059    2.9432639021
H        1.3566801499    2.9092106903    1.7624538759
H        2.8066352473   -3.7760333766    3.0081057094
H        1.4623100583   -2.6760471116    2.9269906646
18   
torsion grid (150,)
C       -0.4979760080    1.4859593372    2.6441426336
C        1.7695572824   -1.7932513357    4.2277649455
C        0.3506088509    0.5843898083    0.5197149394
C        1.9078986430    1.7885409723    2.1519239994
C        0.6825548391    0.8790076769    1.9920631429
N       -1.4306862744    1.9519958091    3.1588669854
N        1.6226373588   -0.4660171067    3.6151412407
N        0.8255077578   -0.4712458588    2.6639631626
N        0.5944250749   -2.3493814728    4.6310889568
O        2.8876319810   -2.2375413805    4.3996307360
H        1.2100514208    0.0974379708    0.0495271588
H       -0.5131000919   -0.0794828165    0.4451013480
H        0.1354012081    1.5127557936   -0.0140921733
H        2.7812913615    1.2952463268    1.7163850159
H        2.1160275728    1.9979230271    3.2010749494
H        1.7311199804    2.7297647317    1.6256274169
H        0.6343227889   -3.2985680690    4.9809315992
H       -0.2671127022   -2.0343577980    4.2024399956
18   
torsion grid (165,)
C       -0.4435763588    1.5216029523    2.6831696818
C        1.7125892650   -1.7055876737    4.3527796244
C        0.3049616185    0.5889509425    0.5332783397
C        1.9501134889    1.7630110984    2.0914897884
C        0.6941508055    0.8837570685    1.9894253179
N       -1.3533718219    2.0078641861    3.2197196053
N        1.4840534914   -0.3898329379    3.7428866180
N        0.8866010107   -0.4665683687    2.6579769059
N        0.5802638618   -2.4412594878    4.5225350828
O        2.8351943313   -1.9909215963    4.7208830029
H        1.1375918317    0.0833227891    0.0358115397
H       -0.5728725201   -0.0597015917    0.4917654933
H        0.0858337882    1.5175728480    0.0014296067
H        2.7862315223    1.2487944928    1.6086764206
H        2.2095949986    1.9563371177    3.1323560325
H        1.7755808167    2.7124828391    1.5796979360
H        0.6932853768   -3.3886966038    4.8609781961
H       -0.2281975197   -2.2318899716    3.9504405348
18   
torsion grid (180,)
C       -0.4028344557    1.5377270497    2.6964222957
C        1.6756185272   -1.6506536353    4.3944371424
C        0.2814770881    0.5977477599    0.5231208575
C        1.9762879235    1.7523617225    2.0346480910
C        0.7053434567    0.8866624646    1.9699995771
N       -1.3001550182    2.0351811369    3.2434281654
N        1.3295679520   -0.3571950326    3.8013742846
N        0.9749218129   -0.4581073547    2.6160397780
N        0.6322712399   -2.5216857144    4.4582882844
O        2.7935211042   -1.8107944260    4.8437670403
H        1.0997693735    0.0884575801    0.0068068889
H       -0.6013117623   -0.0457304680    0.4981135495
H        0.0534127998    1.5285978510   -0.0010176117
H        2.7904498189    1.2323290313    1.5215131220
H        2.2652858602    1.9302025305    3.0714080115
H        1.7988070792    2.7091326899    1.5377855831
H        0.8338689556   -3.4549548295    4.7949527281
H       -0.1595502354   -2.3945002110    3.8413850614
