
  -OEChem-05262117483D

  8  7  0     0  0  0  0  0  0999 V2000
    0.4143    0.3104   -2.0495 C   0  0  0  0  0  0  0  0  0  0  0  0
    0.7536   -0.3940   -0.7978 C   0  0  0  0  0  0  0  0  0  0  0  0
    1.7211   -3.1231   -2.4770 N   0  5  0  0  0  0  0  0  0  0  0  0
    0.1601    0.8433   -3.0508 N   0  0  0  0  0  0  0  0  0  0  0  0
    0.5153   -1.8489   -0.8595 N   0  0  0  0  0  0  0  0  0  0  0  0
    1.1814   -2.4510   -1.7274 N   0  3  0  0  0  0  0  0  0  0  0  0
    1.7941   -0.1643   -0.5376 H   0  0  0  0  0  0  0  0  0  0  0  0
    0.1156   -0.0204    0.0045 H   0  0  0  0  0  0  0  0  0  0  0  0
  1  2  1  0  0  0  0
  1  4  3  0  0  0  0
  2  5  1  0  0  0  0
  2  7  1  0  0  0  0
  2  8  1  0  0  0  0
  3  6  2  0  0  0  0
  5  6  2  0  0  0  0
M  CHG  2   3  -1   6   1
M  END
$$$$
