30
0 1 C12FH10NO4S2
C                     1.497061786831    -1.895691889814    -0.009228734135
C                     5.242174401119     0.009546748472     0.515294108962
C                     1.227315793942    -2.915955669854     0.910943716557
C                     1.816385318358    -0.608666946233     0.433484015998
C                     5.227947942777    -1.351024540332     0.844942866847
C                     5.099316334882     0.983470167959     1.509058779250
C                     1.279299141517    -2.656862146510     2.281012614437
C                     1.887217746506    -0.335252178326     1.800120924494
C                     5.085778272590    -1.747578188982     2.174647952758
C                     4.935007308395     0.604921085971     2.843731267513
C                     1.629082589549    -1.369247514305     2.701790440010
C                     4.934239017170    -0.757572158586     3.150470864426
N                     3.115407428986    -1.859299335849     5.109249885436
O                     1.996924596196     0.410598223492     4.644470292156
O                     0.562758082070    -1.667127912113     5.100817944010
O                     5.612175673039    -2.431997620230     5.083129020970
O                     4.845303346686    -0.066361785610     5.706405105336
F                     3.061333677968    -3.170456146680     4.565186268941
S                     1.675333995413    -0.997391396885     4.447876640306
S                     4.801057167901    -1.245625388933     4.859236958358
H                     1.447721721759    -2.103817847698    -1.074654180117
H                     5.368094944204     0.310990704993    -0.521127822034
H                     0.964783698251    -3.910835888036     0.562943230592
H                     2.013703434977     0.184342701996    -0.281663550516
H                     5.336181272065    -2.102810357790     0.068810770115
H                     5.115435728899     2.037869577036     1.248287171470
H                     1.047502727159    -3.429053100713     3.005658144576
H                     2.129068469657     0.655911046210     2.164914097808
H                     5.100563505024    -2.795899796707     2.453856554942
H                     4.812084289620     1.337928039381     3.633985833972
