4
0 1 Br3P
P                    -0.638907576995     0.393979608987     0.105736978130
Br                    0.337512849829     0.574826434035    -1.938642499909
Br                   -0.792505215346    -1.860914067190     0.346155689540
Br                    1.095992430913     0.887491259927     1.488300808308
