
  -OEChem-05262117483D

 28 29  0     0  0  0  0  0  0999 V2000
    0.6248   -1.2612    4.0117 C   0  0  0  0  0  0  0  0  0  0  0  0
    2.2725    0.3173    3.9656 C   0  0  0  0  0  0  0  0  0  0  0  0
    1.7022   -0.8036    1.8598 C   0  0  0  0  0  0  0  0  0  0  0  0
    0.7745   -1.5247    2.6475 C   0  0  0  0  0  0  0  0  0  0  0  0
    2.4605    0.1423    2.5964 C   0  0  0  0  0  0  0  0  0  0  0  0
    3.1348   -1.4766   -0.0425 C   0  0  0  0  0  0  0  0  0  0  0  0
    0.7542   -1.1054   -0.4341 C   0  0  0  0  0  0  0  0  0  0  0  0
    3.4500   -0.8299   -1.3877 C   0  0  0  0  0  0  0  0  0  0  0  0
    1.1085   -0.4259   -1.7567 C   0  0  0  0  0  0  0  0  0  0  0  0
    2.6366   -0.4408   -3.6264 C   0  0  0  0  0  0  0  0  0  0  0  0
    1.3596   -0.3618    4.6704 N   0  0  0  0  0  0  0  0  0  0  0  0
    1.8767   -0.9436    0.4885 N   0  0  0  0  0  0  0  0  0  0  0  0
    2.3313   -1.0029   -2.3163 N   0  0  0  0  0  0  0  0  0  0  0  0
   -0.1713   -2.8425    1.9764 Cl  0  0  0  0  0  0  0  0  0  0  0  0
    3.6176    1.1794    1.7852 Cl  0  0  0  0  0  0  0  0  0  0  0  0
   -0.1044   -1.8261    4.5883 H   0  0  0  0  0  0  0  0  0  0  0  0
    2.8673    1.0536    4.5012 H   0  0  0  0  0  0  0  0  0  0  0  0
    3.0469   -2.5667   -0.1711 H   0  0  0  0  0  0  0  0  0  0  0  0
    3.9445   -1.2840    0.6621 H   0  0  0  0  0  0  0  0  0  0  0  0
   -0.1345   -0.6379   -0.0046 H   0  0  0  0  0  0  0  0  0  0  0  0
    0.5315   -2.1626   -0.6278 H   0  0  0  0  0  0  0  0  0  0  0  0
    3.6819    0.2390   -1.2250 H   0  0  0  0  0  0  0  0  0  0  0  0
    4.3379   -1.3074   -1.8168 H   0  0  0  0  0  0  0  0  0  0  0  0
    0.2896   -0.5865   -2.4667 H   0  0  0  0  0  0  0  0  0  0  0  0
    1.2089    0.6640   -1.5919 H   0  0  0  0  0  0  0  0  0  0  0  0
    3.5283   -0.9257   -4.0368 H   0  0  0  0  0  0  0  0  0  0  0  0
    2.8207    0.6499   -3.5965 H   0  0  0  0  0  0  0  0  0  0  0  0
    1.8035   -0.6278   -4.3116 H   0  0  0  0  0  0  0  0  0  0  0  0
  1  4  1  0  0  0  0
  1 11  2  0  0  0  0
  1 16  1  0  0  0  0
  2  5  2  0  0  0  0
  2 11  1  0  0  0  0
  2 17  1  0  0  0  0
  3  4  2  0  0  0  0
  3  5  1  0  0  0  0
  3 12  1  0  0  0  0
  4 14  1  0  0  0  0
  5 15  1  0  0  0  0
  6  8  1  0  0  0  0
  6 12  1  0  0  0  0
  6 18  1  0  0  0  0
  6 19  1  0  0  0  0
  7  9  1  0  0  0  0
  7 12  1  0  0  0  0
  7 20  1  0  0  0  0
  7 21  1  0  0  0  0
  8 13  1  0  0  0  0
  8 22  1  0  0  0  0
  8 23  1  0  0  0  0
  9 13  1  0  0  0  0
  9 24  1  0  0  0  0
  9 25  1  0  0  0  0
 10 13  1  0  0  0  0
 10 26  1  0  0  0  0
 10 27  1  0  0  0  0
 10 28  1  0  0  0  0
M  END
$$$$
