26
0 1 C12H11NO2
C                    -0.516184068611    -2.013598668473     0.129246543565
C                     0.295070927204    -1.040537310412    -0.503980226113
C                    -0.001146674098    -3.257320416475     0.439584614304
C                     1.609531433696    -1.328588701917    -0.816708087594
C                     1.907636832362    -4.856582356756     0.443925280335
C                     3.210051228207    -5.135066600007     0.120052205949
C                     1.344839929852    -3.583891950670     0.129086668546
C                     2.157069151495    -2.600032350619    -0.509418585599
C                     4.047237404916    -4.181726628818    -0.536610811662
C                     3.520700344018    -2.913068653621    -0.829075752774
C                     5.445552649862    -4.471540021681    -0.927263509984
C                     7.269385640034    -6.088814000607    -1.207707053024
N                     5.927063752313    -5.733684444551    -0.761600080885
O                     6.194093007612    -3.582897991824    -1.401617273698
O                     4.241536422670    -1.943496033908    -1.415619382069
H                    -1.549113551727    -1.777326362140     0.372171861586
H                    -0.120435499586    -0.065163871283    -0.742443416059
H                    -0.623463222595    -4.003884090964     0.927395968331
H                     2.242411168959    -0.592345819280    -1.300230867796
H                     1.295211643119    -5.597830335037     0.950084562950
H                     3.611818256652    -6.104634091993     0.401908059463
H                     7.341496253400    -6.108533620026    -2.301182235572
H                     7.521162388839    -7.074299307134    -0.810079158761
H                     7.985440962427    -5.355669482290    -0.832670067266
H                     5.279632717986    -6.479341559102    -0.556277492192
H                     5.163688075507    -2.318476434747    -1.536972363811
