
  -OEChem-05262117483D

 26 27  0     0  0  0  0  0  0999 V2000
   -0.5162   -2.0136    0.1292 C   0  0  0  0  0  0  0  0  0  0  0  0
    0.2951   -1.0405   -0.5040 C   0  0  0  0  0  0  0  0  0  0  0  0
   -0.0011   -3.2573    0.4396 C   0  0  0  0  0  0  0  0  0  0  0  0
    1.6095   -1.3286   -0.8167 C   0  0  0  0  0  0  0  0  0  0  0  0
    1.9076   -4.8566    0.4439 C   0  0  0  0  0  0  0  0  0  0  0  0
    3.2101   -5.1351    0.1201 C   0  0  0  0  0  0  0  0  0  0  0  0
    1.3448   -3.5839    0.1291 C   0  0  0  0  0  0  0  0  0  0  0  0
    2.1571   -2.6000   -0.5094 C   0  0  0  0  0  0  0  0  0  0  0  0
    4.0472   -4.1817   -0.5366 C   0  0  0  0  0  0  0  0  0  0  0  0
    3.5207   -2.9131   -0.8291 C   0  0  0  0  0  0  0  0  0  0  0  0
    5.4456   -4.4715   -0.9273 C   0  0  0  0  0  0  0  0  0  0  0  0
    7.2694   -6.0888   -1.2077 C   0  0  0  0  0  0  0  0  0  0  0  0
    5.9271   -5.7337   -0.7616 N   0  0  0  0  0  0  0  0  0  0  0  0
    6.1941   -3.5829   -1.4016 O   0  0  0  0  0  0  0  0  0  0  0  0
    4.2415   -1.9435   -1.4156 O   0  0  0  0  0  0  0  0  0  0  0  0
   -1.5491   -1.7773    0.3722 H   0  0  0  0  0  0  0  0  0  0  0  0
   -0.1204   -0.0652   -0.7424 H   0  0  0  0  0  0  0  0  0  0  0  0
   -0.6235   -4.0039    0.9274 H   0  0  0  0  0  0  0  0  0  0  0  0
    2.2424   -0.5923   -1.3002 H   0  0  0  0  0  0  0  0  0  0  0  0
    1.2952   -5.5978    0.9501 H   0  0  0  0  0  0  0  0  0  0  0  0
    3.6118   -6.1046    0.4019 H   0  0  0  0  0  0  0  0  0  0  0  0
    7.3415   -6.1085   -2.3012 H   0  0  0  0  0  0  0  0  0  0  0  0
    7.5212   -7.0743   -0.8101 H   0  0  0  0  0  0  0  0  0  0  0  0
    7.9854   -5.3557   -0.8327 H   0  0  0  0  0  0  0  0  0  0  0  0
    5.2796   -6.4793   -0.5563 H   0  0  0  0  0  0  0  0  0  0  0  0
    5.1637   -2.3185   -1.5370 H   0  0  0  0  0  0  0  0  0  0  0  0
  1  2  1  0  0  0  0
  1  3  2  0  0  0  0
  1 16  1  0  0  0  0
  2  4  2  0  0  0  0
  2 17  1  0  0  0  0
  3  7  1  0  0  0  0
  3 18  1  0  0  0  0
  4  8  1  0  0  0  0
  4 19  1  0  0  0  0
  5  6  1  0  0  0  0
  5  7  2  0  0  0  0
  5 20  1  0  0  0  0
  6  9  2  0  0  0  0
  6 21  1  0  0  0  0
  7  8  1  0  0  0  0
  8 10  2  0  0  0  0
  9 10  1  0  0  0  0
  9 11  1  0  0  0  0
 10 15  1  0  0  0  0
 11 13  1  0  0  0  0
 11 14  2  0  0  0  0
 12 13  1  0  0  0  0
 12 22  1  0  0  0  0
 12 23  1  0  0  0  0
 12 24  1  0  0  0  0
 13 25  1  0  0  0  0
 15 26  1  0  0  0  0
M  END
$$$$
