27
0 1 C8H16N2O
C                    -1.840013742286    -0.671447482736    -1.226486107577
C                     1.455527911132    -1.281936724780     0.436490975538
C                     0.046347081104    -1.824120148185     0.075342848936
C                     1.246231101044     0.230672849429     0.590600063662
C                    -0.831925551973    -0.565537992835    -0.073656885051
C                    -3.983068730754     1.193326731118    -2.825707830391
C                    -0.418156916685     1.852022678234    -0.178118752482
C                    -4.121782503331    -0.068976249121    -1.968629723579
N                     0.131010143039     0.514681798012    -0.313878874832
N                    -3.085268712464    -0.177911870652    -0.945142920944
O                    -1.554656466046    -1.165155389629    -2.315095775553
H                     1.861268510085    -1.730556076854     1.347310520662
H                     2.157058784914    -1.482777716967    -0.376979415378
H                     0.062043091018    -2.366095970080    -0.871337585811
H                    -0.358406602351    -2.488384299000     0.843528820672
H                     0.988605478240     0.481768483663     1.639373038381
H                     2.123409247479     0.823846587623     0.311709909740
H                    -1.382453666066    -0.382409657286     0.873253217897
H                    -4.059882411871     2.098550915170    -2.212931680239
H                    -3.015268579525     1.197634270655    -3.334281700992
H                    -4.771955823924     1.228955475989    -3.585114434695
H                    -1.194117364204     2.021152202187    -0.930668728292
H                     0.371937716546     2.590967740796    -0.342899916168
H                    -0.856383360635     2.036653257925     0.824046277935
H                    -4.044642526254    -0.958099660903    -2.598142066121
H                    -5.094842205067    -0.095597921607    -1.467476721966
H                    -3.214526845010     0.312250300216    -0.069813074087
