
  -OEChem-05262117483D

 27 27  0     1  0  0  0  0  0999 V2000
   -1.8400   -0.6714   -1.2265 C   0  0  0  0  0  0  0  0  0  0  0  0
    1.4555   -1.2819    0.4365 C   0  0  0  0  0  0  0  0  0  0  0  0
    0.0463   -1.8241    0.0753 C   0  0  0  0  0  0  0  0  0  0  0  0
    1.2462    0.2307    0.5906 C   0  0  0  0  0  0  0  0  0  0  0  0
   -0.8319   -0.5655   -0.0737 C   0  0  1  0  0  0  0  0  0  0  0  0
   -3.9831    1.1933   -2.8257 C   0  0  0  0  0  0  0  0  0  0  0  0
   -0.4182    1.8520   -0.1781 C   0  0  0  0  0  0  0  0  0  0  0  0
   -4.1218   -0.0690   -1.9686 C   0  0  0  0  0  0  0  0  0  0  0  0
    0.1310    0.5147   -0.3139 N   0  0  1  0  0  0  0  0  0  0  0  0
   -3.0853   -0.1779   -0.9451 N   0  0  0  0  0  0  0  0  0  0  0  0
   -1.5547   -1.1652   -2.3151 O   0  0  0  0  0  0  0  0  0  0  0  0
    1.8613   -1.7306    1.3473 H   0  0  0  0  0  0  0  0  0  0  0  0
    2.1571   -1.4828   -0.3770 H   0  0  0  0  0  0  0  0  0  0  0  0
    0.0620   -2.3661   -0.8713 H   0  0  0  0  0  0  0  0  0  0  0  0
   -0.3584   -2.4884    0.8435 H   0  0  0  0  0  0  0  0  0  0  0  0
    0.9886    0.4818    1.6394 H   0  0  0  0  0  0  0  0  0  0  0  0
    2.1234    0.8238    0.3117 H   0  0  0  0  0  0  0  0  0  0  0  0
   -1.3825   -0.3824    0.8733 H   0  0  0  0  0  0  0  0  0  0  0  0
   -4.0599    2.0986   -2.2129 H   0  0  0  0  0  0  0  0  0  0  0  0
   -3.0153    1.1976   -3.3343 H   0  0  0  0  0  0  0  0  0  0  0  0
   -4.7720    1.2290   -3.5851 H   0  0  0  0  0  0  0  0  0  0  0  0
   -1.1941    2.0212   -0.9307 H   0  0  0  0  0  0  0  0  0  0  0  0
    0.3719    2.5910   -0.3429 H   0  0  0  0  0  0  0  0  0  0  0  0
   -0.8564    2.0367    0.8240 H   0  0  0  0  0  0  0  0  0  0  0  0
   -4.0446   -0.9581   -2.5981 H   0  0  0  0  0  0  0  0  0  0  0  0
   -5.0948   -0.0956   -1.4675 H   0  0  0  0  0  0  0  0  0  0  0  0
   -3.2145    0.3123   -0.0698 H   0  0  0  0  0  0  0  0  0  0  0  0
  1  5  1  0  0  0  0
  1 10  1  0  0  0  0
  1 11  2  0  0  0  0
  2  3  1  0  0  0  0
  2  4  1  0  0  0  0
  2 12  1  0  0  0  0
  2 13  1  0  0  0  0
  3  5  1  0  0  0  0
  3 14  1  0  0  0  0
  3 15  1  0  0  0  0
  4  9  1  0  0  0  0
  4 16  1  0  0  0  0
  4 17  1  0  0  0  0
  5  9  1  0  0  0  0
  5 18  1  0  0  0  0
  6  8  1  0  0  0  0
  6 19  1  0  0  0  0
  6 20  1  0  0  0  0
  6 21  1  0  0  0  0
  7  9  1  0  0  0  0
  7 22  1  0  0  0  0
  7 23  1  0  0  0  0
  7 24  1  0  0  0  0
  8 10  1  0  0  0  0
  8 25  1  0  0  0  0
  8 26  1  0  0  0  0
 10 27  1  0  0  0  0
M  END
$$$$
