25   
torsion grid (-165,)
C        5.2205489966   -1.8376976809    2.8419105138
C        5.0719284001    0.4375979429    2.9746846945
C        3.3179781631   -0.7529465005    1.7338280676
C        4.0422676562   -1.9028138078    2.1050324310
C        3.9084156334    0.4341541518    2.2189855948
C        0.3094767847   -1.1595368276    2.5699378231
C       -0.0446123529    0.3412153946    0.5374586857
C        1.9747099910   -1.7869253507   -0.0423433867
C        0.9476933725   -0.1615827765    1.5871079768
N        5.7363337898   -0.6853670708    3.2833068896
N        2.1664026771   -0.7302462357    0.9507942787
F        3.5707402798   -3.1303950389    1.7595570113
F        3.3290999575    1.6233977342    1.9156780592
H        5.7391656543   -2.7604218059    3.0945972186
H        5.4827372115    1.3852426886    3.3166117530
H        0.1763309262   -2.1437525500    2.1105421925
H        0.9509991839   -1.2972277284    3.4465744748
H       -0.6655792250   -0.8026183028    2.9166603056
H       -0.5384319404   -0.4802263423    0.0084356163
H        0.4563250868    0.9807296083   -0.1953868364
H       -0.8270522003    0.9280269466    1.0282470513
H        1.3621969707   -1.3949495712   -0.8577649675
H        1.4996838218   -2.6947753468    0.3496261108
H        2.9420338737   -2.0645852031   -0.4632295178
H        1.3007543280    0.6990903483    2.1564654458
25   
torsion grid (-150,)
C        5.2128914230   -1.8423988975    2.8434121443
C        5.0699330460    0.4320428716    2.9870076973
C        3.3157221061   -0.7459765166    1.7341571484
C        4.0365121562   -1.8988860551    2.1028073155
C        3.9087118258    0.4362219698    2.2276727536
C        0.3247303963   -1.1502039728    2.5892191695
C       -0.0559178738    0.3299089007    0.5370174659
C        1.9745815673   -1.7669000384   -0.0518492724
C        0.9463572893   -0.1528394816    1.5863311824
N        5.7306607825   -0.6939059835    3.2922320586
N        2.1661803288   -0.7166834681    0.9476299389
F        3.5622028130   -3.1235907534    1.7507637645
F        3.3340297310    1.6290917553    1.9295666453
H        5.7275532552   -2.7681917187    3.0929892509
H        5.4821405346    1.3767883615    3.3352066155
H        0.4327716678   -2.1823937633    2.2434814897
H        0.8376281665   -1.0926343791    3.5548487842
H       -0.7364526988   -0.9449909821    2.7594004983
H       -0.5484287258   -0.5016338859    0.0227735741
H        0.4351123388    0.9633988087   -0.2077317651
H       -0.8376235175    0.9181008672    1.0271317817
H        1.3688379962   -1.3677739974   -0.8688260004
H        1.4910119096   -2.6738470041    0.3327454413
H        2.9427388210   -2.0483553455   -0.4680653108
H        1.3022183181    0.7156594727    2.1410369584
25   
torsion grid (-135,)
C        5.2019126276   -1.8761739236    2.8226120474
C        5.0871013393    0.3995792841    2.9735239779
C        3.3212523771   -0.7534800119    1.7154187842
C        4.0255543664   -1.9171878394    2.0806853693
C        3.9265217167    0.4204298070    2.2135001777
C        0.3474810710   -1.1449778861    2.6046191296
C       -0.0591967433    0.3314098411    0.5489556571
C        1.9598978316   -1.7551379486   -0.0658039691
C        0.9589437155   -0.1469911472    1.5857347502
N        5.7334835682   -0.7356630259    3.2752615320
N        2.1714864087   -0.7035080991    0.9284832625
F        3.5369406831   -3.1354267207    1.7245612956
F        3.3644719219    1.6202627826    1.9205645930
H        5.7052405406   -2.8087807558    3.0698049848
H        5.5105580279    1.3378667932    3.3255987437
H        0.6833783335   -2.1674930367    2.4102590668
H        0.6627496949   -0.9037998363    3.6244289428
H       -0.7462909833   -1.1331316027    2.5825850415
H       -0.5482035290   -0.5018526189    0.0343191917
H        0.4169328864    0.9757332863   -0.1962374457
H       -0.8419910092    0.9073852278    1.0518981111
H        1.3689858296   -1.3464066569   -0.8889079028
H        1.4494978700   -2.6455444011    0.3239355742
H        2.9224065425   -2.0652450645   -0.4741496461
H        1.3134540198    0.7291805257    2.1285705872
25   
torsion grid (-120,)
C        5.2208143892   -1.9194335497    2.7705462861
C        5.1322853651    0.3578872305    2.9165099479
C        3.3294203949   -0.7806031150    1.6983523507
C        4.0291097371   -1.9503530067    2.0527534127
C        3.9568245409    0.3885393063    2.1803935469
C        0.3181115098   -1.1465277733    2.6033004554
C       -0.0292288039    0.3999840408    0.5905728936
C        1.9150147990   -1.7759755445   -0.0453288096
C        0.9740788133   -0.1453960249    1.6103155275
N        5.7730466160   -0.7832283383    3.2086242568
N        2.1651627966   -0.7187644468    0.9342555205
F        3.5218865022   -3.1650109370    1.7099550804
F        3.4007761152    1.5928385865    1.8948722867
H        5.7194726071   -2.8565571944    3.0100666354
H        5.5725561555    1.2926933554    3.2569895062
H        0.8194316882   -2.1182235922    2.5779816410
H        0.3723788713   -0.7790749571    3.6320555108
H       -0.7369765200   -1.3183401737    2.3682960668
H       -0.5260565548   -0.3983575877    0.0304142061
H        0.4630391463    1.0742314927   -0.1166568656
H       -0.8087288955    0.9602604358    1.1164091929
H        1.3123141455   -1.3651951455   -0.8587944110
H        1.3983241067   -2.6527743831    0.3664755286
H        2.8623454948   -2.1066446072   -0.4724121813
H        1.3401478970    0.7122730911    2.1742214302
25   
torsion grid (-105,)
C        5.2838415244   -1.8537593332    2.7690773727
C        5.1426966920    0.4219040300    2.8932620378
C        3.3472976408   -0.7727168439    1.7177796968
C        4.0817260253   -1.9214865395    2.0715283637
C        3.9551325647    0.4163299366    2.1765839298
C        0.2659464102   -1.1867249413    2.5683017737
C        0.0167141381    0.4474429986    0.6209247476
C        1.9226057832   -1.8247714617    0.0146638218
C        0.9811070221   -0.1696464706    1.6392588382
N        5.8157038830   -0.7002465353    3.1866770334
N        2.1715831758   -0.7469862433    0.9718763829
F        3.5996448338   -3.1519582982    1.7491051574
F        3.3663917531    1.6039910193    1.8856291570
H        5.8088607242   -2.7761386441    3.0095399408
H        5.5657708610    1.3707497725    3.2162682847
H        0.8859041290   -2.0715896708    2.7405395071
H        0.0247273250   -0.7402982861    3.5369395508
H       -0.6705776335   -1.5421244993    2.1249862966
H       -0.4588791015   -0.3085518768   -0.0116022499
H        0.5374219487    1.1660407492   -0.0187867347
H       -0.7832135537    0.9726865565    1.1527987335
H        1.2814666151   -1.4433633168   -0.7834487326
H        1.4468149536   -2.7102061752    0.4552110063
H        2.8652520804   -2.1322431103   -0.4396074132
H        1.3372109411    0.6611589571    2.2480267861
25   
torsion grid (-90,)
C        5.4474879150   -1.2534494409    3.0533692927
C        5.0889474686    1.0016144765    3.0629210891
C        3.4370069434   -0.4141907133    1.9222925458
C        4.2714377406   -1.4692659498    2.3420656679
C        3.9218841722    0.8483810772    2.3296491344
C        0.2810140160   -1.0533237525    2.5911034784
C        0.1238651672    0.6003930772    0.6595976968
C        2.1485147938   -1.6811570119    0.2557175665
C        1.0287262043   -0.0029146340    1.7391053446
N        5.8593493938   -0.0357341826    3.4220445571
N        2.2820321952   -0.5383815603    1.1584322923
F        3.9155400806   -2.7541653713    2.0721946584
F        3.2307223068    1.9596405465    1.9679389587
H        6.0527579889   -2.1090118985    3.3465795307
H        5.4140230681    2.0011097376    3.3440235057
H        0.9766536038   -1.7827965684    3.0178284601
H       -0.2757250772   -0.5764170727    3.4027756382
H       -0.4349887997   -1.6184320418    1.9837058735
H       -0.2588665838   -0.1571498810   -0.0316247668
H        0.6631438515    1.3591656641    0.0855368349
H       -0.7436088595    1.0733928470    1.1317672245
H        1.4656141880   -1.4098858642   -0.5528007848
H        1.7744889476   -2.5909672280    0.7410148762
H        3.1173514874   -1.9048057280   -0.1932045067
H        1.3070431926    0.8266405249    2.3889533848
25   
torsion grid (-75,)
C        5.5521305278   -1.4669650130    2.7637360409
C        5.1302960478    0.7739786890    2.8380388687
C        3.4129689370   -0.6798921057    1.8487458037
C        4.3198213444   -1.7121173711    2.1688630733
C        3.9020649838    0.5932092279    2.2205069826
C        0.0675132577   -1.2682793680    2.4416689857
C        0.2364625182    0.6160335121    0.7398023399
C        2.0023669220   -1.9798080064    0.3041619747
C        0.9858312924   -0.2244192844    1.7809150539
N        5.9636649330   -0.2412505899    3.1079403629
N        2.1988810806   -0.8484485739    1.2075067366
F        3.9763306852   -3.0047774299    1.9176011541
F        3.1514484366    1.6903165286    1.9348118758
H        6.2075860082   -2.3071689534    2.9845747026
H        5.4511325143    1.7809455577    3.0967724003
H        0.6488122979   -1.9943307558    3.0191664869
H       -0.6461780588   -0.7760518749    3.1092334674
H       -0.5074474484   -1.8258599555    1.6943022138
H       -0.1423472242    0.0008389090   -0.0830832659
H        0.8939946201    1.3847680452    0.3261090514
H       -0.6253814968    1.1067393944    1.2042671722
H        1.2251194888   -1.7179155904   -0.4185020968
H        1.7096021695   -2.9063430489    0.8115469033
H        2.9214322691   -2.1675846143   -0.2532574295
H        1.3178035927    0.4608875644    2.5608621785
25   
torsion grid (-60,)
C        5.5616869914   -1.4241670820    2.7695728349
C        5.1160410401    0.8112113290    2.8590105182
C        3.4126762524   -0.6542532931    1.8627204338
C        4.3318998012   -1.6789229911    2.1741745018
C        3.8892214385    0.6220374713    2.2411489992
C        0.0573487184   -1.2561620785    2.4235154821
C        0.2514651896    0.6408024792    0.7336509951
C        2.0243680874   -1.9539631203    0.2988514768
C        0.9795366589   -0.2082572510    1.7811030842
N        5.9605406150   -0.1964419913    3.1221351569
N        2.2005059979   -0.8370116889    1.2239803454
F        4.0022303163   -2.9733207703    1.9136372731
F        3.1290974468    1.7145443378    1.9607349503
H        6.2263291116   -2.2587407059    2.9841644201
H        5.4264979757    1.8200191773    3.1232355751
H        0.5914551825   -1.8297135934    3.1879553421
H       -0.7917229348   -0.7585968477    2.9036531833
H       -0.3450716424   -1.9544859004    1.6831911205
H       -0.1428732862    0.0281880227   -0.0840466910
H        0.9285529703    1.3884569950    0.3131173512
H       -0.5971880163    1.1582135019    1.1929296820
H        1.2322747215   -1.6984698553   -0.4097020868
H        1.7639935628   -2.8991258314    0.7887165464
H        2.9420729601   -2.1037286370   -0.2728543995
H        1.3170068639    0.4575027139    2.5754251679
25   
torsion grid (-45,)
C        5.5738355225   -1.3279163540    2.7849393429
C        5.0751967146    0.8951645234    2.8979415340
C        3.4070250655   -0.5992621888    1.8842556645
C        4.3512176474   -1.6046635963    2.1854248047
C        3.8538295439    0.6837662808    2.2762070170
C        0.0383399463   -1.2543384892    2.3973818084
C        0.2543147999    0.6602927469    0.7218969589
C        2.0651264282   -1.9073360016    0.2892673060
C        0.9624743400   -0.1920538781    1.7793120219
N        5.9430710593   -0.0947590230    3.1515871459
N        2.2010337030   -0.8111019871    1.2449545037
F        4.0516311982   -2.9031200421    1.9094614656
F        3.0701655329    1.7624772348    2.0052336232
H        6.2578001386   -2.1488637479    2.9912418957
H        5.3612119277    1.9083288320    3.1730105181
H        0.4679849941   -1.6591356578    3.3190163041
H       -0.9211574839   -0.7967442599    2.6622070020
H       -0.1711693015   -2.0754619077    1.7068294179
H       -0.1538624870    0.0465519108   -0.0883720533
H        0.9478648982    1.3876441217    0.2928448835
H       -0.5824433645    1.2020695027    1.1745286370
H        1.2661614263   -1.6606222485   -0.4147212134
H        1.8382762096   -2.8747498230    0.7513355832
H        2.9887576515   -2.0094289685   -0.2838692734
H        1.2947545404    0.4582454433    2.5880059526
25   
torsion grid (-30,)
C        5.3067309308   -1.1840792558    3.1309666185
C        4.9138076491    1.0603476951    3.2832697460
C        3.3692919189   -0.2813431539    1.9248322080
C        4.1862147785   -1.3568421586    2.3244579869
C        3.8025293555    0.9509932272    2.4597016701
C        0.4216092670   -1.0250906262    2.6371159258
C       -0.0457936012    0.4070911344    0.5693173727
C        2.2432830435   -1.4163288916    0.0622158163
C        0.9602345936    0.0450858124    1.6622773157
N        5.6730762835    0.0068498915    3.6166969820
N        2.2670782899   -0.3617485347    1.0754298741
F        3.8661616920   -2.6202036065    1.9367918371
F        3.1190398994    2.0788493660    2.1395804446
H        5.9031675606   -2.0528092964    3.4025811104
H        5.2026935608    2.0386852343    3.6615167615
H        0.8476288733   -0.8990820823    3.6369086611
H       -0.6646308856   -0.9321288994    2.7462488341
H        0.6306811277   -2.0391856056    2.2862542575
H       -0.4074167588   -0.4757502723    0.0324206254
H        0.3962246955    1.1011001657   -0.1518397050
H       -0.9155455200    0.8910098103    1.0236626022
H        1.6506700413   -1.0725502921   -0.7889445898
H        1.8315375602   -2.3709679946    0.4139826233
H        3.2581134170   -1.5952657902   -0.2950919842
H        1.1837480206    0.9476730167    2.2318666658
25   
torsion grid (-15,)
C        5.2998103511   -1.1757163199    3.1378068356
C        4.9013561810    1.0672848148    3.2920645597
C        3.3646277662   -0.2750739616    1.9261127056
C        4.1822478664   -1.3494471908    2.3272186504
C        3.7930061938    0.9573357768    2.4647517283
C        0.4174665812   -1.0365148049    2.6405867178
C       -0.0518066199    0.4017563188    0.5712129664
C        2.2408021369   -1.4118304650    0.0624343170
C        0.9572981036    0.0405711935    1.6625344098
N        5.6620266928    0.0150743757    3.6264553927
N        2.2647165392   -0.3542209701    1.0726832003
F        3.8666688348   -2.6135758343    1.9374512459
F        3.1076522160    2.0839441756    2.1448796082
H        5.8970211693   -2.0436984560    3.4101005589
H        5.1867976547    2.0455202532    3.6731144643
H        0.6122532961   -0.7624836536    3.6814123462
H       -0.6669352887   -1.1521873254    2.5410104268
H        0.8684577916   -2.0146848246    2.4538330769
H       -0.4020612643   -0.4793672322    0.0242583633
H        0.3817574517    1.1100593944   -0.1412100960
H       -0.9279924862    0.8689462993    1.0310108119
H        1.6516288367   -1.0685361593   -0.7912150071
H        1.8227294063   -2.3628926067    0.4173530959
H        3.2556801658   -1.5966376462   -0.2914345959
H        1.1693873791    0.9476407351    2.2285980112
25   
torsion grid (0,)
C        5.3331973950   -1.2322835823    3.0721932553
C        4.9704357590    1.0172282301    3.2236184869
C        3.3806999229   -0.3108984139    1.9049126017
C        4.1929769828   -1.3945495750    2.2911243081
C        3.8400739531    0.9182382345    2.4254804823
C        0.3861824544   -1.0378818104    2.6400400876
C       -0.0279323547    0.4856705662    0.6227421587
C        2.1873515943   -1.4452834223    0.0822574263
C        0.9750747758    0.0454878729    1.6925225081
N        5.7243779269   -0.0442082044    3.5445512830
N        2.2593285951   -0.3773241827    1.0793219401
F        3.8506700073   -2.6563265067    1.9157665566
F        3.1621464000    2.0521174323    2.1162933436
H        5.9250177528   -2.1072092658    3.3338775360
H        5.2793667582    1.9933107512    3.5916341692
H        0.3361577979   -0.6772398231    3.6715023313
H       -0.6230950178   -1.3370557870    2.3409758150
H        1.0068361880   -1.9385373735    2.6465419830
H       -0.3973672190   -0.3568089513    0.0296814746
H        0.4205914982    1.2220588826   -0.0507814927
H       -0.8947271682    0.9446531994    1.1085887706
H        1.5840451438   -1.0987572346   -0.7601602428
H        1.7566185118   -2.3812721425    0.4613261637
H        3.1882125180   -1.6575030525   -0.2952194457
H        1.2076451695    0.9320795585    2.2820398434
25   
torsion grid (15,)
C        5.3926937760   -1.1553065801    3.0720256561
C        4.9722056031    1.0853224754    3.2009832843
C        3.3972499975   -0.3021983502    1.9253728378
C        4.2455102993   -1.3586360784    2.3112157180
C        3.8329640834    0.9457559454    2.4222262488
C        0.3340938599   -1.0885186393    2.5919420246
C        0.0160896332    0.5432519861    0.6532552184
C        2.1984954302   -1.4983998686    0.1446785412
C        0.9832544144    0.0189873850    1.7201826683
N        5.7592807791    0.0486458892    3.5236982019
N        2.2678333113   -0.4088524652    1.1181917542
F        3.9328798179   -2.6342195722    1.9568777189
F        3.1216328504    2.0576780772    2.1064852702
H        6.0117266812   -2.0108358485    3.3349459457
H        5.2605440722    2.0742398074    3.5510415606
H        0.0073548665   -0.6852185949    3.5551136182
H       -0.5222364921   -1.5583599877    2.0990351755
H        1.0594823565   -1.8756171016    2.8220640745
H       -0.3343668900   -0.2495715944   -0.0149392166
H        0.4892519342    1.3262952689    0.0535625501
H       -0.8671450483    0.9668008594    1.1423355969
H        1.5582745299   -1.1872661277   -0.6841070725
H        1.8090827632   -2.4381500377    0.5564547254
H        3.1929946344   -1.6874080335   -0.2611455793
H        1.2061676790    0.8723992198    2.3599180749
25   
torsion grid (30,)
C        5.5596746146   -0.8139014249    3.2660190110
C        4.9578889165    1.3744248980    3.0263605307
C        3.4973749459   -0.3295030838    2.0252647595
C        4.4332714068   -1.2342638139    2.5666294967
C        3.8338415551    1.0157357909    2.2981400383
C        0.2779948194   -1.2059179656    2.5228012908
C        0.2471210506    0.3668908656    0.5177893647
C        2.3877730929   -1.9101196631    0.4996012639
C        1.0646234678   -0.1591240179    1.7037394822
N        5.8276719871    0.4740328708    3.5073629625
N        2.3858657449   -0.6655341957    1.2663805339
F        4.2279317252   -2.5727367321    2.4327674096
F        3.0384618293    2.0001109105    1.8035211017
H        6.2465548451   -1.5614798833    3.6579959719
H        5.1647614664    2.4282939239    3.2004150337
H       -0.3478841050   -0.7100852026    3.2712594677
H       -0.3542090107   -1.8395155289    1.8933512857
H        0.9639930555   -1.8545390998    3.0782768043
H       -0.0047967123   -0.4271690037   -0.1925059814
H        0.8002233368    1.1471697997   -0.0119313305
H       -0.6961697212    0.7908325371    0.8781109018
H        1.6854940862   -1.8080645847   -0.3313394236
H        2.1096892406   -2.7938332413    1.0860065783
H        3.3790500401   -2.0761419275    0.0751323844
H        1.2450983625    0.7009538066    2.3474993662
25   
torsion grid (45,)
C        5.6111463871   -0.6821812675    3.2557525203
C        4.9220185117    1.4788187154    3.0063536240
C        3.4959142276   -0.2911186794    2.0705053233
C        4.4820776271   -1.1528897402    2.5948665434
C        3.7919238582    1.0695409009    2.3154658903
C        0.2252629283   -1.2345708990    2.4965791776
C        0.2892020612    0.4150108513    0.5585787409
C        2.4024421223   -1.9366894722    0.5995527275
C        1.0506491920   -0.1684260540    1.7544531534
N        5.8381047328    0.6181134048    3.4738485196
N        2.3797237606   -0.6847725395    1.3532235046
F        4.3230274315   -2.4998527757    2.4827653572
F        2.9498541715    2.0191736310    1.8278009262
H        6.3360601884   -1.3990089390    3.6365891453
H        5.0943755430    2.5420999837    3.1598950370
H       -0.5903337378   -0.7571096790    3.0490439524
H       -0.2065013304   -1.9725009048    1.8131794961
H        0.8461305588   -1.7640344810    3.2271304544
H        0.0389215752   -0.3534052293   -0.1804146420
H        0.8855767028    1.1889182299    0.0686758786
H       -0.6520409853    0.8614662859    0.8963039947
H        1.6570687855   -1.8753325801   -0.1973814757
H        2.1922543652   -2.8244549454    1.2069887353
H        3.3790481079   -2.0635075973    0.1291065985
H        1.2240767878    0.6528842440    2.4494326909
25   
torsion grid (60,)
C        5.5862176125   -0.9179181857    3.1488782747
C        4.9779712412    1.2730184668    2.9687594491
C        3.4619658484   -0.4152895755    2.0230497139
C        4.4257682778   -1.3278005339    2.5030916119
C        3.8174166264    0.9262216990    2.2938506406
C        0.1249539288   -1.2171849340    2.4184179516
C        0.3106016948    0.5064477734    0.5514001670
C        2.2904905359   -1.9724888892    0.5183273237
C        1.0162100861   -0.1714210900    1.7306396840
N        5.8697224882    0.3666771991    3.3941991878
N        2.3171153126   -0.7564021338    1.3276373537
F        4.2093897996   -2.6639211698    2.3611682224
F        3.0052385108    1.9218248187    1.8474193619
H        6.2904819568   -1.6716804343    3.4955011879
H        5.1953195104    2.3247184929    3.1436470110
H       -0.7963898060   -0.7449936446    2.7746317349
H       -0.1636775940   -2.0188241572    1.7311723804
H        0.6377263144   -1.6662802258    3.2749790005
H        0.0202313873   -0.2159296513   -0.2188645036
H        0.9639846556    1.2556541043    0.0974774620
H       -0.6028927426    1.0028660344    0.8948486389
H        1.5369321746   -1.8539999666   -0.2645047446
H        2.0628488610   -2.8802923713    1.0885238701
H        3.2564581964   -2.1069361718    0.0281226393
H        1.2454305877    0.5964744660    2.4694520308
25   
torsion grid (75,)
C        5.5948552385   -1.2939143164    2.9461732337
C        5.0670138209    0.9232646626    2.8519544571
C        3.4440821537   -0.6767308943    1.9309483473
C        4.3917444840   -1.6387887825    2.3423360313
C        3.8650424644    0.6417960623    2.2202501891
C        0.0821789148   -1.3411680403    2.4310901408
C        0.2935238708    0.4175288557    0.5929964806
C        2.1629571809   -2.1338714300    0.4171777449
C        0.9980762182   -0.3204650796    1.7351754736
N        5.9395091581   -0.0285083413    3.2130150841
N        2.2579136365   -0.9597950868    1.2813514091
F        4.1149666039   -2.9604196358    2.1735038077
F        3.0766292179    1.6817468511    1.8357336453
H        6.2827868521   -2.0841027791    3.2405675432
H        5.3338783878    1.9603880843    3.0445652303
H       -0.9050406888   -0.9029930992    2.6100950082
H       -0.0825165934   -2.2211548721    1.8014871545
H        0.5080488153   -1.6773213825    3.3809307308
H       -0.0833557255   -0.2743823628   -0.1678983745
H        0.9795930192    1.1212039669    0.1150690928
H       -0.5645374364    0.9765299316    0.9800136688
H        1.3761179708   -1.9615859308   -0.3215653131
H        1.9428604862   -3.0643074398    0.9524619261
H        3.1012167102   -2.2645207789   -0.1257161176
H        1.3030199163    0.4092680350    2.4847767019
25   
torsion grid (90,)
C        5.2686882081   -1.7813741954    2.9491852723
C        5.1290976208    0.4981091156    2.9497400847
C        3.3818229474   -0.7538283558    1.7621871769
C        4.0968876745   -1.8833472644    2.2061000838
C        3.9725352567    0.4566985749    2.1843591855
C        0.4113605990   -1.1016474435    2.6542740742
C       -0.0038703344    0.2106962058    0.5000040797
C        2.0481517858   -1.8839374322    0.0389098184
C        1.0129567152   -0.1758014917    1.5743357134
N        5.7856561550   -0.6077543391    3.3286070136
N        2.2361895850   -0.7708953487    0.9689093150
F        3.6227151193   -3.1269544780    1.9278884535
F        3.4008599372    1.6291042927    1.8095472673
H        5.7804201260   -2.6903018980    3.2593474191
H        5.5408389017    1.4620666746    3.2411809878
H       -0.6590345552   -0.9129625151    2.7856585231
H        0.5014431818   -2.1514493222    2.3568122275
H        0.9177763557   -0.9841130515    3.6161606657
H       -0.4890029218   -0.6648244862    0.0565542085
H        0.4723585344    0.7902675651   -0.2964558509
H       -0.7890865612    0.8256106110    0.9498953527
H        1.4525153381   -1.5368545008   -0.8087164568
H        1.5559653105   -2.7611164211    0.4781143290
H        3.0185379579   -2.1973433693   -0.3480809677
H        1.3613251770    0.7381910703    2.0565273292
25   
torsion grid (105,)
C        5.2626324981   -1.7747956098    2.9528983244
C        5.1210803054    0.5042754098    2.9534920143
C        3.3788114787   -0.7490749498    1.7602358526
C        4.0930285124   -1.8780591283    2.2062497639
C        3.9667596219    0.4619108782    2.1848900653
C        0.4057546812   -1.1154365603    2.6563903961
C       -0.0073055899    0.2121588575    0.5037903638
C        2.0439160741   -1.8806689983    0.0381604897
C        1.0106419095   -0.1809649175    1.5755563841
N        5.7776294826   -0.6010720508    3.3339668556
N        2.2349290765   -0.7636172690    0.9630023564
F        3.6215217622   -3.1227268223    1.9269605026
F        3.3938401832    1.6333696140    1.8097963312
H        5.7742520471   -2.6833042817    3.2644296708
H        5.5310229477    1.4684574931    3.2466429724
H       -0.6874709493   -1.1335497659    2.6067554087
H        0.7394941682   -2.1473540088    2.5107907545
H        0.7048945013   -0.8153406422    3.6642222484
H       -0.4815531165   -0.6608711482    0.0441984962
H        0.4646569357    0.8110741892   -0.2808800466
H       -0.8008442850    0.8097783423    0.9626211077
H        1.4529727653   -1.5344405495   -0.8130668097
H        1.5432530073   -2.7511270252    0.4818553969
H        3.0131402227   -2.2032735671   -0.3438311626
H        1.3503618834    0.7350418572    2.0591468594
25   
torsion grid (120,)
C        5.2881970659   -1.8346459183    2.8911588609
C        5.1767782492    0.4463791184    2.8915366221
C        3.3904246431   -0.7854862790    1.7415893585
C        4.1000910997   -1.9232082751    2.1722604172
C        4.0043462056    0.4181526915    2.1504676429
C        0.3776743584   -1.1202194290    2.6558768867
C        0.0266147668    0.2909148672    0.5468014213
C        1.9923406061   -1.9053886671    0.0614346145
C        1.0299733864   -0.1791387349    1.6034823757
N        5.8273210428   -0.6673369325    3.2581588569
N        2.2290391550   -0.7842571705    0.9707907386
F        3.6064686002   -3.1622737030    1.9053476131
F        3.4379320692    1.5962477594    1.7866414489
H        5.7949932889   -2.7495691851    3.1916609913
H        5.6062477747    1.4054090609    3.1734258420
H       -0.6748339625   -1.3166022318    2.4290462118
H        0.8915738683   -2.0844755171    2.7019412566
H        0.4214084852   -0.6830015853    3.6576745686
H       -0.4622051690   -0.5459553590    0.0382395698
H        0.5166315790    0.9214307193   -0.2011620949
H       -0.7589547524    0.8783846095    1.0324019415
H        1.3872755820   -1.5545731465   -0.7778892607
H        1.4839342614   -2.7590307374    0.5284503260
H        2.9441435876   -2.2528764950   -0.3417517018
H        1.3857737631    0.7162153159    2.1126767730
25   
torsion grid (135,)
C        5.3588335443   -1.7602461254    2.8836777316
C        5.1862530268    0.5166282084    2.8613624917
C        3.4106739056   -0.7755893806    1.7613644541
C        4.1598240707   -1.8891612946    2.1895055368
C        4.0009976426    0.4487607502    2.1441677800
C        0.3173708137   -1.1758769352    2.6109750674
C        0.0797622909    0.3462042004    0.5742859751
C        2.0037291923   -1.9544879300    0.1273514443
C        1.0370349226   -0.2073905659    1.6351208247
N        5.8736703105   -0.5750428750    3.2275175407
N        2.2373512222   -0.8139944536    1.0129097521
F        3.6954065551   -3.1443429381    1.9459668546
F        3.3970538069    1.6071478086    1.7760504542
H        5.8956340020   -2.6579974347    3.1839376472
H        5.5954538237    1.4899952470    3.1235707142
H       -0.6236346626   -1.5500587967    2.1951387187
H        0.9498244161   -2.0268647684    2.8784055671
H        0.0604055707   -0.6566253976    3.5400377501
H       -0.3844300112   -0.4467053030   -0.0203623319
H        0.6035507114    1.0313272468   -0.0986930570
H       -0.7288766704    0.8953988214    1.0674921082
H        1.3604766770   -1.6332061081   -0.6952241877
H        1.5363191943   -2.8142446607    0.6240380041
H        2.9509595501   -2.2802463703   -0.3040076038
H        1.3812985787    0.6577869138    2.2009500856
25   
torsion grid (150,)
C        5.5363887772   -1.5692453389    2.8136596019
C        5.1990638644    0.6873240744    2.7761224734
C        3.4464621949   -0.7467555715    1.8202656199
C        4.3065086073   -1.7959583970    2.2058262914
C        3.9764703800    0.5231606615    2.1430745318
C        0.1286520224   -1.2219229751    2.4815260988
C        0.2614815982    0.5304280717    0.6389743717
C        2.0094814046   -2.0631091553    0.3144744634
C        1.0372661561   -0.2325152100    1.7196849182
N        5.9876352001   -0.3449892093    3.1090327988
N        2.2377107192   -0.8933412150    1.1600785180
F        3.9198747684   -3.0856540969    2.0078287067
F        3.2727174110    1.6321267023    1.7927984014
H        6.1552574091   -2.4219783155    3.0860519797
H        5.5533730514    1.6925353454    2.9948448343
H       -0.6410827078   -1.6519547929    1.8321470043
H        0.7034655394   -2.0259298723    2.9496871633
H       -0.4046742932   -0.6893852738    3.2763714624
H       -0.1324639191   -0.1393024656   -0.1323300559
H        0.9046486739    1.2738025343    0.1607314961
H       -0.5932169780    1.0463353355    1.0894137037
H        1.2533153871   -1.8101899258   -0.4329006067
H        1.6727617585   -2.9494021016    0.8649900199
H        2.9280006043   -2.3157337751   -0.2174659546
H        1.3810364641    0.5188580823    2.4295377466
25   
torsion grid (165,)
C        5.4595237007   -1.8246105387    2.6768920756
C        5.2143708843    0.4432555531    2.7012399893
C        3.3798603472   -0.8953226276    1.7600305782
C        4.2066577998   -1.9878838777    2.0968372103
C        3.9704226176    0.3444232154    2.0972318298
C        0.0207302069   -1.2128474864    2.4185687811
C        0.2860916038    0.6039146017    0.6562904650
C        1.8519658207   -2.1180826378    0.2641233092
C        0.9944820979   -0.2557332207    1.7091883665
N        5.9685310571   -0.6274927181    2.9894152883
N        2.1504388224   -0.9805921866    1.1312897308
F        3.7632905645   -3.2560154168    1.8782906104
F        3.3057879462    1.4900379523    1.7892337429
H        6.0498282613   -2.7079810935    2.9125006247
H        5.6152057395    1.4278473704    2.9330637580
H       -0.6134400089   -1.7508411319    1.7063659604
H        0.5562033727   -1.9381262689    3.0389885535
H       -0.6479064255   -0.6390149167    3.0690415217
H       -0.1756220430   -0.0074475416   -0.1263209934
H        0.9941432448    1.2925498808    0.1884753497
H       -0.5117225371    1.1895752171    1.1253037373
H        1.0742686394   -1.8202621042   -0.4437228270
H        1.5110197165   -3.0095195848    0.8030287277
H        2.7398655524   -2.3821394763   -0.3130464177
H        1.3906393057    0.4258477231    2.4615951467
25   
torsion grid (180,)
C        5.4228314701   -2.0602927539    2.5030269671
C        5.2210575553    0.2102214282    2.5894186180
C        3.3297219301   -1.0708284915    1.6806561595
C        4.1484085112   -2.1854185096    1.9628694292
C        3.9555808149    0.1491849440    2.0259913345
C       -0.0480800705   -1.3033877670    2.3810776286
C        0.2847970828    0.5516218441    0.6657505716
C        1.7468946885   -2.2240379965    0.1887726817
C        0.9562950509   -0.3657818060    1.6931290735
N        5.9645170510   -0.8801246260    2.8264325857
N        2.0785803149   -1.1281668255    1.0962593635
F        3.6723482431   -3.4388009929    1.7293611097
F        3.3049995978    1.3153010413    1.7668102593
H        6.0037041494   -2.9598353996    2.6972987120
H        5.6477598939    1.1817571561    2.8301799683
H       -0.5366810274   -1.9718127148    1.6653023293
H        0.4512814865   -1.9206436203    3.1351368817
H       -0.8279552741   -0.7177660970    2.8782273154
H       -0.2127690900   -0.0191525213   -0.1255495208
H        1.0236400683    1.2128373621    0.2062241538
H       -0.4780379712    1.1672891507    1.1535377828
H        0.9561007100   -1.8895181426   -0.4875800097
H        1.4106082356   -3.1348541585    0.6970538289
H        2.6183862294   -2.4714268254   -0.4201766172
H        1.3963934540    0.2624836426    2.4674524985
