22   
torsion grid (-165,)
C        7.7579232858   -2.1332354273    1.1196277417
C        8.5165048937   -2.8560089956    2.0415773644
C        6.8043469965   -2.4498143990    3.7155933196
C        6.5253342785   -1.5547240556    1.4548914164
C        6.0602934570   -1.7309378789    2.7728218142
C        8.0193996623   -2.9997014025    3.3309612176
C        4.3459647956   -1.4230412800   -1.6382874217
C        4.8907327567   -1.7560238061   -0.4644745962
C        5.7516073723   -0.8237863041    0.3739903201
C        4.7428375062   -1.1355258981    3.2126835963
F        8.7394677689   -3.6957493618    4.2447953483
F        4.4175112132   -1.4836244213    4.4792583516
F        4.7601540332    0.2250871875    3.1756552101
F        3.7137913396   -1.5322782805    2.4198436841
H        8.1312908950   -2.0140459044    0.1058082679
H        9.4714536504   -3.2984169050    1.7750500224
H        6.4508675220   -2.5837189761    4.7313069574
H        3.7052231932   -2.1146997543   -2.1788490467
H        4.5227674830   -0.4526888255   -2.1003145954
H        4.6752688364   -2.7324222853   -0.0333777875
H        5.1158668000   -0.0511485752    0.8128205942
H        6.4612137879   -0.3002723458   -0.2746238709
22   
torsion grid (-150,)
C        7.7051641795   -2.1220917966    1.0774096568
C        8.5037707535   -2.8468683127    1.9623205464
C        6.8636508549   -2.4502918614    3.7113180011
C        6.4880742644   -1.5449553446    1.4683589325
C        6.0796463674   -1.7281047456    2.8034825685
C        8.0618034384   -2.9950977024    3.2715378794
C        4.5225075621   -1.5080266894   -1.7131097920
C        4.8521559708   -1.7464876994   -0.4399731993
C        5.6732825269   -0.8066165607    0.4209924323
C        4.7785042667   -1.1427844824    3.3008326886
F        8.8218238820   -3.6935356609    4.1504344977
F        4.5088372566   -1.4968340920    4.5784315685
F        4.7825493820    0.2176019735    3.2663703850
F        3.7188856116   -1.5463751335    2.5503833994
H        8.0315161519   -2.0006955516    0.0477699527
H        9.4464968436   -3.2880499695    1.6534403492
H        6.5536123805   -2.5903299479    4.7403323775
H        3.8859115700   -2.1910293097   -2.2695327357
H        4.8819710857   -0.6275853280   -2.2438144126
H        4.4608722669   -2.6318091191    0.0594007253
H        4.9997677845   -0.0890097805    0.8959364839
H        6.3466113463   -0.2210993354   -0.2127463384
22   
torsion grid (-135,)
C        7.6505100222   -2.0933768057    1.0436966979
C        8.4713326459   -2.8280893555    1.8992438378
C        6.8808214327   -2.4468651798    3.6955603797
C        6.4464045175   -1.5172062972    1.4739960742
C        6.0735378337   -1.7132862915    2.8174239836
C        8.0657021067   -2.9892128289    3.2188132213
C        4.6764618488   -1.5944420083   -1.7387289528
C        4.7926999600   -1.6981260748   -0.4110531775
C        5.6076398339   -0.7630890430    0.4547596902
C        4.7886072721   -1.1296008556    3.3565969537
F        8.8482497149   -3.6976358790    4.0696354247
F        4.5532283954   -1.4955704422    4.6373868050
F        4.7947460870    0.2308464873    3.3348650752
F        3.7064467599   -1.5232151632    2.6320043735
H        7.9469675598   -1.9645275501    0.0059990457
H        9.4040625027   -3.2682956453    1.5601315637
H        6.5985264710   -2.5971902535    4.7310453145
H        4.0466008495   -2.2738644326   -2.3073011162
H        5.2076909760   -0.8285028616   -2.3016250361
H        4.2403101526   -2.4727113108    0.1194369841
H        4.9328631069   -0.0624918406    0.9528006832
H        6.2675998221   -0.1617456405   -0.1781644942
22   
torsion grid (-120,)
C        7.6062829470   -2.0648971830    1.0111348062
C        8.4419807966   -2.8148175821    1.8382665260
C        6.8838144681   -2.4693205802    3.6694810711
C        6.4103839353   -1.4976176575    1.4739245141
C        6.0612343022   -1.7194307081    2.8196484636
C        8.0601087370   -3.0017558550    3.1616741055
C        4.8234218243   -1.7023445100   -1.7204775489
C        4.7363497407   -1.6475262697   -0.3875269177
C        5.5538884955   -0.7220745904    0.4835596438
C        4.7874799501   -1.1439655159    3.3925747008
F        8.8579515091   -3.7260604792    3.9845311486
F        4.5733094863   -1.5350842886    4.6694514990
F        4.7967317369    0.2166123475    3.3979785127
F        3.6909970220   -1.5201642636    2.6795390456
H        7.8832817687   -1.9182940226   -0.0295129951
H        9.3685661396   -3.2481232974    1.4743398868
H        6.6198514760   -2.6395342184    4.7067252065
H        4.2086734637   -2.3854278556   -2.3011720689
H        5.5058141253   -1.0609102859   -2.2760134834
H        4.0434659276   -2.3040854357    0.1373612333
H        4.8894282056   -0.0279074310    1.0028293523
H        6.2094987825   -0.1159068772   -0.1495657723
22   
torsion grid (-105,)
C        7.5719420056   -2.0210073983    0.9812435998
C        8.4147825691   -2.7887304953    1.7840655523
C        6.8802498040   -2.4746370577    3.6403064964
C        6.3835756413   -1.4596162021    1.4695095086
C        6.0502035518   -1.7055985628    2.8150854882
C        8.0484163289   -3.0006886486    3.1082209298
C        4.9412176324   -1.8121289587   -1.6619181108
C        4.6854456169   -1.5681917135   -0.3724312334
C        5.5157488373   -0.6600307321    0.5063429055
C        4.7859944832   -1.1365765234    3.4147629327
F        8.8539765411   -3.7434286575    3.9068388011
F        4.5849192908   -1.5528121436    4.6856954614
F        4.8013926041    0.2236724804    3.4479789657
F        3.6788700008   -1.4927617905    2.7074632100
H        7.8376298280   -1.8561146961   -0.0594947464
H        9.3357257352   -3.2173297061    1.4007751880
H        6.6279795091   -2.6642546878    4.6770972596
H        4.3292149299   -2.4978930547   -2.2423106797
H        5.7613637125   -1.3227893869   -2.1852109861
H        3.8617621801   -2.0826809514    0.1207765099
H        4.8663779919    0.0331946007    1.0438714883
H        6.1731441264   -0.0532423231   -0.1243662804
22   
torsion grid (-90,)
C        7.5771329611   -1.9441369878    0.9568195225
C        8.4137843098   -2.7343348744    1.7444027470
C        6.8637849537   -2.4744744618    3.5954880959
C        6.3819455441   -1.4011914367    1.4488857914
C        6.0400337954   -1.6829939511    2.7856705027
C        8.0358523093   -2.9863101239    3.0580150405
C        4.9855407850   -1.9430566900   -1.5552188579
C        4.6320442701   -1.4614059490   -0.3592188044
C        5.5134186576   -0.5804711810    0.5040970888
C        4.7758426920   -1.1236752826    3.3945478718
F        8.8347460922   -3.7522226066    3.8413257264
F        4.5660153158   -1.5729322584    4.6528916062
F        4.8003992777    0.2353553890    3.4651369757
F        3.6693693293   -1.4517374219    2.6734748313
H        7.8569193784   -1.7451837419   -0.0739978282
H        9.3396540887   -3.1485488866    1.3571894831
H        6.6041331030   -2.6917907064    4.6249794870
H        4.3335484845   -2.6102964749   -2.1130647776
H        5.9295374275   -1.6742460542   -2.0270859870
H        3.6853736839   -1.7684622997    0.0822294517
H        4.9023651153    0.1376256080    1.0525921978
H        6.1788306364    0.0007986981   -0.1420267691
22   
torsion grid (-75,)
C        7.6233492120   -1.8580921696    0.9573388438
C        8.4452582781   -2.6816127289    1.7277424011
C        6.8352483835   -2.5354648428    3.5395830567
C        6.4034746572   -1.3599962864    1.4359850882
C        6.0271883313   -1.7118306165    2.7476891114
C        8.0283815151   -3.0088747789    3.0117215533
C        4.9447017237   -2.0876097921   -1.3792350268
C        4.5852781767   -1.3480987502   -0.3256031679
C        5.5451536951   -0.5123106874    0.5086118038
C        4.7466943245   -1.1854488997    3.3518628487
F        8.8109410137   -3.8073270265    3.7790157212
F        4.5099293896   -1.6933595429    4.5830043313
F        4.7677960452    0.1694162187    3.4871571156
F        3.6579574921   -1.4789934383    2.5921884447
H        7.9403178594   -1.5921408837   -0.0471910295
H        9.3895656918   -3.0612471326    1.3497068496
H        6.5491414079   -2.8060022545    4.5492962718
H        4.2211954409   -2.6911414319   -1.9210617682
H        5.9710431533   -2.1152196863   -1.7418224908
H        3.5507409175   -1.3713225680    0.0102208548
H        4.9887381563    0.2400893409    1.0690607331
H        6.2176725511    0.0326792738   -0.1610907736
22   
torsion grid (-60,)
C        7.6800802703   -1.7619627852    0.9412317947
C        8.4956836256   -2.5951490748    1.7096440183
C        6.8324344107   -2.5336868273    3.4770265623
C        6.4370340349   -1.3035561345    1.3991025456
C        6.0308673474   -1.7016437211    2.6889876774
C        8.0491585806   -2.9701577032    2.9696117197
C        4.9346587923   -2.2249953119   -1.2146407801
C        4.5952816291   -1.2644354042   -0.3500966301
C        5.5844937477   -0.4498833748    0.4765518504
C        4.7258288768   -1.2136792055    3.2731713152
F        8.8239015017   -3.7776982014    3.7353631541
F        4.4651598582   -1.7612809833    4.4826569713
F        4.7243795696    0.1372851937    3.4494079474
F        3.6631633573   -1.4986791069    2.4772250752
H        8.0220199266   -1.4542086139   -0.0431461519
H        9.4576129166   -2.9449216423    1.3476052499
H        6.5243844939   -2.8393417943    4.4701033943
H        4.1806451314   -2.7672002996   -1.7790646756
H        5.9705228868   -2.5156523164   -1.3799606033
H        3.5427231153   -1.0284129398   -0.2081157624
H        5.0431167083    0.3085373045    1.0437866911
H        6.2542897598    0.0927640431   -0.1983768840
22   
torsion grid (-45,)
C        7.6932263345   -1.6591595034    0.9026174871
C        8.5280937924   -2.4947257803    1.6482136781
C        6.8751568931   -2.4968183926    3.4272337874
C        6.4464909681   -1.2306463026    1.3783763822
C        6.0544480680   -1.6630742166    2.6617985385
C        8.0958716087   -2.9022429965    2.9027257818
C        4.8754609707   -2.2976509294   -1.0302668152
C        4.5862810710   -1.1811402761   -0.3556434987
C        5.5728460091   -0.3760918685    0.4810212111
C        4.7469785527   -1.2057993713    3.2665120231
F        8.8885754945   -3.7123790502    3.6469430256
F        4.5034579967   -1.7861523611    4.4646855138
F        4.7337778122    0.1406555419    3.4773367000
F        3.6818606837   -1.4818498482    2.4734431309
H        8.0205065973   -1.3274425190   -0.0791134483
H        9.4924896586   -2.8223226785    1.2723231634
H        6.5792544909   -2.8277843027    4.4159055663
H        4.1231144104   -2.7979656883   -1.6341641898
H        5.8569024476   -2.7649079966   -0.9848745490
H        3.5818223545   -0.7673399799   -0.4266241163
H        5.0225797614    0.3597980430    1.0699262520
H        6.2207462389    0.1995501866   -0.1896118740
22   
torsion grid (-30,)
C        7.6960961521   -1.6307735270    0.8802496584
C        8.5370815525   -2.4701081674    1.6142400406
C        6.8867811769   -2.5025946878    3.3963091703
C        6.4486848541   -1.2133786122    1.3642244404
C        6.0597433250   -1.6647878072    2.6417212972
C        8.1092077914   -2.8936311900    2.8651778843
C        4.8623730981   -2.3569346058   -0.9206528779
C        4.6354998946   -1.1383230158   -0.4214924536
C        5.5736933634   -0.3511004249    0.4784966880
C        4.7493408785   -1.2245181801    3.2538868434
F        8.9080055955   -3.7075027786    3.5985546144
F        4.5124872352   -1.8228791407    4.4448354713
F        4.7285802315    0.1188579254    3.4840178754
F        3.6855540445   -1.4967864026    2.4594372483
H        8.0158110448   -1.2900223564   -0.1009582624
H        9.5018715026   -2.7893643126    1.2322730265
H        6.5941455034   -2.8474648766    4.3811886859
H        4.1489128992   -2.8265245291   -1.5925827626
H        5.7442110525   -2.9365428386   -0.6583188466
H        3.7290147048   -0.6096524236   -0.7142961121
H        4.9841131920    0.3447803913    1.0791560976
H        6.2171154043    0.2753402878   -0.1515277139
22   
torsion grid (-15,)
C        7.6865763476   -1.5950793865    0.8521217727
C        8.5374899948   -2.4314134965    1.5768674456
C        6.9022196819   -2.4790369795    3.3716126517
C        6.4415428631   -1.1839649241    1.3482262083
C        6.0642289644   -1.6432380759    2.6256541159
C        8.1229509103   -2.8605480622    2.8309646914
C        4.8190349982   -2.3737964232   -0.8393511154
C        4.6882734905   -1.0885600039   -0.4978248802
C        5.5629852183   -0.3174793783    0.4712098077
C        4.7529188566   -1.2179279362    3.2468480856
F        8.9328123998   -3.6715060858    3.5553449916
F        4.5307478165   -1.8202668726    4.4387930785
F        4.7183066371    0.1247774231    3.4788293170
F        3.6881834481   -1.5022426826    2.4585550082
H        7.9933698737   -1.2539239889   -0.1330863096
H        9.5004140097   -2.7451820584    1.1858088572
H        6.6182637134   -2.8295269826    4.3570033263
H        4.1530362760   -2.8267988371   -1.5688942437
H        5.5715474892   -3.0190284989   -0.3932016676
H        3.9108296623   -0.4923641821   -0.9756708725
H        4.9263784527    0.3333172585    1.0756191262
H        6.2028400634    0.3600248564   -0.1089361245
22   
torsion grid (0,)
C        7.6806922713   -1.6070393033    0.8542091798
C        8.5382245590   -2.4420835306    1.5708924321
C        6.9106679766   -2.5070864846    3.3729998051
C        6.4365049130   -1.2024400254    1.3590490198
C        6.0656384064   -1.6707655697    2.6340296539
C        8.1308794059   -2.8783363122    2.8257050098
C        4.7748668187   -2.3956087625   -0.7767739535
C        4.7660136430   -1.0770244152   -0.5604389902
C        5.5586747827   -0.3272244395    0.4894673667
C        4.7495248746   -1.2631554461    3.2567121792
F        8.9484386091   -3.6885284592    3.5421665798
F        4.5341537440   -1.8712225655    4.4469583716
F        4.6959151453    0.0781392549    3.4913322444
F        3.6897808933   -1.5608580153    2.4658522755
H        7.9792034038   -1.2624321725   -0.1323120159
H        9.5006601820   -2.7503242264    1.1742206768
H        6.6312658028   -2.8656389207    4.3567545133
H        4.1646235108   -2.8366110267   -1.5604209456
H        5.3766353741   -3.0762356959   -0.1801310164
H        4.1372337521   -0.4429447416   -1.1859921301
H        4.8654180400    0.2662790533    1.0912008329
H        6.1962279498    0.4057845532   -0.0219100466
22   
torsion grid (15,)
C        7.6477120756   -1.5431086598    0.8121207172
C        8.5109910270   -2.3597259001    1.5415404389
C        6.8838587540   -2.4130965910    3.3437465206
C        6.4002601383   -1.1401998335    1.3111684683
C        6.0324180050   -1.5938133502    2.5918125677
C        8.1072675820   -2.7813264044    2.8031617385
C        4.6646835299   -2.3583318916   -0.7627296574
C        4.8119182677   -1.0329803770   -0.6768172523
C        5.5220951175   -0.2777009447    0.4272740912
C        4.7103077190   -1.1928305460    3.2054622679
F        8.9318303044   -3.5741803873    3.5310072301
F        4.5004743191   -1.7837051411    4.4051867673
F        4.6363200910    0.1509614827    3.4168231141
F        3.6564492948   -1.5201901658    2.4170388308
H        7.9428936098   -1.2124156427   -0.1801262507
H        9.4760717290   -2.6660247766    1.1498197873
H        6.6057822317   -2.7609024973    4.3317304598
H        4.1090199650   -2.8064191871   -1.5821260968
H        5.0922259281   -3.0361985788   -0.0283230269
H        4.3529400864   -0.3994402770   -1.4361836835
H        4.7777872625    0.2728694644    1.0083484830
H        6.1540316064    0.4915504834   -0.0345522013
22   
torsion grid (30,)
C        7.6299257532   -1.5263470708    0.8159350694
C        8.4886216683   -2.3274998629    1.5662938040
C        6.8377498951   -2.3692665769    3.3483875335
C        6.3734771943   -1.1239871886    1.2934708385
C        5.9919260304   -1.5637131257    2.5743328808
C        8.0699194331   -2.7354824979    2.8280988086
C        4.5754610292   -2.3221498077   -0.7868324070
C        4.9005257078   -1.0258714802   -0.7801250033
C        5.5062791334   -0.2702885870    0.3874720624
C        4.6575370959   -1.1670552846    3.1629066135
F        8.8898975656   -3.5143584237    3.5760072158
F        4.4362889021   -1.7396139929    4.3692183247
F        4.5627722768    0.1786611156    3.3484628142
F        3.6185509902   -1.5222190093    2.3643095980
H        7.9356397866   -1.2073283627   -0.1769145952
H        9.4606057449   -2.6330566763    1.1912840979
H        6.5481756732   -2.7075870205    4.3363562490
H        4.0978521896   -2.7750714439   -1.6515698916
H        4.7853995609   -2.9735322370    0.0579811507
H        4.6554111685   -0.4148458211   -1.6488553072
H        4.7049169982    0.2273281795    0.9385254029
H        6.1317204772    0.5378489603   -0.0102964225
22   
torsion grid (45,)
C        7.3422322741   -1.6907094161    0.6834853434
C        8.3617884237   -2.4176176131    1.3023704799
C        7.0610440522   -2.4320904671    3.3540802913
C        6.1784157890   -1.3112307953    1.3658725205
C        6.0545388814   -1.7018146270    2.7153849219
C        8.1999572173   -2.7712920435    2.6348122409
C        6.5012736321    1.6784101871    0.7734189023
C        5.3347046947    1.0307332651    0.8444547136
C        5.1475756217   -0.4676514295    0.6417254720
C        4.8082313532   -1.3746581933    3.5054251053
F        9.1759113363   -3.4781351732    3.2563287998
F        4.9036802131   -1.7608800664    4.7989671333
F        4.5291227679   -0.0473713664    3.5125949744
F        3.7096368999   -1.9987831552    2.9944081262
H        7.4523414040   -1.4107282445   -0.3608005044
H        9.2611306460   -2.7083047741    0.7682044885
H        6.9680359447   -2.7379435763    4.3896955835
H        6.5554818572    2.7568330899    0.8964526062
H        7.4433168260    1.1570203990    0.6176370528
H        4.4233381506    1.6009010414    1.0162915687
H        5.2060004067   -0.6905370851   -0.4295886485
H        4.1385768081   -0.7461417416    0.9506539026
22   
torsion grid (60,)
C        7.3845634461   -1.6665736347    0.7314983543
C        8.3921832641   -2.4069412955    1.3531193800
C        7.0522597196   -2.4637089076    3.3769853369
C        6.2071213080   -1.2993221611    1.3976015570
C        6.0574148448   -1.7195572110    2.7348629649
C        8.2052226445   -2.7890639818    2.6746963615
C        6.4867815988    1.7356008069    0.5918758635
C        5.3820227944    1.0521406355    0.9044137029
C        5.1879755197   -0.4417579014    0.6677721995
C        4.7982789461   -1.4036805549    3.5076962376
F        9.1687809394   -3.5097316952    3.2999066940
F        4.8663343987   -1.8144519348    4.7950590335
F        4.5271429152   -0.0733679748    3.5351138629
F        3.7056572022   -2.0088724438    2.9635537561
H        7.5147834225   -1.3687304789   -0.3053049252
H        9.3007466119   -2.6878939608    0.8293749989
H        6.9390330708   -2.7906228886    4.4040414948
H        6.5615545076    2.8030680255    0.7816642990
H        7.3590991911    1.2561537364    0.1513983582
H        4.5467314382    1.5777943828    1.3623645951
H        5.2754057828   -0.6492833783   -0.4036358643
H        4.1730020314   -0.7237685645    0.9512158048
22   
torsion grid (75,)
C        7.4246490789   -1.6135048232    0.7879830957
C        8.4191552675   -2.3750840655    1.4030479984
C        7.0332814391   -2.5195358850    3.3903029792
C        6.2286310660   -1.2797157555    1.4386575820
C        6.0501989067   -1.7533955215    2.7537919943
C        8.2032105227   -2.8126743036    2.7035822325
C        6.4489893397    1.7867891318    0.3755646969
C        5.4658014200    1.0832414638    0.9452256580
C        5.2211691280   -0.4005655621    0.7124722941
C        4.7739999885   -1.4699862353    3.5105827271
F        9.1558153219   -3.5545666884    3.3208237933
F        4.8150744282   -1.9293269685    4.7822344894
F        4.5014464243   -0.1399701111    3.5841298022
F        3.6934141802   -2.0522550575    2.9209333258
H        7.5814187297   -1.2691139431   -0.2304019845
H        9.3415564638   -2.6306057381    0.8906156904
H        6.8973249260   -2.8864243908    4.4009609910
H        6.5954552354    2.8393977795    0.6032423612
H        7.1392921654    1.3415179065   -0.3392198054
H        4.8158453114    1.5702978962    1.6690539851
H        5.3056908235   -0.6122588530   -0.3579647964
H        4.2002895827   -0.6559738430    0.9995354861
22   
torsion grid (90,)
C        7.4627523837   -1.5412989358    0.8786305922
C        8.4457344904   -2.3236647939    1.4838916100
C        7.0031033645   -2.5817404448    3.4200603763
C        6.2416206649   -1.2587152998    1.5066236520
C        6.0305191841   -1.7940866321    2.7919849685
C        8.1939141070   -2.8307267359    2.7532850742
C        6.3530762878    1.8207498601    0.1752706415
C        5.5591543274    1.1057450678    0.9788949431
C        5.2428296148   -0.3639837761    0.7838506620
C        4.7353085695   -1.5472953174    3.5290823614
F        9.1361209780   -3.5938830667    3.3601359113
F        4.7475531904   -2.0597004170    4.7807166018
F        4.4594003697   -0.2205366975    3.6532449633
F        3.6698751911   -2.1039329297    2.8906705622
H        7.6494156282   -1.1325673174   -0.1105860281
H        9.3877418663   -2.5410158037    0.9898048106
H        6.8430472860   -2.9964505373    4.4084369665
H        6.5854402607    2.8611493011    0.3875634190
H        6.7840938647    1.3983680058   -0.7313055912
H        5.1618830042    1.5636735583    1.8832221200
H        5.2928888751   -0.6009010020   -0.2836096162
H        4.2212439058   -0.5729017273    1.1042147875
22   
torsion grid (105,)
C        7.5141803721   -1.5392482550    0.9107274325
C        8.4700478563   -2.3552207775    1.5147952276
C        6.9798229111   -2.6429623985    3.4104079260
C        6.2821008761   -1.2572781486    1.5174903166
C        6.0346176511   -1.8214077622    2.7834522984
C        8.1802671337   -2.8952912736    2.7625247067
C        6.2732796472    1.8764922414    0.0372906654
C        5.6958049134    1.1201834833    0.9765646813
C        5.3155506300   -0.3314470284    0.7903081930
C        4.7314062100   -1.5643686828    3.5025825143
F        9.0951335969   -3.6924045290    3.3675716254
F        4.7095437097   -2.1074195295    4.7409838654
F        4.4847435847   -0.2344283841    3.6549990194
F        3.6655363760   -2.0799273089    2.8320040428
H        7.7305036988   -1.0995175815   -0.0591904999
H        9.4205781526   -2.5725191282    1.0372916467
H        6.7915099633   -3.0805570931    4.3838374421
H        6.5542526092    2.9082291042    0.2328573235
H        6.4700666097    1.4951967489   -0.9636200691
H        5.5222551919    1.5329558277    1.9694812619
H        5.3442033992   -0.5757234182   -0.2763229007
H        4.2889080346   -0.4932974054    1.1235212232
22   
torsion grid (120,)
C        7.5443268046   -1.5646988129    0.9192060595
C        8.4722770780   -2.4023353461    1.5374595297
C        6.9316172590   -2.6819060154    3.3940912993
C        6.3027191687   -1.2674422368    1.4990629924
C        6.0155714527   -1.8381868121    2.7535879730
C        8.1428797514   -2.9489201233    2.7723188583
C        6.1196928091    1.9624113711   -0.0205634468
C        5.7739645409    1.1248526813    0.9624820071
C        5.3733373098   -0.3177692064    0.7572410697
C        4.7006048389   -1.5643157657    3.4448217275
F        9.0288685682   -3.7674784307    3.3914409978
F        4.6391880085   -2.1207968266    4.6760145030
F        4.4763835657   -0.2317488274    3.6067278649
F        3.6415318569   -2.0518604957    2.7434254148
H        7.7899475820   -1.1192533050   -0.0412178166
H        9.4303345731   -2.6311312873    1.0808068707
H        6.7128461993   -3.1255597117    4.3583551589
H        6.3965690577    2.9935781174    0.1838559684
H        6.1298479610    1.6476034981   -1.0629065507
H        5.7756204654    1.4731258692    1.9946151987
H        5.4085833510   -0.5535700741   -0.3110308347
H        4.3379590604   -0.4579287886    1.0756846262
22   
torsion grid (135,)
C        7.5869933312   -1.6046945494    0.9378563095
C        8.4880151803   -2.4570187132    1.5760106393
C        6.9071117200   -2.7053690762    3.4026782819
C        6.3398150026   -1.2838005556    1.4932003892
C        6.0188949229   -1.8468009075    2.7431602860
C        8.1253937919   -2.9951969705    2.8050823787
C        5.9505313690    2.0329050669   -0.0240942216
C        5.8513227039    1.1215825299    0.9488278275
C        5.4434900467   -0.3191026492    0.7338193224
C        4.6972453209   -1.5460970877    3.4104190634
F        8.9844676236   -3.8280371875    3.4427675389
F        4.6029377240   -2.1000643125    4.6407970868
F        4.4975004720   -0.2094319153    3.5668861158
F        3.6414427179   -2.0136560584    2.6906493518
H        7.8579017740   -1.1677363413   -0.0197450188
H        9.4504163483   -2.7038430242    1.1383079581
H        6.6617946456   -3.1429535936    4.3633288220
H        6.2131464294    3.0654342548    0.1915756445
H        5.7733003814    1.7777349620   -1.0677545402
H        6.0287607680    1.4147461211    1.9828273194
H        5.4864295572   -0.5547979115   -0.3341521845
H        4.4007294369   -0.4419104395    1.0365612068
22   
torsion grid (150,)
C        7.6217189322   -1.6627401790    0.9305617146
C        8.4954470497   -2.5254527358    1.5929735577
C        6.8820482941   -2.7151354376    3.3984226529
C        6.3743720166   -1.3064226628    1.4635776420
C        6.0222295865   -1.8463269529    2.7156187155
C        8.1030490102   -3.0384397192    2.8233922767
C        5.7667861775    2.0952637302    0.0322176875
C        5.9070386145    1.1132590131    0.9279318125
C        5.5114072740   -0.3300918911    0.6841770623
C        4.6962922871   -1.5105054251    3.3578307240
F        8.9343870039   -3.8803699648    3.4853425436
F        4.5719838489   -2.0451767907    4.5943776830
F        4.5197428731   -0.1690748553    3.4916308008
F        3.6434773846   -1.9693040814    2.6276938818
H        7.9150374333   -1.2472581143   -0.0300313661
H        9.4581794650   -2.7992249559    1.1723582019
H        6.6129642176   -3.1353874586    4.3604315189
H        6.0183682871    3.1238232158    0.2774592581
H        5.4023573949    1.9047415615   -0.9762096501
H        6.2615468290    1.3479335735    1.9305833772
H        5.5878911506   -0.5562382480   -0.3839127437
H        4.4582715843   -0.4545743700    0.9484763856
22   
torsion grid (165,)
C        7.6525254689   -1.7139229262    0.9464612113
C        8.4949173755   -2.5763912415    1.6496263464
C        6.8427976128   -2.6860137224    3.4256214232
C        6.4033416607   -1.3171989614    1.4449461211
C        6.0157357735   -1.8180983811    2.7031576431
C        8.0685841036   -3.0486696929    2.8847125666
C        5.5845566025    2.1312386506    0.1135745276
C        5.9478010532    1.1084846602    0.8930077456
C        5.5753339903   -0.3423454128    0.6291853375
C        4.6831634260   -1.4400623837    3.3073158437
F        8.8688664654   -3.8894826183    3.5852542622
F        4.5227109197   -1.9397935205    4.5546249326
F        4.5291299777   -0.0937982081    3.4008799586
F        3.6380880074   -1.9005061182    2.5665320440
H        7.9730416940   -1.3334506845   -0.0199524422
H        9.4594430812   -2.8811390873    1.2553131462
H        6.5452690072   -3.0758310841    4.3920844069
H        5.8444495269    3.1550733241    0.3692528548
H        5.0194113470    1.9820096983   -0.8054699790
H        6.5003795218    1.3058653506    1.8102372517
H        5.7124380469   -0.5669136565   -0.4333957994
H        4.5105920107   -0.4789467683    0.8325594018
22   
torsion grid (180,)
C        7.7052979244   -1.7567467606    0.9218351628
C        8.5350988870   -2.6306576602    1.6262617089
C        6.8812858087   -2.7076402503    3.4032786203
C        6.4636407563   -1.3370149726    1.4200884102
C        6.0680917931   -1.8279020501    2.6799162982
C        8.1008890513   -3.0916360372    2.8626552657
C        5.4749444355    2.1487929097    0.2676762147
C        6.0436344444    1.0976653342    0.8647664606
C        5.6517062192   -0.3504545711    0.6030564257
C        4.7423275056   -1.4248664860    3.2833537017
F        8.8871468037   -3.9439389025    3.5651296365
F        4.5717218300   -1.9232385871    4.5301802631
F        4.6130474170   -0.0773555027    3.3768816688
F        3.6897161430   -1.8669540636    2.5411776409
H        8.0302905944   -1.3876625687   -0.0475523535
H        9.4937815720   -2.9529477900    1.2316179631
H        6.5779827983   -3.0902865569    4.3708261641
H        5.7925463589    3.1636980819    0.4916883662
H        4.6716184071    2.0336376068   -0.4587163769
H        6.8385135875    1.2617008062    1.5909312207
H        5.8095580904   -0.5773916691   -0.4570487583
H        4.5821695043   -0.4767840268    0.7821473274
