29   
torsion grid (-60,)
C        3.8906098226    0.2117803070   -2.5684073301
C        5.0773581815    0.3574535446   -0.4487569919
C        5.0563655254    0.5537142451   -3.2430415993
C        6.2503758527    0.6974254027   -1.1198654393
C        3.8893599819    0.1163227492   -1.1609190291
C        0.5941138178   -0.7604480902   -0.3215781115
C        6.2252925317    0.7997900711   -2.5120138393
C       -0.6184076200   -1.1474177327   -0.9136194029
C        0.2213718644   -0.6071665770    1.1823736939
N        2.7697934686   -0.2165098140   -0.3688974643
N        1.7032297135   -0.4399153856   -1.0396774449
N       -1.4867073033   -1.5135158748    0.1773615455
N       -1.2418437739   -0.3566596892    1.0475995321
N       -1.0000144544   -1.3223480291   -2.1796410811
N        7.5932750480    2.9447297336   -3.5132036009
O        0.8417374916   -0.6653848720    2.2058267777
O        8.8580906738    0.9607293199   -2.5080282320
O        7.6249608085    0.7360443049   -4.7546738123
S        7.7193188953    1.2520713021   -3.3849186993
H        2.9756718816    0.0102918298   -3.1143297656
H        5.0568271043    0.2646554084    0.6329489008
H        5.0771642310    0.6150916289   -4.3266816543
H        7.1765223610    0.8641620967   -0.5793756913
H       -1.1938741589   -2.3538780087    0.6678780208
H       -1.4437128680    0.4785006023    0.5038298316
H       -1.9388827998   -1.6419144077   -2.3817361306
H       -0.3855001488   -1.0362061921   -2.9324502205
H        8.3146171560    3.3831811493   -2.9419118779
H        7.6949248765    3.2076328742   -4.4928823596
29   
torsion grid (-45,)
C        3.8364389829    0.3018850831   -2.5535235578
C        5.0585835830    0.3007115503   -0.4489025769
C        5.0058962561    0.6233732211   -3.2319446875
C        6.2358401745    0.6190426601   -1.1240832444
C        3.8533222043    0.1395547428   -1.1528472196
C        0.5422761036   -0.6910681888   -0.3008402448
C        6.1949941070    0.7835188847   -2.5095575105
C       -0.6211746499   -1.1580576283   -0.9136698605
C        0.1808732179   -0.5248521941    1.1638763730
N        2.7302509324   -0.1801991436   -0.3560974589
N        1.6653907320   -0.4022950125   -1.0230285845
N       -1.5775172283   -1.4642879277    0.1032239152
N       -1.3001793694   -0.4704304389    1.1097997134
N       -0.8537845883   -1.5052686519   -2.1856725448
N        7.6263741975    2.9083851287   -3.4634612456
O        0.8465658049   -0.3654440550    2.1529554327
O        8.8319686162    0.8544119345   -2.5306199796
O        7.5688359120    0.7364267459   -4.7684237583
S        7.6954168428    1.2099960449   -3.3861481152
H        2.9039662349    0.1719841898   -3.0915300848
H        5.0481331607    0.1638437236    0.6282500193
H        5.0125129201    0.7362868567   -4.3116297431
H        7.1760244362    0.7234815340   -0.5923468932
H       -1.4806695430   -2.3946426586    0.5003916290
H       -1.6438380468    0.4296056403    0.7832061670
H       -1.7999049841   -1.7181171263   -2.4755422948
H       -0.1575960552   -1.2752410386   -2.8854642664
H        8.3733547438    3.3052507874   -2.8947486116
H        7.7162129091    3.1972224004   -4.4369324350
29   
torsion grid (-30,)
C        3.8064869822    0.3129629536   -2.5940327778
C        5.0417420537    0.2227763760   -0.4990505371
C        4.9817969516    0.6105007522   -3.2736134392
C        6.2253399693    0.5154333532   -1.1750794089
C        3.8287130585    0.1144869269   -1.1986494846
C        0.5059877816   -0.6860808251   -0.3503743750
C        6.1802083680    0.7115867495   -2.5562367579
C       -0.6320353843   -1.1844807217   -0.9748720006
C        0.1395072961   -0.4644742231    1.0847351771
N        2.6984115957   -0.1856477407   -0.4016519367
N        1.6410670917   -0.4226655302   -1.0709210282
N       -1.6421740169   -1.4149179753   -0.0190494346
N       -1.3144272827   -0.5836669834    1.0865495954
N       -0.7736019219   -1.6544521512   -2.2309185242
N        7.6793967602    2.8065525488   -3.4708822024
O        0.7905114154   -0.0914727614    2.0328400371
O        8.8176801366    0.6884657246   -2.5968475382
O        7.5351094378    0.6705190720   -4.8267128711
S        7.6888133340    1.1056835689   -3.4345811326
H        2.8653524029    0.2321584993   -3.1266816526
H        5.0325079602    0.0652898278    0.5752780843
H        4.9847749391    0.7517487450   -4.3499634063
H        7.1718835687    0.5767899435   -0.6479218735
H       -1.7659707792   -2.3853535421    0.2565441340
H       -1.8200442419    0.2970357193    1.0696861697
H       -1.7075869573   -1.7243004585   -2.6158805809
H       -0.0122104241   -1.4633972005   -2.8732226810
H        8.4402008969    3.1639337365   -2.8944049361
H        7.7771890703    3.1157154579   -4.4373191072
29   
torsion grid (-15,)
C        3.8085975364    0.3744741176   -2.5732809644
C        5.0496927288    0.2874723418   -0.4813277271
C        4.9832238401    0.6651724188   -3.2572972305
C        6.2327882717    0.5709513742   -1.1622274548
C        3.8352349383    0.1795496472   -1.1779039415
C        0.5213933737   -0.6532423592   -0.3203166805
C        6.1841861005    0.7622142832   -2.5439807046
C       -0.5976957243   -1.1826337569   -0.9462886313
C        0.1563563490   -0.3939108472    1.0981296389
N        2.7039424673   -0.1120519243   -0.3778245994
N        1.6593575927   -0.3971513091   -1.0453317226
N       -1.6349473351   -1.3552423038   -0.0305887156
N       -1.2503357515   -0.6828085528    1.1524644737
N       -0.6983198987   -1.7125945332   -2.1926660202
N        7.6963451868    2.8480281594   -3.4586684400
O        0.7729805958    0.1107095684    2.0146469335
O        8.8213746066    0.7189041054   -2.5972674662
O        7.5276694321    0.7167920340   -4.8208518585
S        7.6918669005    1.1471800199   -3.4284446896
H        2.8648927962    0.2979902009   -3.1020850726
H        5.0423315346    0.1361035187    0.5938975241
H        4.9834201978    0.8046964142   -4.3338515807
H        7.1811555980    0.6302068226   -0.6381264037
H       -1.9081577390   -2.3209605978    0.1366473458
H       -1.8629109649    0.0838535056    1.4107928916
H       -1.6074651737   -1.6757777459   -2.6390987097
H        0.0969082072   -1.5213132032   -2.7939595556
H        8.4680212031    3.1967768209   -2.8914358279
H        7.7826413710    3.1606388007   -4.4250564346
29   
torsion grid (0,)
C        3.8713390397    0.4019608483   -2.4865352319
C        5.0634889447    0.4253271674   -0.3645820897
C        5.0555184587    0.6919556656   -3.1542975875
C        6.2561996296    0.7090752170   -1.0284374356
C        3.8688568658    0.2633047639   -1.0843246107
C        0.5557181560   -0.6059311692   -0.2565157043
C        6.2362698518    0.8449485934   -2.4173420178
C       -0.5580999650   -1.1250905103   -0.8934445174
C        0.1819611491   -0.3629835901    1.1489817213
N        2.7260393346   -0.0218992524   -0.2979695274
N        1.7004527409   -0.3478182481   -0.9744268864
N       -1.6301574002   -1.2531414647   -0.0202228951
N       -1.1866589925   -0.7853166074    1.2473887577
N       -0.6478508690   -1.6284272919   -2.1566572476
N        7.7200997823    2.9294605596   -3.3791684421
O        0.7706875935    0.1750272645    2.0687710795
O        8.8746194752    0.8666254266   -2.4054528916
O        7.6370445360    0.7410159333   -4.6573712107
S        7.7562303803    1.2317495861   -3.2805157156
H        2.9427027185    0.2827962140   -3.0337500087
H        5.0332075089    0.3156714270    0.7152725721
H        5.0787323954    0.7884061773   -4.2353216567
H        7.1902025961    0.8106284557   -0.4853982921
H       -2.0169264019   -2.1936953216    0.0346694494
H       -1.8121202653   -0.0987447079    1.6594355936
H       -1.5406302638   -1.5270099283   -2.6263225831
H        0.1635734427   -1.4223385149   -2.7314720262
H        8.4729479968    3.3194558453   -2.8135080597
H        7.8153861263    3.2059354235   -4.3556573389
29   
torsion grid (15,)
C        3.8961249193    0.3637036664   -2.4700122503
C        5.0535857947    0.4804590372   -0.3321950637
C        5.0864071586    0.6471838043   -3.1295763746
C        6.2525552558    0.7581641812   -0.9873459528
C        3.8728324414    0.2756818905   -1.0638705783
C        0.5590523384   -0.6064087111   -0.2519629775
C        6.2528100424    0.8444832054   -2.3803270613
C       -0.5604744406   -1.0998135699   -0.9016177577
C        0.1809755800   -0.3771804158    1.1521718286
N        2.7219385204    0.0031425699   -0.2850686319
N        1.7096644771   -0.3566954304   -0.9641632698
N       -1.6516252763   -1.1604154084   -0.0494776502
N       -1.1424523712   -0.9221838798    1.2676453229
N       -0.6560866130   -1.5613300165   -2.1815406996
N        7.7134420373    2.9167910390   -3.4012372777
O        0.7479262264    0.1716511877    2.0802177387
O        8.8896015080    0.9164505479   -2.3256140616
O        7.6944937248    0.6787183079   -4.5911226765
S        7.7801484722    1.2254071491   -3.2330495477
H        2.9784139346    0.2106665004   -3.0270653988
H        5.0077031066    0.4085725840    0.7502759481
H        5.1254165644    0.7051241486   -4.2129005814
H        7.1762772514    0.8928954252   -0.4340381716
H       -2.1511540189   -2.0483355858   -0.0898334429
H       -1.7638174161   -0.3219425404    1.8057607494
H       -1.5409275823   -1.4163650150   -2.6551764537
H        0.1624000678   -1.3440132629   -2.7425529956
H        8.4432818646    3.3447069270   -2.8328247481
H        7.8296752845    3.1552301438   -4.3854812558
29   
torsion grid (30,)
C        3.8834773405    0.2880571695   -2.5270924209
C        5.0359425117    0.5299699059   -0.3970224294
C        5.0667784898    0.5727911456   -3.1987580316
C        6.2274321432    0.8095206175   -1.0645236521
C        3.8608285387    0.2632478153   -1.1184351286
C        0.5656255908   -0.6473289874   -0.2661748256
C        6.2271279749    0.8344073285   -2.4600967076
C       -0.5740270587   -1.1126242390   -0.9105351696
C        0.2077462763   -0.4489672847    1.1542467481
N        2.7178423045   -0.0047440594   -0.3271143191
N        1.7066821899   -0.3972701649   -0.9907522112
N       -1.6550934357   -1.1034489086   -0.0398822642
N       -1.0578971187   -1.1221306885    1.2765489621
N       -0.7067479717   -1.5180295914   -2.2036230219
N        7.6545658835    2.9051360787   -3.5315007597
O        0.7669407338    0.0952625502    2.0878576110
O        8.8635731986    0.9451333984   -2.4231311641
O        7.6575082904    0.6413737630   -4.6751660081
S        7.7440298501    1.2183064337   -3.3296435138
H        2.9713572055    0.0842586897   -3.0769221551
H        4.9914520080    0.5038651337    0.6875943074
H        5.1058721124    0.5821136171   -4.2835491686
H        7.1467386264    0.9918573238   -0.5174888091
H       -2.2551551291   -1.9221422551   -0.1516288579
H       -1.6597603802   -0.6304202560    1.9372994232
H       -1.6026046156   -1.3593908845   -2.6512299426
H        0.0992468697   -1.2866809415   -2.7771760885
H        8.3920543809    3.3519033310   -2.9880142411
H        7.7469556519    3.1245659830   -4.5226412792
29   
torsion grid (45,)
C        3.9103550208    0.2561479820   -2.5176276077
C        5.0304930590    0.5922887741   -0.3839203832
C        5.0989937576    0.5310240341   -3.1838205268
C        6.2274210751    0.8628234942   -1.0451193826
C        3.8678494942    0.2833268092   -1.1092654788
C        0.5743090410   -0.6342988773   -0.2708273314
C        6.2458860775    0.8355701467   -2.4406198959
C       -0.5791026393   -1.0791223081   -0.9164445704
C        0.2118713165   -0.4847950717    1.1661304589
N        2.7186658300    0.0288744317   -0.3240179113
N        1.7171540990   -0.3911539419   -0.9880125845
N       -1.6514874516   -0.9954082305   -0.0219287393
N       -0.9849269216   -1.2970491814    1.2536480713
N       -0.7404254883   -1.4427965945   -2.2131623881
N        7.6638924621    2.8833807685   -3.5682538149
O        0.7371658417    0.0591427435    2.1149680112
O        8.8800802361    0.9799689127   -2.3739683285
O        7.7070842335    0.5792623039   -4.6285813874
S        7.7692123181    1.2058921659   -3.3039730922
H        3.0090476147    0.0186032343   -3.0716454725
H        4.9721582312    0.6053982489    0.7002704594
H        5.1527926163    0.4996085149   -4.2675716042
H        7.1366548853    1.0776232941   -0.4930225130
H       -2.3297603585   -1.7426531397   -0.1933677238
H       -1.5689565802   -0.9159170079    2.0026867353
H       -1.6487912923   -1.3041044505   -2.6407937580
H        0.0545604105   -1.2180359439   -2.8043020613
H        8.3930416337    3.3569920226   -3.0363687971
H        7.7616158122    3.0673463484   -4.5660607115
29   
torsion grid (60,)
C        3.9301740381    0.1531562117   -2.5132525647
C        4.9791022356    0.6680464840   -0.3787802657
C        5.1269637432    0.4227395144   -3.1659456424
C        6.1835636106    0.9377316575   -1.0261962243
C        3.8454912922    0.2761307201   -1.1109986403
C        0.5377723892   -0.6118961323   -0.3191391031
C        6.2413610764    0.8185771758   -2.4158352745
C       -0.6415214426   -1.0021917134   -0.9789080409
C        0.1847659901   -0.6090227806    1.1611244838
N        2.6877751607    0.0298282116   -0.3389816418
N        1.6828092925   -0.3679257557   -1.0175692693
N       -1.6650035440   -0.8814048318   -0.0150471593
N       -0.9310851947   -1.5442794320    1.1150055741
N       -0.8551751044   -1.2718876440   -2.2815615779
N        7.6095479954    2.8204018303   -3.6807947590
O        0.6739514539   -0.1310304037    2.1559448080
O        8.8622001676    1.0841086735   -2.2822727482
O        7.7855716314    0.4374815003   -4.5276803566
S        7.7750598807    1.1787020372   -3.2619471275
H        3.0551231023   -0.1585886140   -3.0724295651
H        4.8920615822    0.7468139485    0.7007043252
H        5.2131516985    0.3151574119   -4.2427658711
H        7.0699113369    1.2199241848   -0.4672424842
H       -2.4371825954   -1.5174876689   -0.2457723642
H       -1.4964407032   -1.3592643248    1.9529841285
H       -1.7821346794   -1.1567520367   -2.6725966588
H       -0.0761083329   -1.0641309395   -2.8988445188
H        8.2888895223    3.3731900182   -3.1594181309
H        7.7535913138    2.9189048297   -4.6851192399
29   
torsion grid (75,)
C        3.1212628990    0.1340024423   -2.1310503471
C        4.1755637190    0.5591360788    0.0202533669
C        4.3372188253    0.3453116558   -2.7678751082
C        5.4000714562    0.7673385930   -0.6124144964
C        3.0282722655    0.2377543978   -0.7260779269
C       -0.3159402845   -0.5329138554   -0.0003863449
C        5.4669430887    0.6642028400   -2.0030527336
C       -1.4829335504   -1.0146349082   -0.6545020070
C       -0.6997839613   -0.6052336272    1.5414507803
N        1.8509316103    0.0493315064    0.0269161880
N        0.8497387293   -0.3552392111   -0.6624610887
N       -2.4526349463   -0.8403593809    0.3687859317
N       -1.6399837635   -1.7040051794    1.3610768701
N       -1.7154709126   -1.3818115563   -1.9222942650
N        6.8737516726    2.5467796201   -3.3811606669
O       -0.3335951586   -0.0873366877    2.5588242902
O        8.0856106709    0.8880347220   -1.8164987818
O        7.0722897289    0.1261901090   -4.0481964428
S        7.0258380073    0.9416487819   -2.8299577212
H        2.2342423123   -0.1124861282   -2.7038211754
H        4.0835005322    0.6312204850    1.0998173786
H        4.4247706282    0.2573712366   -3.8464641915
H        6.2955663418    0.9923724020   -0.0422455739
H       -3.2775697864   -1.4219498701    0.1651961432
H       -2.2236896519   -1.7165964502    2.2138940245
H       -2.6506535723   -1.3376527806   -2.3076122332
H       -0.9436698017   -1.2504696275   -2.5690652305
H        7.3806587963    3.1744280479   -2.7575280286
H        7.2560767310    2.5950573232   -4.3257496932
