
  -OEChem-05262117483D

 23 24  0     0  0  0  0  0  0999 V2000
    3.0796   -0.9961   -2.9916 C   0  0  0  0  0  0  0  0  0  0  0  0
    2.7248   -3.2325   -3.4045 C   0  0  0  0  0  0  0  0  0  0  0  0
    0.3430   -3.9008   -0.7655 C   0  0  0  0  0  0  0  0  0  0  0  0
    1.5536   -2.1418   -1.5356 C   0  0  0  0  0  0  0  0  0  0  0  0
    2.2439   -0.9594   -1.8721 C   0  0  0  0  0  0  0  0  0  0  0  0
    0.5669   -2.5462   -0.5545 C   0  0  0  0  0  0  0  0  0  0  0  0
    1.8435   -3.2871   -2.3223 C   0  0  0  0  0  0  0  0  0  0  0  0
   -0.2208   -1.6964    0.3570 C   0  0  0  0  0  0  0  0  0  0  0  0
    2.2170    0.3021   -1.0758 C   0  0  0  0  0  0  0  0  0  0  0  0
   -1.0207   -2.3845    1.4524 C   0  0  0  0  0  0  0  0  0  0  0  0
    3.3215   -2.0904   -3.7434 N   0  0  0  0  0  0  0  0  0  0  0  0
    1.1009   -4.3470   -1.8140 N   0  0  0  0  0  0  0  0  0  0  0  0
   -0.2574   -0.4774    0.2217 O   0  0  0  0  0  0  0  0  0  0  0  0
    2.0956    1.4162   -1.5448 O   0  0  0  0  0  0  0  0  0  0  0  0
    2.4544    0.0712    0.2402 O   0  0  0  0  0  0  0  0  0  0  0  0
    3.6014   -0.0894   -3.2873 H   0  0  0  0  0  0  0  0  0  0  0  0
    2.9479   -4.1119   -4.0084 H   0  0  0  0  0  0  0  0  0  0  0  0
   -0.3323   -4.5722   -0.2520 H   0  0  0  0  0  0  0  0  0  0  0  0
   -0.3703   -2.9978    2.0849 H   0  0  0  0  0  0  0  0  0  0  0  0
   -1.7849   -3.0423    1.0233 H   0  0  0  0  0  0  0  0  0  0  0  0
   -1.5143   -1.6253    2.0603 H   0  0  0  0  0  0  0  0  0  0  0  0
    1.0818   -5.2847   -2.1915 H   0  0  0  0  0  0  0  0  0  0  0  0
    2.3440    0.9313    0.6891 H   0  0  0  0  0  0  0  0  0  0  0  0
  1  5  1  0  0  0  0
  1 11  2  0  0  0  0
  1 16  1  0  0  0  0
  2  7  2  0  0  0  0
  2 11  1  0  0  0  0
  2 17  1  0  0  0  0
  3  6  2  0  0  0  0
  3 12  1  0  0  0  0
  3 18  1  0  0  0  0
  4  5  2  0  0  0  0
  4  6  1  0  0  0  0
  4  7  1  0  0  0  0
  5  9  1  0  0  0  0
  6  8  1  0  0  0  0
  7 12  1  0  0  0  0
  8 10  1  0  0  0  0
  8 13  2  0  0  0  0
  9 14  2  0  0  0  0
  9 15  1  0  0  0  0
 10 19  1  0  0  0  0
 10 20  1  0  0  0  0
 10 21  1  0  0  0  0
 12 22  1  0  0  0  0
 15 23  1  0  0  0  0
M  END
$$$$
