
  -OEChem-05262117483D

 29 30  0     0  0  0  0  0  0999 V2000
    1.9754   -3.0334    0.8172 C   0  0  0  0  0  0  0  0  0  0  0  0
    1.0866   -1.9547    0.7982 C   0  0  0  0  0  0  0  0  0  0  0  0
    2.6892   -3.3271    1.9853 C   0  0  0  0  0  0  0  0  0  0  0  0
    0.8908   -1.1830    1.9467 C   0  0  0  0  0  0  0  0  0  0  0  0
    2.5210   -2.5387    3.1240 C   0  0  0  0  0  0  0  0  0  0  0  0
   -0.9709   -3.5704    3.0915 C   0  0  0  0  0  0  0  0  0  0  0  0
   -0.4721   -4.8352    2.7899 C   0  0  0  0  0  0  0  0  0  0  0  0
   -0.0907   -3.7734    5.3512 C   0  0  0  0  0  0  0  0  0  0  0  0
    1.6057   -1.4732    3.1195 C   0  0  0  0  0  0  0  0  0  0  0  0
   -0.7553   -3.0490    4.3642 C   0  0  0  0  0  0  0  0  0  0  0  0
    0.2364   -5.5616    3.7509 C   0  0  0  0  0  0  0  0  0  0  0  0
    0.4196   -5.0338    5.0407 C   0  0  0  0  0  0  0  0  0  0  0  0
    1.4086   -0.6657    4.3445 C   0  0  0  0  0  0  0  0  0  0  0  0
    0.2727   -0.5086    5.0357 C   0  0  0  0  0  0  0  0  0  0  0  0
   -1.9391   -0.8358    3.5271 O   0  0  0  0  0  0  0  0  0  0  0  0
   -1.9664   -1.3617    6.0322 O   0  0  0  0  0  0  0  0  0  0  0  0
   -1.2801   -1.3643    4.7315 S   0  0  0  0  0  0  0  0  0  0  0  0
    0.8977   -7.1107    3.3074 Cl  0  0  0  0  0  0  0  0  0  0  0  0
    1.2949   -5.9119    6.2676 Cl  0  0  0  0  0  0  0  0  0  0  0  0
    2.1149   -3.6422   -0.0722 H   0  0  0  0  0  0  0  0  0  0  0  0
    0.5331   -1.7190   -0.1069 H   0  0  0  0  0  0  0  0  0  0  0  0
    3.3745   -4.1699    2.0091 H   0  0  0  0  0  0  0  0  0  0  0  0
    0.1762   -0.3664    1.9435 H   0  0  0  0  0  0  0  0  0  0  0  0
    3.0749   -2.7696    4.0306 H   0  0  0  0  0  0  0  0  0  0  0  0
   -1.4932   -2.9813    2.3467 H   0  0  0  0  0  0  0  0  0  0  0  0
   -0.6050   -5.2565    1.7992 H   0  0  0  0  0  0  0  0  0  0  0  0
    0.0512   -3.3618    6.3451 H   0  0  0  0  0  0  0  0  0  0  0  0
    2.2884   -0.1558    4.7396 H   0  0  0  0  0  0  0  0  0  0  0  0
    0.1989    0.1115    5.9250 H   0  0  0  0  0  0  0  0  0  0  0  0
  1  2  1  0  0  0  0
  1  3  2  0  0  0  0
  1 20  1  0  0  0  0
  2  4  2  0  0  0  0
  2 21  1  0  0  0  0
  3  5  1  0  0  0  0
  3 22  1  0  0  0  0
  4  9  1  0  0  0  0
  4 23  1  0  0  0  0
  5  9  2  0  0  0  0
  5 24  1  0  0  0  0
  6  7  2  0  0  0  0
  6 10  1  0  0  0  0
  6 25  1  0  0  0  0
  7 11  1  0  0  0  0
  7 26  1  0  0  0  0
  8 10  2  0  0  0  0
  8 12  1  0  0  0  0
  8 27  1  0  0  0  0
  9 13  1  0  0  0  0
 10 17  1  0  0  0  0
 11 12  2  0  0  0  0
 11 18  1  0  0  0  0
 12 19  1  0  0  0  0
 13 14  2  0  0  0  0
 13 28  1  0  0  0  0
 14 17  1  0  0  0  0
 14 29  1  0  0  0  0
 15 17  2  0  0  0  0
 16 17  2  0  0  0  0
M  END
$$$$
