
  -OEChem-05262117483D

 21 21  0     0  0  0  0  0  0999 V2000
    2.1275   -0.7338   -0.1645 C   0  0  0  0  0  0  0  0  0  0  0  0
    1.0712   -0.1382    0.5356 C   0  0  0  0  0  0  0  0  0  0  0  0
    2.9959   -1.6177    0.4793 C   0  0  0  0  0  0  0  0  0  0  0  0
    1.7364   -1.3070    2.5486 C   0  0  0  0  0  0  0  0  0  0  0  0
    0.8697   -0.4176    1.8937 C   0  0  0  0  0  0  0  0  0  0  0  0
    2.7751   -1.8823    1.8294 C   0  0  0  0  0  0  0  0  0  0  0  0
   -1.2861   -0.8581    3.0728 C   0  0  0  0  0  0  0  0  0  0  0  0
   -0.2843    0.1993    2.6620 C   0  0  0  0  0  0  0  0  0  0  0  0
   -1.4089   -1.3741    4.2463 N   0  0  0  0  0  0  0  0  0  0  0  0
   -2.1701   -1.2775    2.0750 N   0  0  0  0  0  0  0  0  0  0  0  0
   -0.4936   -0.7875    5.1745 O   0  0  0  0  0  0  0  0  0  0  0  0
    3.6139   -2.7402    2.4679 F   0  0  0  0  0  0  0  0  0  0  0  0
    2.2766   -0.5068   -1.2167 H   0  0  0  0  0  0  0  0  0  0  0  0
    0.4075    0.5552    0.0246 H   0  0  0  0  0  0  0  0  0  0  0  0
    3.8235   -2.0929   -0.0380 H   0  0  0  0  0  0  0  0  0  0  0  0
    1.5990   -1.5471    3.5991 H   0  0  0  0  0  0  0  0  0  0  0  0
    0.0811    0.7005    3.5593 H   0  0  0  0  0  0  0  0  0  0  0  0
   -0.7986    0.9375    2.0405 H   0  0  0  0  0  0  0  0  0  0  0  0
   -1.7186   -1.3901    1.1714 H   0  0  0  0  0  0  0  0  0  0  0  0
   -2.6800   -2.1159    2.3400 H   0  0  0  0  0  0  0  0  0  0  0  0
   -0.7528   -1.2198    6.0034 H   0  0  0  0  0  0  0  0  0  0  0  0
  1  2  1  0  0  0  0
  1  3  2  0  0  0  0
  1 13  1  0  0  0  0
  2  5  2  0  0  0  0
  2 14  1  0  0  0  0
  3  6  1  0  0  0  0
  3 15  1  0  0  0  0
  4  5  1  0  0  0  0
  4  6  2  0  0  0  0
  4 16  1  0  0  0  0
  5  8  1  0  0  0  0
  6 12  1  0  0  0  0
  7  8  1  0  0  0  0
  7  9  2  0  0  0  0
  7 10  1  0  0  0  0
  8 17  1  0  0  0  0
  8 18  1  0  0  0  0
  9 11  1  0  0  0  0
 10 19  1  0  0  0  0
 10 20  1  0  0  0  0
 11 21  1  0  0  0  0
M  END
$$$$
