
  -OEChem-05262117483D

 25 26  0     0  0  0  0  0  0999 V2000
   -0.6456    1.3264    1.5863 C   0  0  0  0  0  0  0  0  0  0  0  0
   -1.6288    1.6419    2.5176 C   0  0  0  0  0  0  0  0  0  0  0  0
   -0.7254    0.1574    0.7954 C   0  0  0  0  0  0  0  0  0  0  0  0
   -4.6013   -0.4008    3.1803 C   0  0  0  0  0  0  0  0  0  0  0  0
   -2.7179    0.7615    2.6615 C   0  0  0  0  0  0  0  0  0  0  0  0
   -3.8949    0.7429    3.5048 C   0  0  0  0  0  0  0  0  0  0  0  0
   -1.7874   -0.7390    0.9083 C   0  0  0  0  0  0  0  0  0  0  0  0
   -2.7703   -0.4060    1.8549 C   0  0  0  0  0  0  0  0  0  0  0  0
   -4.2950    1.7153    4.5219 C   0  0  0  0  0  0  0  0  0  0  0  0
   -1.8956   -1.9931    0.0767 C   0  0  0  0  0  0  0  0  0  0  0  0
   -3.7778    2.9048    4.4759 N   0  0  0  0  0  0  0  0  0  0  0  0
   -3.9269   -1.0952    2.1959 N   0  0  0  0  0  0  0  0  0  0  0  0
   -5.2580    1.3201    5.4493 N   0  0  0  0  0  0  0  0  0  0  0  0
   -4.2703    3.6851    5.5710 O   0  0  0  0  0  0  0  0  0  0  0  0
    0.2038    1.9920    1.4555 H   0  0  0  0  0  0  0  0  0  0  0  0
   -1.5790    2.5441    3.1167 H   0  0  0  0  0  0  0  0  0  0  0  0
    0.0635   -0.0510    0.0759 H   0  0  0  0  0  0  0  0  0  0  0  0
   -5.5531   -0.7528    3.5548 H   0  0  0  0  0  0  0  0  0  0  0  0
   -1.9218   -2.8927    0.7052 H   0  0  0  0  0  0  0  0  0  0  0  0
   -2.8062   -1.9936   -0.5363 H   0  0  0  0  0  0  0  0  0  0  0  0
   -1.0436   -2.0900   -0.6009 H   0  0  0  0  0  0  0  0  0  0  0  0
   -4.2526   -1.9459    1.7610 H   0  0  0  0  0  0  0  0  0  0  0  0
   -5.3589    1.9805    6.2132 H   0  0  0  0  0  0  0  0  0  0  0  0
   -5.1492    0.3651    5.7697 H   0  0  0  0  0  0  0  0  0  0  0  0
   -3.8183    4.5316    5.4339 H   0  0  0  0  0  0  0  0  0  0  0  0
  1  2  1  0  0  0  0
  1  3  2  0  0  0  0
  1 15  1  0  0  0  0
  2  5  2  0  0  0  0
  2 16  1  0  0  0  0
  3  7  1  0  0  0  0
  3 17  1  0  0  0  0
  4  6  2  0  0  0  0
  4 12  1  0  0  0  0
  4 18  1  0  0  0  0
  5  6  1  0  0  0  0
  5  8  1  0  0  0  0
  6  9  1  0  0  0  0
  7  8  2  0  0  0  0
  7 10  1  0  0  0  0
  8 12  1  0  0  0  0
  9 11  2  0  0  0  0
  9 13  1  0  0  0  0
 10 19  1  0  0  0  0
 10 20  1  0  0  0  0
 10 21  1  0  0  0  0
 11 14  1  0  0  0  0
 12 22  1  0  0  0  0
 13 23  1  0  0  0  0
 13 24  1  0  0  0  0
 14 25  1  0  0  0  0
M  END
$$$$
