
  -OEChem-05262117483D

 21 21  0     0  0  0  0  0  0999 V2000
    1.8036   -1.5353   -0.2122 C   0  0  0  0  0  0  0  0  0  0  0  0
    0.7478   -0.9922    0.5299 C   0  0  0  0  0  0  0  0  0  0  0  0
    3.0242   -1.8273    0.4000 C   0  0  0  0  0  0  0  0  0  0  0  0
    2.1224   -1.0232    2.5225 C   0  0  0  0  0  0  0  0  0  0  0  0
    0.8979   -0.7349    1.8990 C   0  0  0  0  0  0  0  0  0  0  0  0
    3.1515   -1.5614    1.7619 C   0  0  0  0  0  0  0  0  0  0  0  0
    0.1410    1.2659    3.1859 C   0  0  0  0  0  0  0  0  0  0  0  0
   -0.2272   -0.1240    2.7136 C   0  0  0  0  0  0  0  0  0  0  0  0
    0.5323    1.5877    4.3698 N   0  0  0  0  0  0  0  0  0  0  0  0
    0.0079    2.2845    2.2384 N   0  0  0  0  0  0  0  0  0  0  0  0
    0.5392    0.4569    5.2442 O   0  0  0  0  0  0  0  0  0  0  0  0
    4.3341   -1.8420    2.3699 F   0  0  0  0  0  0  0  0  0  0  0  0
    1.6747   -1.7342   -1.2727 H   0  0  0  0  0  0  0  0  0  0  0  0
   -0.2005   -0.7776    0.0429 H   0  0  0  0  0  0  0  0  0  0  0  0
    3.8592   -2.2497   -0.1502 H   0  0  0  0  0  0  0  0  0  0  0  0
    2.2685   -0.8271    3.5809 H   0  0  0  0  0  0  0  0  0  0  0  0
   -1.1347   -0.0524    2.1077 H   0  0  0  0  0  0  0  0  0  0  0  0
   -0.4443   -0.7423    3.5856 H   0  0  0  0  0  0  0  0  0  0  0  0
    0.3279    2.0069    1.3146 H   0  0  0  0  0  0  0  0  0  0  0  0
    0.4503    3.1491    2.5380 H   0  0  0  0  0  0  0  0  0  0  0  0
    0.7807    0.8660    6.0900 H   0  0  0  0  0  0  0  0  0  0  0  0
  1  2  1  0  0  0  0
  1  3  2  0  0  0  0
  1 13  1  0  0  0  0
  2  5  2  0  0  0  0
  2 14  1  0  0  0  0
  3  6  1  0  0  0  0
  3 15  1  0  0  0  0
  4  5  1  0  0  0  0
  4  6  2  0  0  0  0
  4 16  1  0  0  0  0
  5  8  1  0  0  0  0
  6 12  1  0  0  0  0
  7  8  1  0  0  0  0
  7  9  2  0  0  0  0
  7 10  1  0  0  0  0
  8 17  1  0  0  0  0
  8 18  1  0  0  0  0
  9 11  1  0  0  0  0
 10 19  1  0  0  0  0
 10 20  1  0  0  0  0
 11 21  1  0  0  0  0
M  END
$$$$
