
  -OEChem-05262117483D

 25 26  0     0  0  0  0  0  0999 V2000
   -0.2666    2.2290    1.6991 C   0  0  0  0  0  0  0  0  0  0  0  0
    0.0309    0.7737    2.1183 C   0  0  0  0  0  0  0  0  0  0  0  0
   -1.1100   -1.1993    0.9026 C   0  0  0  0  0  0  0  0  0  0  0  0
    1.2876   -0.7111    0.4467 C   0  0  0  0  0  0  0  0  0  0  0  0
   -0.0001    2.2092    0.1830 C   0  0  0  0  0  0  0  0  0  0  0  0
   -1.1008   -2.0963   -0.3388 C   0  0  0  0  0  0  0  0  0  0  0  0
    1.1713   -1.6263   -0.7715 C   0  0  0  0  0  0  0  0  0  0  0  0
   -0.0713   -0.0712    0.8030 C   0  0  0  0  0  0  0  0  0  0  0  0
   -0.4431    0.8837   -0.2795 N   0  0  0  0  0  0  0  0  0  0  0  0
    0.1918   -2.6502   -0.5706 O   0  0  0  0  0  0  0  0  0  0  0  0
   -1.3188    2.4762    1.8829 H   0  0  0  0  0  0  0  0  0  0  0  0
    0.3431    2.9621    2.2369 H   0  0  0  0  0  0  0  0  0  0  0  0
    1.0357    0.6882    2.5451 H   0  0  0  0  0  0  0  0  0  0  0  0
   -0.6707    0.4161    2.8783 H   0  0  0  0  0  0  0  0  0  0  0  0
   -2.1135   -0.7782    1.0566 H   0  0  0  0  0  0  0  0  0  0  0  0
   -0.8789   -1.8140    1.7799 H   0  0  0  0  0  0  0  0  0  0  0  0
    1.6472   -1.2918    1.3050 H   0  0  0  0  0  0  0  0  0  0  0  0
    2.0283    0.0727    0.2469 H   0  0  0  0  0  0  0  0  0  0  0  0
   -0.5171    2.9984   -0.3706 H   0  0  0  0  0  0  0  0  0  0  0  0
    1.0724    2.3174   -0.0192 H   0  0  0  0  0  0  0  0  0  0  0  0
   -1.7760   -2.9469   -0.2080 H   0  0  0  0  0  0  0  0  0  0  0  0
   -1.4286   -1.5301   -1.2240 H   0  0  0  0  0  0  0  0  0  0  0  0
    0.9104   -1.0303   -1.6570 H   0  0  0  0  0  0  0  0  0  0  0  0
    2.1130   -2.1480   -0.9628 H   0  0  0  0  0  0  0  0  0  0  0  0
   -1.4603    0.9048   -0.3485 H   0  0  0  0  0  0  0  0  0  0  0  0
  1  2  1  0  0  0  0
  1  5  1  0  0  0  0
  1 11  1  0  0  0  0
  1 12  1  0  0  0  0
  2  8  1  0  0  0  0
  2 13  1  0  0  0  0
  2 14  1  0  0  0  0
  3  6  1  0  0  0  0
  3  8  1  0  0  0  0
  3 15  1  0  0  0  0
  3 16  1  0  0  0  0
  4  7  1  0  0  0  0
  4  8  1  0  0  0  0
  4 17  1  0  0  0  0
  4 18  1  0  0  0  0
  5  9  1  0  0  0  0
  5 19  1  0  0  0  0
  5 20  1  0  0  0  0
  6 10  1  0  0  0  0
  6 21  1  0  0  0  0
  6 22  1  0  0  0  0
  7 10  1  0  0  0  0
  7 23  1  0  0  0  0
  7 24  1  0  0  0  0
  8  9  1  0  0  0  0
  9 25  1  0  0  0  0
M  END
$$$$
