21
0 1 C8FH9N2O
C                     1.783983898293    -1.734871548757     0.038276938137
C                     0.614396279100    -1.401026553178     0.722688590480
C                     3.041070493010    -1.449842547600     0.585829695153
C                     1.932301443478    -0.483630144965     2.533200301097
C                     0.679832623729    -0.774658010110     1.978061137878
C                     3.082832851553    -0.827332256742     1.826924787402
C                    -1.329985899090     0.704193767590     1.956871030242
C                    -0.598381498126    -0.392158482659     2.700947116749
N                    -2.395991249210     0.563716961759     1.247924965544
N                    -0.798858897944     1.989245255891     2.095206869747
O                    -2.868336637240    -0.785148720765     1.269787249948
F                     4.291608958962    -0.540307992912     2.379162588394
H                     1.723577097295    -2.222335212190    -0.931063293404
H                    -0.358297295507    -1.619402895887     0.290296446988
H                     3.964268345068    -1.700978330509     0.072913290526
H                     2.026072714147    -0.006080230275     3.504924174341
H                    -1.258292134488    -1.256011216665     2.786786232700
H                    -0.371833918436    -0.030316012055     3.707895459350
H                     0.216738306404     2.002748429529     2.059089487932
H                    -1.200732910146     2.645902325549     1.431672364346
H                    -3.697147097602    -0.708789735166     0.771630412659
