
  -OEChem-05262117483D

 23 24  0     0  0  0  0  0  0999 V2000
    1.6053   -1.1766   -3.3445 C   0  0  0  0  0  0  0  0  0  0  0  0
    1.1214   -3.3834   -2.8869 C   0  0  0  0  0  0  0  0  0  0  0  0
   -0.7693   -2.8804    0.1625 C   0  0  0  0  0  0  0  0  0  0  0  0
    0.3107   -1.6209   -1.3806 C   0  0  0  0  0  0  0  0  0  0  0  0
    0.9598   -0.6832   -2.2070 C   0  0  0  0  0  0  0  0  0  0  0  0
   -0.4830   -1.5653   -0.1746 C   0  0  0  0  0  0  0  0  0  0  0  0
    0.4348   -2.9877   -1.7351 C   0  0  0  0  0  0  0  0  0  0  0  0
   -1.0464   -0.3545    0.4507 C   0  0  0  0  0  0  0  0  0  0  0  0
    1.1590    0.7599   -1.8272 C   0  0  0  0  0  0  0  0  0  0  0  0
   -1.5781   -0.4567    1.8679 C   0  0  0  0  0  0  0  0  0  0  0  0
    1.6837   -2.4812   -3.6889 N   0  0  0  0  0  0  0  0  0  0  0  0
   -0.2255   -3.7322   -0.7648 N   0  0  0  0  0  0  0  0  0  0  0  0
   -1.0900    0.7000   -0.1751 O   0  0  0  0  0  0  0  0  0  0  0  0
    1.7931    1.0977   -0.8562 O   0  0  0  0  0  0  0  0  0  0  0  0
    0.6831    1.6759   -2.7128 O   0  0  0  0  0  0  0  0  0  0  0  0
    2.1247   -0.4885   -4.0091 H   0  0  0  0  0  0  0  0  0  0  0  0
    1.2188   -4.4318   -3.1678 H   0  0  0  0  0  0  0  0  0  0  0  0
   -1.3503   -3.2683    0.9887 H   0  0  0  0  0  0  0  0  0  0  0  0
   -0.7571   -0.6792    2.5583 H   0  0  0  0  0  0  0  0  0  0  0  0
   -2.3166   -1.2603    1.9626 H   0  0  0  0  0  0  0  0  0  0  0  0
   -2.0399    0.4910    2.1471 H   0  0  0  0  0  0  0  0  0  0  0  0
   -0.3270   -4.7381   -0.7635 H   0  0  0  0  0  0  0  0  0  0  0  0
    0.0935    1.2299   -3.3446 H   0  0  0  0  0  0  0  0  0  0  0  0
  1  5  1  0  0  0  0
  1 11  2  0  0  0  0
  1 16  1  0  0  0  0
  2  7  2  0  0  0  0
  2 11  1  0  0  0  0
  2 17  1  0  0  0  0
  3  6  2  0  0  0  0
  3 12  1  0  0  0  0
  3 18  1  0  0  0  0
  4  5  2  0  0  0  0
  4  6  1  0  0  0  0
  4  7  1  0  0  0  0
  5  9  1  0  0  0  0
  6  8  1  0  0  0  0
  7 12  1  0  0  0  0
  8 10  1  0  0  0  0
  8 13  2  0  0  0  0
  9 14  2  0  0  0  0
  9 15  1  0  0  0  0
 10 19  1  0  0  0  0
 10 20  1  0  0  0  0
 10 21  1  0  0  0  0
 12 22  1  0  0  0  0
 15 23  1  0  0  0  0
M  END
$$$$
