
  -OEChem-05262117483D

 19 19  0     0  0  0  0  0  0999 V2000
    2.1597   -0.4493    0.0683 C   0  0  0  0  0  0  0  0  0  0  0  0
    1.0417    0.0521    0.7279 C   0  0  0  0  0  0  0  0  0  0  0  0
    2.4290   -2.0986    1.8074 C   0  0  0  0  0  0  0  0  0  0  0  0
    2.8781   -1.5381    0.5999 C   0  0  0  0  0  0  0  0  0  0  0  0
    0.6156   -0.5011    1.9394 C   0  0  0  0  0  0  0  0  0  0  0  0
    1.3200   -1.5849    2.4801 C   0  0  0  0  0  0  0  0  0  0  0  0
    4.0470   -2.1545   -0.0817 C   0  0  0  0  0  0  0  0  0  0  0  0
    4.3280   -3.6231    0.1484 C   0  0  0  0  0  0  0  0  0  0  0  0
    4.8937   -1.5853   -0.8726 N   0  0  0  0  0  0  0  0  0  0  0  0
    4.6772   -0.2069   -1.0668 O   0  0  0  0  0  0  0  0  0  0  0  0
   -0.7823    0.1715    2.7354 Cl  0  0  0  0  0  0  0  0  0  0  0  0
    0.8360   -2.3253    3.9873 Cl  0  0  0  0  0  0  0  0  0  0  0  0
    2.4695    0.0006   -0.8644 H   0  0  0  0  0  0  0  0  0  0  0  0
    0.4876    0.8857    0.3080 H   0  0  0  0  0  0  0  0  0  0  0  0
    2.9430   -2.9430    2.2512 H   0  0  0  0  0  0  0  0  0  0  0  0
    3.4307   -4.2262   -0.0232 H   0  0  0  0  0  0  0  0  0  0  0  0
    5.1192   -3.9527   -0.5264 H   0  0  0  0  0  0  0  0  0  0  0  0
    4.6615   -3.8077    1.1755 H   0  0  0  0  0  0  0  0  0  0  0  0
    5.4269    0.0347   -1.6347 H   0  0  0  0  0  0  0  0  0  0  0  0
  1  2  1  0  0  0  0
  1  4  2  0  0  0  0
  1 13  1  0  0  0  0
  2  5  2  0  0  0  0
  2 14  1  0  0  0  0
  3  4  1  0  0  0  0
  3  6  2  0  0  0  0
  3 15  1  0  0  0  0
  4  7  1  0  0  0  0
  5  6  1  0  0  0  0
  5 11  1  0  0  0  0
  6 12  1  0  0  0  0
  7  8  1  0  0  0  0
  7  9  2  0  0  0  0
  8 16  1  0  0  0  0
  8 17  1  0  0  0  0
  8 18  1  0  0  0  0
  9 10  1  0  0  0  0
 10 19  1  0  0  0  0
M  END
$$$$
