
  -OEChem-05262117483D

 14 14  0     0  0  0  0  0  0999 V2000
   -1.2101    0.3674   -3.5203 C   0  0  0  0  0  0  0  0  0  0  0  0
   -0.5782    0.8746   -2.4187 C   0  0  0  0  0  0  0  0  0  0  0  0
   -0.7154    0.0361   -1.2607 C   0  0  0  0  0  0  0  0  0  0  0  0
   -1.4447   -1.1019   -1.4986 C   0  0  0  0  0  0  0  0  0  0  0  0
   -1.8544   -2.1837   -0.5396 C   0  0  0  0  0  0  0  0  0  0  0  0
   -3.0244   -1.7612    0.2494 N   0  0  0  0  0  0  0  0  0  0  0  0
   -1.9743   -1.1434   -3.1583 S   0  0  0  0  0  0  0  0  0  0  0  0
    0.3779    2.5135   -2.4514 Br  0  0  0  0  0  0  0  0  0  0  0  0
    0.0338    0.4446    0.4320 Br  0  0  0  0  0  0  0  0  0  0  0  0
   -1.2546    0.7917   -4.5139 H   0  0  0  0  0  0  0  0  0  0  0  0
   -2.0044   -3.1194   -1.1018 H   0  0  0  0  0  0  0  0  0  0  0  0
   -1.0269   -2.3563    0.1553 H   0  0  0  0  0  0  0  0  0  0  0  0
   -3.2563   -2.4861    0.9268 H   0  0  0  0  0  0  0  0  0  0  0  0
   -3.8319   -1.6552   -0.3627 H   0  0  0  0  0  0  0  0  0  0  0  0
  1  2  2  0  0  0  0
  1  7  1  0  0  0  0
  1 10  1  0  0  0  0
  2  3  1  0  0  0  0
  2  8  1  0  0  0  0
  3  4  2  0  0  0  0
  3  9  1  0  0  0  0
  4  5  1  0  0  0  0
  4  7  1  0  0  0  0
  5  6  1  0  0  0  0
  5 11  1  0  0  0  0
  5 12  1  0  0  0  0
  6 13  1  0  0  0  0
  6 14  1  0  0  0  0
M  END
$$$$
