19
0 1 C8Cl2H7NO
C                     2.159667221096    -0.449320099120     0.068288530418
C                     1.041717629597     0.052119139738     0.727874405434
C                     2.428977849310    -2.098647045502     1.807435973915
C                     2.878058580411    -1.538116540192     0.599892362564
C                     0.615640856274    -0.501067343698     1.939394418391
C                     1.319993906205    -1.584862266364     2.480091779895
C                     4.046991617977    -2.154475235936    -0.081661161330
C                     4.327990453124    -3.623068193726     0.148388523724
N                     4.893703524239    -1.585277617556    -0.872587666427
O                     4.677239665012    -0.206940256967    -1.066770132900
Cl                   -0.782308155708     0.171549165582     2.735362548236
Cl                    0.835994654843    -2.325289040990     3.987260618612
H                     2.469532937673     0.000561753360    -0.864426388562
H                     0.487570488436     0.885662074230     0.308011797138
H                     2.943041510130    -2.942984681790     2.251206877382
H                     3.430728893812    -4.226223754019    -0.023220835765
H                     5.119171799382    -3.952668489562    -0.526394706936
H                     4.661489065176    -3.807738975010     1.175522087605
H                     5.426918722159     0.034668007770    -1.634675272985
