29
0 1 C14Cl2H10O2S
C                     1.630017418134    -1.675267091538    -0.247706307117
C                     2.141549870894    -0.417480956299     0.090169097894
C                     1.620768014338    -2.701177737469     0.704075496484
C                     2.633772493776    -0.191642389403     1.375162752418
C                     2.099598881843    -2.473867195368     1.993595981580
C                     1.859287630449    -2.911827315012     7.989063794280
C                     1.621977205431    -2.600789926005     9.326848675350
C                     0.307017356740    -1.157858020019     7.318169169434
C                     2.596341630622    -1.206318756612     2.351224778100
C                     1.201712205492    -2.177743512438     7.001964179753
C                     0.738001116253    -1.570622499216     9.667285446230
C                     0.075106857067    -0.847835889241     8.659917995278
C                     3.122446120900    -0.896310527320     3.685445052686
C                     2.804382237514    -1.388433331504     4.895464186779
O                     2.048918357977    -3.925973700661     5.203683363174
O                     0.286567255807    -2.211241361225     4.513736173242
S                     1.500266912653    -2.559387429132     5.265466289508
Cl                    0.476939678114    -1.216373626333    11.351916407888
Cl                   -1.044303379952     0.430672635064     9.045422148598
H                     1.252798481275    -1.858716351899    -1.250394450374
H                     2.162969731399     0.380680597209    -0.646950340332
H                     1.243053370726    -3.685019805879     0.439765502950
H                     3.036513065410     0.784949850678     1.634929114001
H                     2.112032000951    -3.291237490032     2.705878476841
H                     2.526869002694    -3.721389795728     7.711785482391
H                     2.113838527280    -3.156906040316    10.118301463059
H                    -0.215596532488    -0.621747259654     6.532507638909
H                     3.901162375164    -0.132771107210     3.701390654323
H                     3.336999306432    -1.075807823479     5.788718980297
