18
0 1 C6H8N2OS
C                     0.971834481864     0.759552085704     4.248873861579
C                     0.532138269378     0.872864547819     2.891643686556
C                     2.254250852868     0.284759253074     4.353803055989
C                     1.484871247848     0.481592241193     1.983302717526
C                     0.067232160411    -0.012151745002    -0.020226280139
C                     1.406628872930     0.482821456352     0.474831912366
N                    -0.224213929358    -1.236811556190    -0.288699289622
N                    -0.958311818630     0.937313384272    -0.102960094259
O                     0.872206849339    -2.098206145634    -0.002026150747
S                     2.935738684703    -0.038854111721     2.792589507499
H                     0.360951706605     1.016585135867     5.108470910123
H                    -0.451993137256     1.216314538406     2.590764330368
H                     2.832524130291     0.098735693753     5.249894705031
H                     1.574793331112     1.499294697698     0.095613225412
H                     2.185324907333    -0.156654906768     0.055824189854
H                    -0.669609332777     1.811944590209    -0.530559040537
H                    -1.793460499033     0.562092684062    -0.545611428085
H                     0.512669919174    -2.965873215433    -0.243957065412
