21
0 1 C9H8N2O2
C                     1.981829768635    -4.964332134492    -2.823009100701
C                     2.072399215548    -3.546737990076    -2.938614334209
C                     1.197078539332    -5.199972169311    -1.722692307707
C                     1.334042391666    -3.010897163006    -1.897349817890
C                    -0.863034668373    -0.885281495272     1.215284129833
C                     0.371559995145    -1.130855419318    -0.526309054313
C                     0.233184144551     0.342232126279    -0.319112622658
C                     1.097620783275    -1.647316951416    -1.553295729183
C                    -1.014489181355     1.650840414372     1.448824712278
N                    -0.341388665431    -1.816026980718     0.472520963737
N                    -0.578176771375     0.415416837088     0.824989721525
O                     0.682258456731     1.296822522050    -0.943961596323
O                     0.797485212115    -4.034737302556    -1.152112706000
H                     2.432546832090    -5.711825980807    -3.462066926981
H                     2.608904461648    -2.978635556852    -3.687519649606
H                     0.848660241500    -6.102954943911    -1.240933973663
H                    -1.482684872826    -1.077202591728     2.086864449230
H                     1.567560637541    -0.917635823858    -2.209201748210
H                    -0.655581739232     1.718422075164     2.480754092800
H                    -2.106054182341     1.732943539216     1.438619302224
H                    -0.590672084681     2.473855717514     0.870191737229
