22
0 1 C9H10O3
C                     1.901243387387    -1.041663235472    -0.144492355967
C                     0.810690585986    -0.470571220888     0.515402098155
C                     2.946698802003    -1.609147647923     0.581922398799
C                     1.811209822360    -1.012162812501     2.652855634721
C                     0.744789655516    -0.457818219447     1.914444765970
C                     2.902516992335    -1.592637816377     1.981190517273
C                     1.752989010086    -1.020294975037     4.148372441060
C                    -0.453935519250     0.154851656046     2.601967191838
C                     2.908008650549    -0.531487079778     6.145482286321
O                     0.803859580251    -1.421378195398     4.799741315849
O                     3.893022386097    -2.171776822425     2.732369035089
O                     2.866259812484    -0.498075682672     4.705134664869
H                     1.937017179732    -1.049168952734    -1.230743983833
H                     0.000496516393    -0.031051684797    -0.059679298752
H                     3.792241978061    -2.065534739355     0.069827843423
H                    -1.036084427062    -0.608796774570     3.124296965821
H                    -0.155587286453     0.892103023443     3.354084718739
H                    -1.098603624108     0.652796684864     1.873451222537
H                     3.870417337977    -0.097979346057     6.416963737040
H                     2.834001508395    -1.561154137764     6.503330363294
H                     2.087513458621     0.054654888139     6.566687972837
H                     4.547329437972    -2.564132587639     2.132983036906
