24
0 1 C6H14N2OS
C                    -0.400821314685    -2.428072009053     1.802815780607
C                     1.681747914254    -1.796744250005     0.698557802750
C                     0.080301075355    -0.008308553175     4.420160534097
C                    -1.415984323840    -2.915311200804     4.067682325203
C                    -0.223461460532    -2.746459373176     5.017092605259
C                    -1.112585480867    -3.479706752960     2.669725015723
N                    -0.344905407836    -4.734768445789     2.758213923056
N                     0.815211214602    -2.792263132162     1.311396543983
O                    -0.961296425724    -1.359441278496     1.543559699315
S                     1.065398489695    -1.542118019506     4.523070335353
H                     2.470657947256    -2.299864499649     0.133664638805
H                     2.134971801283    -1.146538004006     1.458457108081
H                     1.090713036261    -1.178642687951     0.021470090006
H                     0.793531062411     0.812581346743     4.311558627590
H                    -0.492350329217     0.146272206473     5.339858857884
H                    -0.579411056052    -0.023294528983     3.550035531405
H                    -2.132517265709    -3.590246776292     4.557488264557
H                    -1.934853776292    -1.963080422091     3.932543483358
H                     0.320069930691    -3.688500294354     5.131175792815
H                    -0.595558401209    -2.461817152934     6.007376120309
H                    -2.087607990837    -3.618241076253     2.179608888564
H                    -0.442236035551    -5.258695207800     1.889920143394
H                    -0.731055675946    -5.324124382078     3.494208457535
H                     1.248250462447    -3.556989586717     1.820389210720
