22
0 1 C9H10O3
C                     1.979682801440    -0.886222642233     0.072594085541
C                     0.863043939558    -0.322331882803     0.694230006310
C                     2.933242386463    -1.576235280802     0.821516609781
C                     1.646595979217    -1.126974994582     2.834854674352
C                     0.680080855467    -0.440688271587     2.078514239225
C                     2.765705617122    -1.692633957328     2.206142670007
C                     1.529046987854    -1.219641274442     4.327519104399
C                    -0.530541366018     0.172593015256     2.744610126371
C                     0.282137598045    -2.122206750477     6.119083027017
O                     2.251767614722    -0.649802610790     5.120081550260
O                     3.655820744038    -2.374151851720     2.995619531179
O                     0.489430535748    -2.007554893215     4.695433714158
H                     2.110058857886    -0.789662771709    -1.002043097405
H                     0.128312133030     0.216837606508     0.102497318204
H                     3.800492295284    -2.022045225773     0.337513860558
H                    -1.202397897446    -0.603247647711     3.124823925779
H                    -0.244086041774     0.799880151752     3.595470014658
H                    -1.087811007271     0.794932154328     2.040227908193
H                    -0.578063950794    -2.781437447041     6.235035316107
H                     0.078926209460    -1.140884369939     6.554898772434
H                     1.165564078481    -2.550987704016     6.597541623646
H                     4.386788216727    -2.695462766471     2.444703292061
