18   
torsion grid (-165,)
C        4.6928688684    1.3644070294    0.7828014079
C        5.8411641224    1.1290996749    0.0197561828
C        3.5614914628    0.5802849543    0.5629876718
C        5.8506834320    0.1187363106   -0.9412556294
C        3.5461239077   -0.4583037096   -0.3846267244
C        4.7178575978   -0.6834994258   -1.1459660335
C        2.3344226337   -1.3280917953   -0.5242692333
C        0.9680276476   -0.7318588289   -0.1966152076
O        2.4151680006   -2.5029078062   -0.8541396612
O        4.7132090226   -1.6585769805   -2.0977396837
H        4.6800158646    2.1479994229    1.5344135510
H        6.7317142299    1.7342987894    0.1675925929
H        2.6728895832    0.7601911792    1.1603396041
H        6.7438556564   -0.0549191717   -1.5399896468
H        0.9493825409    0.3587441618   -0.1657590793
H        0.6405171348   -1.1132314865    0.7773552348
H        0.2552164342   -1.0931429841   -0.9413721234
H        5.5678265595   -1.6461299695   -2.5582603690
18   
torsion grid (-150,)
C        4.6789940461    1.3483067464    0.7836757423
C        5.8398394923    1.1077593192    0.0413218268
C        3.5472828931    0.5725924382    0.5397303488
C        5.8576857960    0.1018347310   -0.9236127399
C        3.5382017225   -0.4617042978   -0.4137141259
C        4.7224728349   -0.6903523355   -1.1556028912
C        2.3156946764   -1.3097275827   -0.5878900454
C        0.9710063969   -0.7235405127   -0.1688473611
O        2.3728073855   -2.4561676635   -1.0104593610
O        4.7330533640   -1.6597804872   -2.1123300576
H        4.6575683848    2.1292555391    1.5378511925
H        6.7325117277    1.7047727826    0.2085536597
H        2.6490050132    0.7597748941    1.1195023084
H        6.7605915135   -0.0769092296   -1.5060349785
H        0.9063508063    0.3583113390   -0.3067863486
H        0.8006793468   -0.9365788387    0.8935775322
H        0.1865053364   -1.2251594756   -0.7376724454
H        5.5972174930   -1.6472314437   -2.5550147210
18   
torsion grid (-135,)
C        4.6482345507    1.3470038149    0.7712243170
C        5.8245956329    1.0932967276    0.0580813329
C        3.5165340495    0.5805089448    0.5031438279
C        5.8544973221    0.0849618251   -0.9029772326
C        3.5148704386   -0.4545124408   -0.4514917045
C        4.7164013113   -0.6948777594   -1.1647684501
C        2.2800846956   -1.2735646789   -0.6700995991
C        0.9619298000   -0.7380819741   -0.1196717287
O        2.3020618502   -2.3516214503   -1.2486652381
O        4.7505278535   -1.6670926126   -2.1167842755
H        4.6155598760    2.1307051338    1.5221240186
H        6.7194298265    1.6808554012    0.2460937911
H        2.6080492473    0.7818568663    1.0605521167
H        6.7700324147   -0.1064904688   -1.4612231123
H        0.8129249692    0.3213336194   -0.3479375330
H        0.9322542880   -0.8501586013    0.9704981185
H        0.1504532001   -1.3283152457   -0.5470818079
H        5.6302831446   -1.6624003694   -2.5285189549
18   
torsion grid (-120,)
C        4.6399918778    1.3725534249    0.7398762921
C        5.8406049137    1.0789052131    0.0846611182
C        3.5053364692    0.6238770190    0.4387971147
C        5.8889578381    0.0505152827   -0.8532635888
C        3.5160840362   -0.4237508137   -0.5035913147
C        4.7442265179   -0.7050848468   -1.1567024878
C        2.2643623352   -1.1955133251   -0.7867460190
C        0.9967286519   -0.8052947059   -0.0319705000
O        2.2263225601   -2.1161436955   -1.5927263677
O        4.8087614272   -1.7061249408   -2.0756543956
H        4.5917485812    2.1723135186    1.4727879050
H        6.7401195545    1.6489628946    0.3020058402
H        2.5796358051    0.8590999542    0.9517828112
H        6.8247380674   -0.1764243951   -1.3625633609
H        0.7144821263    0.2338292935   -0.2319781337
H        1.1257415330   -0.9120004680    1.0503795536
H        0.1926308123   -1.4637508006   -0.3620456287
H        5.7186429674   -1.7519631656   -2.4133428634
18   
torsion grid (-105,)
C        4.6163472221    1.3979534842    0.7045688209
C        5.8282247561    1.0518751195    0.0976433408
C        3.4687549918    0.6775782799    0.3818442339
C        5.8761143390    0.0016454188   -0.8166734528
C        3.4782338414   -0.3807876308   -0.5468625048
C        4.7166549530   -0.7171005948   -1.1498571672
C        2.2060561793   -1.0950158458   -0.8852023769
C        1.0075751718   -0.8937877099    0.0372959035
O        2.0961841731   -1.8063128211   -1.8748536278
O        4.7763441048   -1.7516116467   -2.0323780778
H        4.5694275901    2.2150065286    1.4182414223
H        6.7381978568    1.5961601478    0.3364019591
H        2.5321984118    0.9518221528    0.8553393544
H        6.8222248843   -0.2696432754   -1.2833373427
H        0.5746388490    0.1022908098   -0.1111599082
H        1.2714275655   -0.9920971890    1.0943203555
H        0.2522353759   -1.6358240836   -0.2247895418
H        5.7003427093   -1.8651983474   -2.3096229334
18   
torsion grid (-90,)
C        4.6399764407    1.4193193127    0.6946739288
C        5.8522301355    1.0435930446    0.1065809857
C        3.4815054994    0.7199381763    0.3620236627
C        5.8917058762   -0.0133406546   -0.8014610755
C        3.4843189727   -0.3392713555   -0.5638509322
C        4.7209928465   -0.7054624039   -1.1487455210
C        2.1989933143   -1.0130474839   -0.9343986287
C        1.0367355370   -0.9302576275    0.0507952634
O        2.0466205391   -1.5834145340   -2.0056847537
O        4.7628457391   -1.7508402280   -2.0207617096
H        4.6008879861    2.2422277373    1.4020735317
H        6.7701728917    1.5693473291    0.3560369532
H        2.5419434229    1.0154926849    0.8179436083
H        6.8388375312   -0.3088291077   -1.2509496590
H        0.4564724250   -0.0204492005   -0.1441166257
H        1.3505153562   -0.9259184877    1.0971641931
H        0.3787508303   -1.7811829701   -0.1350480321
H        5.6862452454   -1.8968430955   -2.2833909915
18   
torsion grid (-75,)
C        4.6482546072    1.4404078718    0.7201155058
C        5.8603583712    1.0423256607    0.1469950270
C        3.4804062777    0.7631491553    0.3724916561
C        5.8920493789   -0.0139027663   -0.7630076539
C        3.4769667505   -0.2918262473   -0.5567651861
C        4.7123050174   -0.6802073593   -1.1275872595
C        2.1827636328   -0.9295799620   -0.9601202501
C        1.0374932393   -0.9472719253    0.0487229793
O        2.0102950413   -1.3959573370   -2.0772713464
O        4.7395271161   -1.7268960668   -1.9997103936
H        4.6158349155    2.2632391019    1.4279379915
H        6.7848939071    1.5496030549    0.4099261165
H        2.5393373899    1.0762239135    0.8144281515
H        6.8393878713   -0.3275956732   -1.1994744412
H        0.3082873665   -0.1752736553   -0.2219544872
H        1.3486298095   -0.8028573987    1.0846504252
H        0.5281158491   -1.9092796327   -0.0469445610
H        5.6611137514   -1.8928496966   -2.2560560079
18   
torsion grid (-60,)
C        4.6723153737    1.4355448997    0.7188072439
C        5.8785182854    1.0126562911    0.1514103222
C        3.4919477745    0.7830583168    0.3650039522
C        5.8943250891   -0.0424110018   -0.7606733008
C        3.4733320982   -0.2696202390   -0.5661362553
C        4.7025731748   -0.6821025145   -1.1326269657
C        2.1703182816   -0.8800913981   -0.9852552668
C        1.0429366678   -0.9775913381    0.0389697058
O        1.9854896068   -1.2876830726   -2.1230540722
O        4.7099545646   -1.7284083168   -2.0062771154
H        4.6532588156    2.2584532734    1.4270129026
H        6.8118575101    1.5002266304    0.4203520975
H        2.5549280909    1.1171579295    0.8002967970
H        6.8373668304   -0.3751007192   -1.1923588103
H        0.1807426587   -0.4063208557   -0.3189516915
H        1.3106091590   -0.6522178987    1.0448368703
H        0.7332675849   -2.0261962225    0.0811622718
H        5.6282810280   -1.9146351857   -2.2600489509
18   
torsion grid (-45,)
C        4.7273976147    1.1992904472    0.9739882571
C        5.8488412953    1.0160464396    0.1586256534
C        3.5649231765    0.4809191636    0.6978644138
C        5.8000672806    0.1207852105   -0.9095841617
C        3.4918307749   -0.4435175199   -0.3585733491
C        4.6364102679   -0.6177725362   -1.1719954009
C        2.2481903254   -1.2550325522   -0.5591942757
C        0.9073565738   -0.6408671260   -0.1651843399
O        2.2842919230   -2.3972869416   -0.9939155591
O        4.5743982203   -1.4784995086   -2.2269539044
H        4.7588952630    1.8929038859    1.8088611319
H        6.7628397584    1.5725091767    0.3488144209
H        2.6963139801    0.6202429493    1.3344565315
H        6.6721633763   -0.0114907327   -1.5485534120
H        0.1906087881   -0.8720361382   -0.9571216145
H        0.9386170681    0.4407691887   -0.0227245328
H        0.5484413793   -1.1134178735    0.7554250201
H        5.4174409468   -1.4422502120   -2.7070298364
18   
torsion grid (-30,)
C        4.7006719725    1.1973555055    0.9776886978
C        5.8402753997    1.0098744654    0.1886246859
C        3.5425382444    0.4842927056    0.6735887317
C        5.8114023525    0.1173193015   -0.8819162168
C        3.4864648359   -0.4371151680   -0.3877424508
C        4.6497688590   -0.6136457937   -1.1754356126
C        2.2380558903   -1.2299165092   -0.6258971834
C        0.9154475523   -0.6533976362   -0.1286758942
O        2.2571573505   -2.3291111610   -1.1620122156
O        4.6139326065   -1.4707028034   -2.2335366672
H        4.7156907302    1.8899060863    1.8139101808
H        6.7527328884    1.5605877836    0.4016763457
H        2.6605336069    0.6294739118    1.2893781206
H        6.6979073737   -0.0194639676   -1.4998131995
H        0.1182194213   -1.0383091514   -0.7672132502
H        0.8895360766    0.4388796451   -0.1362457612
H        0.7268903717   -0.9959826632    0.8953698391
H        5.4698246637   -1.4331749728   -2.6905997573
18   
torsion grid (-15,)
C        4.6798080083    1.1842824046    0.9571317824
C        5.8325806826    0.9732497200    0.1933760335
C        3.5164940379    0.4909559973    0.6310750021
C        5.8083177307    0.0787901206   -0.8747341264
C        3.4603841495   -0.4301243422   -0.4322705123
C        4.6385509057   -0.6287686890   -1.1952699533
C        2.1942177759   -1.1804463542   -0.7100464130
C        0.9028470621   -0.6545895115   -0.0907463022
O        2.1708137041   -2.1986688436   -1.3882288119
O        4.6187023131   -1.4881135771   -2.2507751608
H        4.6894422033    1.8793426689    1.7913424796
H        6.7511305692    1.5060305279    0.4251370772
H        2.6262062758    0.6582954481    1.2278378106
H        6.7055657448   -0.0787155256   -1.4719141917
H        0.0652911672   -1.1532738161   -0.5802699743
H        0.7988375343    0.4290258646   -0.1986137932
H        0.8695666719   -0.8900306566    0.9792791513
H        5.4892628508   -1.4659733258   -2.6809967066
18   
torsion grid (0,)
C        4.6924921070    1.2259822380    0.9288371619
C        5.8673983668    0.9574470969    0.2185886014
C        3.5214402158    0.5618237751    0.5736285345
C        5.8545000492    0.0373703484   -0.8268613929
C        3.4701859925   -0.3750862193   -0.4777264035
C        4.6730496601   -0.6327200986   -1.1853313806
C        2.1812325626   -1.0586818384   -0.8155543243
C        0.9473728829   -0.7101240444    0.0120869757
O        2.0872791202   -1.8765431097   -1.7215697239
O        4.6778680979   -1.5286126691   -2.2091636305
H        4.6918734714    1.9416111621    1.7455248656
H        6.7944168152    1.4628426556    0.4765533003
H        2.6160670895    0.7768632361    1.1299101189
H        6.7704057300   -0.1702606699   -1.3787372859
H        0.1101878408   -1.2954650315   -0.3694957375
H        0.7029538182    0.3549102404   -0.0612026519
H        1.0957733027   -0.9447015547    1.0715288449
H        5.5787250526   -1.5743875540   -2.5702451677
18   
torsion grid (15,)
C        4.6601690980    1.2508647107    0.8994281748
C        5.8486376509    0.9215145520    0.2392657179
C        3.4784098519    0.6186464397    0.5198741071
C        5.8400144981   -0.0248099166   -0.7834280416
C        3.4310564499   -0.3314965148   -0.5180225950
C        4.6462405924   -0.6528313582   -1.1735990614
C        2.1242763027   -0.9472532200   -0.9136161973
C        0.9541626707   -0.8231759070    0.0575350242
O        1.9653029728   -1.5162639164   -1.9851623114
O        4.6494185398   -1.5885261079   -2.1622472257
H        4.6573562204    1.9872026560    1.6974932858
H        6.7842946864    1.3976151549    0.5206496767
H        2.5600033273    0.8791873542    1.0350337075
H        6.7680118910   -0.2842353813   -1.2913707732
H        0.1759560584   -1.5185587168   -0.2597302266
H        0.5432866756    0.1927052940    0.0318080962
H        1.2430530910   -1.0415408110    1.0897828210
H        5.5642110581   -1.7129776183   -2.4641133486
18   
torsion grid (30,)
C        4.6773909311    1.2760203158    0.9094028299
C        5.8688293917    0.9167308061    0.2707688821
C        3.4876458065    0.6676947192    0.5136048744
C        5.8573536339   -0.0335290134   -0.7492417255
C        3.4396433997   -0.2805120129   -0.5242586852
C        4.6556264301   -0.6316477053   -1.1590729888
C        2.1238101529   -0.8498988103   -0.9580322301
C        0.9767048488   -0.8549273141    0.0484565098
O        1.9364576835   -1.2649814340   -2.0932055326
O        4.6458633124   -1.5751582488   -2.1414687611
H        4.6780507375    2.0161953738    1.7039208656
H        6.8101402247    1.3718420897    0.5675228140
H        2.5641019240    0.9505596077    1.0088428139
H        6.7882846771   -0.3175603934   -1.2382109508
H        0.3142199322   -1.6863829215   -0.1990405871
H        0.4040468698    0.0753667209   -0.0421189311
H        1.3103217682   -0.9540427571    1.0841564210
H        5.5600586679   -1.7308561631   -2.4293425678
18   
torsion grid (45,)
C        4.7031771040    1.2810665501    0.9029777074
C        5.8870932863    0.8907631221    0.2689147400
C        3.4998348303    0.6981092396    0.5082934386
C        5.8561256895   -0.0635573261   -0.7475776419
C        3.4341064892   -0.2507814330   -0.5267289550
C        4.6412583747   -0.6324281861   -1.1585614249
C        2.1058193776   -0.7818042960   -0.9729496347
C        0.9838628256   -0.8929322968    0.0561970186
O        1.8909706962   -1.0924880007   -2.1358539288
O        4.6058003019   -1.5811993152   -2.1364211376
H        4.7194290072    2.0252425168    1.6935739004
H        6.8381647907    1.3243832763    0.5666597263
H        2.5805529380    1.0053836446    0.9978292108
H        6.7815186293   -0.3724789417   -1.2318766793
H        0.4875512618   -1.8546124380   -0.0960428531
H        0.2447469744   -0.1055432828   -0.1264826739
H        1.3229120711   -0.8312344816    1.0917875198
H        5.5145369336   -1.7626673420   -2.4258601613
18   
torsion grid (60,)
C        4.6151491933    1.5717551800    0.6169617434
C        5.7544148020    1.2643046697   -0.1335374387
C        3.4961883423    0.7456413866    0.5187380423
C        5.7687981145    0.1418903110   -0.9613623222
C        3.4875144685   -0.4031494884   -0.2910195100
C        4.6500224875   -0.7006421150   -1.0407941314
C        2.2956669894   -1.3118126973   -0.2946569834
C        0.9075820333   -0.7015636391   -0.1204487128
O        2.4083195877   -2.5227544275   -0.4203900179
O        4.6460913949   -1.7875222285   -1.8634434789
H        4.5990908566    2.4424112109    1.2656507460
H        6.6343908256    1.8998862846   -0.0801010075
H        2.6147909162    0.9809289730    1.1077096235
H        6.6546879749   -0.0880367002   -1.5518668174
H        0.4433610821   -1.1139448270    0.7808155786
H        0.3001618908   -1.0305356586   -0.9690157240
H        0.8897206463    0.3880966304   -0.0803577048
H        5.4920034308   -1.8204537654   -2.3385779024
18   
torsion grid (75,)
C        4.5948675806    1.5676780389    0.6302264338
C        5.7488978779    1.2632549764   -0.0989320776
C        3.4772972567    0.7440150200    0.5037105537
C        5.7762559150    0.1468010959   -0.9341026838
C        3.4806972075   -0.3994978480   -0.3141332324
C        4.6574391507   -0.6928162628   -1.0435035053
C        2.2828238046   -1.2985575758   -0.3484557601
C        0.9085359102   -0.6858600561   -0.0922230429
O        2.3813131017   -2.5029247540   -0.5357501485
O        4.6704171374   -1.7729535435   -1.8741859517
H        4.5670928935    2.4342974276    1.2839188519
H        6.6291768461    1.8961928800   -0.0232518668
H        2.5835980208    0.9786512299    1.0739573242
H        6.6733961662   -0.0812355714   -1.5081195817
H        0.5923429928   -0.9270774141    0.9289648761
H        0.1990314351   -1.1734262732   -0.7652452229
H        0.8636574553    0.3946028792   -0.2384842017
H        5.5262739890   -1.8018978497   -2.3316210820
18   
torsion grid (90,)
C        4.5900624387    1.5362578268    0.6180350965
C        5.7562770157    1.2240707589   -0.0884117217
C        3.4688225231    0.7230051208    0.4654370521
C        5.7896534072    0.1113665245   -0.9274499822
C        3.4753044407   -0.4168194000   -0.3591469551
C        4.6649193117   -0.7167861671   -1.0665368891
C        2.2628202528   -1.2928875269   -0.4348440086
C        0.9123009699   -0.6795859125   -0.0767084385
O        2.3314127320   -2.4774765647   -0.7318859603
O        4.6912230102   -1.7924659515   -1.9015223219
H        4.5565475297    2.4006853134    1.2743607341
H        6.6410639702    1.8477530894    0.0087331534
H        2.5662132457    0.9662300946    1.0169176181
H        6.6967266508   -0.1238301505   -1.4827095095
H        0.7432121231   -0.7728975768    1.0027129594
H        0.1366366133   -1.2611093496   -0.5784377338
H        0.8235446413    0.3734327951   -0.3535429665
H        5.5569511070   -1.8213191964   -2.3404305579
18   
torsion grid (105,)
C        4.5591779162    1.5331330295    0.6058294275
C        5.7406873031    1.2114845787   -0.0704490793
C        3.4377043887    0.7263590422    0.4284285514
C        5.7857377961    0.0971052116   -0.9055414646
C        3.4513296192   -0.4140229693   -0.3974444476
C        4.6579272797   -0.7221341194   -1.0753703092
C        2.2268870586   -1.2676834653   -0.5200525551
C        0.9023023920   -0.6901758593   -0.0303446697
O        2.2616196105   -2.4033242101   -0.9745171237
O        4.7070208445   -1.7996868621   -1.9054836288
H        4.5147441728    2.3996210158    1.2587687083
H        6.6278025817    1.8281138788    0.0482830086
H        2.5251114203    0.9808776559    0.9565756785
H        6.7052868073   -0.1476920228   -1.4356375330
H        0.8735301309   -0.6769265530    1.0653931830
H        0.1002868130   -1.3393575920   -0.3841505976
H        0.7344356713    0.3312833006   -0.3839330962
H        5.5882637486   -1.8331200899   -2.3127097389
18   
torsion grid (120,)
C        4.5600936725    1.5654156794    0.5682927959
C        5.7645733445    1.2103172197   -0.0482696882
C        3.4339281247    0.7744469177    0.3568214410
C        5.8250209234    0.0801363149   -0.8598455539
C        3.4568284601   -0.3753636260   -0.4575197666
C        4.6886621038   -0.7176462888   -1.0735306576
C        2.2136953689   -1.1881095553   -0.6488877191
C        0.9442094689   -0.7333741973    0.0655984092
O        2.1839309074   -2.1911146392   -1.3501100115
O        4.7651084813   -1.8184640256   -1.8691826248
H        4.5024004992    2.4446573823    1.2028856822
H        6.6577456161    1.8113260910    0.1012752231
H        2.5051814255    1.0578260954    0.8390396370
H        6.7639031366   -0.1948466825   -1.3388615286
H        1.0801004063   -0.7146887077    1.1521633639
H        0.1483816967   -1.4362638087   -0.1828120807
H        0.6453129728    0.2721474516   -0.2491837839
H        5.6756412758   -1.8931089904   -2.1999050348
18   
torsion grid (135,)
C        4.5385386992    1.5805834703    0.5408074458
C        5.7560814829    1.1768955374   -0.0172181293
C        3.3995511010    0.8144055086    0.3045727553
C        5.8180203871    0.0248000081   -0.7983118718
C        3.4232280492   -0.3476801246   -0.4901587839
C        4.6671361758   -0.7409569817   -1.0453552532
C        2.1596468193   -1.1108026431   -0.7438099511
C        0.9584887533   -0.8196161693    0.1504355268
O        2.0588339423   -1.9311964853   -1.6461506404
O        4.7404922472   -1.8737423741   -1.7964326600
H        4.4806486789    2.4770652831    1.1507871781
H        6.6595538991    1.7555863982    0.1564391657
H        2.4585440245    1.1337804028    0.7394236607
H        6.7685462448   -0.2907233810   -1.2266140086
H        1.2253947682   -0.7834031468    1.2106803627
H        0.2124381850   -1.5969704617   -0.0189106667
H        0.5143804973    0.1473960731   -0.1133212052
H        5.6666624582   -2.0106850278   -2.0552231454
18   
torsion grid (150,)
C        4.5618064073    1.6008606388    0.5285494898
C        5.7798497275    1.1695388858   -0.0070324063
C        3.4115283978    0.8544495630    0.2800738887
C        5.8331962590    0.0112155255   -0.7808154040
C        3.4284323644   -0.3083740312   -0.5114201715
C        4.6706486365   -0.7296012146   -1.0449412295
C        2.1513637408   -1.0349930574   -0.8031618105
C        0.9882361026   -0.8585148719    0.1681241618
O        2.0061469014   -1.7204104670   -1.8057913070
O        4.7256348030   -1.8724373274   -1.7839463832
H        4.5119073066    2.5027043738    1.1312999418
H        6.6915715630    1.7310305068    0.1793686169
H        2.4674257106    1.1934096359    0.6946259152
H        6.7848684153   -0.3266294773   -1.1889632909
H        1.3048368567   -0.7097347847    1.2031308429
H        0.3425873043   -1.7348653580    0.0921140263
H        0.3988592589    0.0168411967   -0.1310818019
H        5.6512586866   -2.0400968580   -2.0248153373
18   
torsion grid (165,)
C        4.5792619292    1.6082416113    0.5382243739
C        5.7950536012    1.1558199095    0.0153929520
C        3.4182520047    0.8818919482    0.2781214657
C        5.8382743751   -0.0023855933   -0.7599517522
C        3.4262173150   -0.2784510805   -0.5158638200
C        4.6652162552   -0.7201234018   -1.0384661626
C        2.1400129225   -0.9761622302   -0.8369982664
C        0.9928763164   -0.8872248117    0.1660247703
O        1.9745477505   -1.5772719008   -1.8890511613
O        4.7032655778   -1.8641128328   -1.7777294503
H        4.5386515250    2.5107949932    1.1405952365
H        6.7141920756    1.7010601383    0.2131280145
H        2.4743481834    1.2377568028    0.6796363956
H        6.7885945368   -0.3565750808   -1.1572371655
H        1.2934146405   -0.5677474720    1.1651872773
H        0.5149154764   -1.8680400369    0.2193568870
H        0.2447793463   -0.1822967826   -0.2144388453
H        5.6266787774   -2.0508532539   -2.0123375569
18   
torsion grid (180,)
C        4.7111204667    1.3858679861    0.7872540479
C        5.8402721991    1.1544266751   -0.0044768530
C        3.5802421193    0.5907147488    0.6038988124
C        5.8316361588    0.1357446171   -0.9573232995
C        3.5490082515   -0.4558455645   -0.3333196986
C        4.7012094050   -0.6779218043   -1.1233683731
C        2.3456456065   -1.3449682345   -0.4306796122
C        0.9639272992   -0.7344260222   -0.2149487160
O        2.4455766669   -2.5392879463   -0.6717534776
O        4.6746763458   -1.6614528024   -2.0672488127
H        4.7117746247    2.1749596733    1.5331957024
H        6.7291780267    1.7684402347    0.1139689495
H        2.7068231873    0.7668270966    1.2247037506
H        6.7092389304   -0.0346789823   -1.5794836253
H        0.9673000165    0.3358282323   -0.0053766142
H        0.4591470742   -1.2662072670    0.5972572566
H        0.3829648943   -0.9112829367   -1.1253635771
H        5.5163489276   -1.6511092013   -2.5507652748
