22   
torsion grid (-165,)
C        2.3373639597   -2.3663188372    1.0374887011
C        2.6133204127   -3.0559694763    2.3643824054
C        0.7949968881    0.2380371757   -0.1980322080
C        4.1053399596    2.7025911579    1.1926756941
C        3.2384850326    0.9751175527   -0.1778684426
C        2.2638244175   -0.2009057441   -0.1621574420
N        2.5547298742   -1.0189056386    1.0139399111
O        1.9510327722   -2.9943766445    0.0497486814
O        3.2090314765    1.6063004604    1.1005371741
H        1.6893795627   -3.5249520622    2.7142691352
H        3.3432719070   -3.8529978376    2.2000900580
H        2.9874144122   -2.3820565392    3.1405181162
H        0.5638777207    0.8838147958    0.6545867319
H        0.1453738381   -0.6401536622   -0.1656859555
H        0.5799696264    0.7906087063   -1.1195118817
H        4.0150748039    3.1102535352    2.2019948525
H        3.8528357845    3.4866591421    0.4639148141
H        5.1447702978    2.3846650227    1.0223498925
H        4.2579075840    0.6154218136   -0.3863260734
H        2.9556864727    1.6898368057   -0.9651379123
H        2.4792780083   -0.8356456133   -1.0262964285
H        2.7987699865   -0.5243998293    1.8625090104
22   
torsion grid (-150,)
C        2.2824544646   -2.3185903243    1.0328156217
C        2.5630136559   -2.9971062249    2.3646192145
C        0.7504420743    0.2135636281   -0.3102946817
C        4.1783630815    2.6354673991    1.2466620627
C        3.1703229475    1.0406952675   -0.1856317181
C        2.2283179881   -0.1730021778   -0.1981031748
N        2.4864201189   -0.9708376109    1.0009921236
O        1.8986576460   -2.9567330801    0.0497087219
O        3.3204393771    1.5089237420    1.1531049092
H        1.6446529744   -3.4771936980    2.7139935034
H        3.3048607169   -3.7846317520    2.2073651644
H        2.9245597134   -2.3134988946    3.1382022557
H        0.4624922825    0.8735369581    0.5148920102
H        0.1274923261   -0.6835630804   -0.2800373711
H        0.5578161475    0.7345529449   -1.2548438696
H        4.2394963604    2.9082695557    2.3024958279
H        3.7817523899    3.4880700868    0.6765180811
H        5.1865188482    2.4000304589    0.8745852302
H        4.1591644800    0.7546205642   -0.5758234205
H        2.7665125085    1.8372996617   -0.8271619967
H        2.5167800220   -0.8247091296   -1.0277078303
H        2.7783910079   -0.4718916980    1.8311404148
22   
torsion grid (-135,)
C        2.2100056958   -2.3025462924    1.0738718845
C        2.4901832402   -2.9654575233    2.4136217434
C        0.7161750879    0.1448839302   -0.4073828914
C        4.2574101187    2.5609303933    1.2692985604
C        3.0899904099    1.0802265068   -0.1614409847
C        2.1972426511   -0.1837304217   -0.1954618062
N        2.4020929812   -0.9541016846    1.0307326030
O        1.8303937254   -2.9526521814    0.0965389345
O        3.4530344429    1.3950935885    1.1806560166
H        1.5769825366   -3.4573271971    2.7598704976
H        3.2459427606   -3.7422076912    2.2688109220
H        2.8343950132   -2.2696538993    3.1842253798
H        0.3515450874    0.8016611351    0.3902575624
H        0.1264138491   -0.7746625489   -0.4064466447
H        0.5662068817    0.6498550718   -1.3684234168
H        4.4919691507    2.7114364075    2.3252998955
H        3.7243802628    3.4440628444    0.8881837068
H        5.1933887148    2.4415221840    0.7039828659
H        4.0075782311    0.9121712993   -0.7451417835
H        2.5539749985    1.9268300119   -0.6138243792
H        2.5511032684   -0.8392716399   -0.9961730335
H        2.7556675650   -0.4560122526    1.8368080252
22   
torsion grid (-120,)
C        2.1487465159   -2.2883662275    1.1326608648
C        2.4275678640   -2.9380396094    2.4792016201
C        0.7232373159    0.0702157094   -0.4929068841
C        4.3557757901    2.4981842629    1.2711614245
C        3.0181673850    1.1216802216   -0.1120092749
C        2.1986679520   -0.1976677260   -0.1731003315
N        2.3438780147   -0.9401406238    1.0763569222
O        1.7623955692   -2.9464370388    0.1635342241
O        3.6185662938    1.2895963324    1.1691293417
H        1.5167529451   -3.4344476054    2.8249641571
H        3.1904630302   -3.7097689804    2.3444944786
H        2.7620939553   -2.2331000080    3.2457114777
H        0.2707061744    0.6958830738    0.2845756231
H        0.1775520625   -0.8739023374   -0.5520834024
H        0.6256877289    0.5869999055   -1.4548151734
H        4.7752623261    2.5354911758    2.2788001214
H        3.7094010943    3.3742546299    1.1152561742
H        5.1742193717    2.5272635802    0.5372110348
H        3.8032732259    1.1148671302   -0.8820353973
H        2.3582884894    1.9772613618   -0.3174523655
H        2.6098876232   -0.8359207719   -0.9610021757
H        2.7735114247   -0.4538175778    1.8523416758
22   
torsion grid (-105,)
C        2.1059789524   -2.2769519619    1.2129188790
C        2.3839704875   -2.9111182851    2.5671016459
C        0.7661355157   -0.0108382489   -0.5587883934
C        4.4385913298    2.4541092788    1.2680624621
C        2.9499740389    1.1521546017   -0.0305167846
C        2.2259486894   -0.2144061788   -0.1304018171
N        2.3160501509   -0.9297509888    1.1381898463
O        1.7053876818   -2.9431820092    0.2560984841
O        3.7757879549    1.2064084155    1.1288051573
H        1.4784858717   -3.4193506942    2.9091541886
H        3.1605244960   -3.6714996551    2.4451747669
H        2.7007548585   -2.1946240558    3.3303487319
H        0.2218210816    0.5646713776    0.1979760101
H        0.2778376344   -0.9781513018   -0.6900380550
H        0.7193182792    0.5335493673   -1.5096004678
H        5.0320495437    2.4032662718    2.1834266589
H        3.7179985797    3.2813670940    1.3483518674
H        5.1054806888    2.6474972057    0.4155241066
H        3.5539040660    1.3201623958   -0.9334717757
H        2.2065889028    1.9620203039    0.0285222596
H        2.7022981938   -0.8219896128   -0.9076098866
H        2.8203442718   -0.4631369704    1.8814117675
22   
torsion grid (-90,)
C        2.0687343378   -2.2577250895    1.2692534637
C        2.3390114159   -2.8821225148    2.6297124515
C        0.8194154723   -0.0609526744   -0.6195931040
C        4.5174767022    2.4233198123    1.2466038041
C        2.8960201376    1.1794682487    0.0526155209
C        2.2550998009   -0.2116449214   -0.0971795275
N        2.2952051239   -0.9111541840    1.1837658972
O        1.6598973367   -2.9280891526    0.3199345236
O        3.9084980105    1.1551001207    1.0539610057
H        1.4381264170   -3.4055470144    2.9602311515
H        3.1311472969   -3.6286854093    2.5218834969
H        2.6318526586   -2.1572316468    3.3945059499
H        0.1993480566    0.4703740859    0.1103828924
H        0.3845707101   -1.0440547160   -0.8049287586
H        0.8142144020    0.5051936462   -1.5587557148
H        5.2603151692    2.3072136976    2.0386841861
H        3.7777849238    3.1787871081    1.5506818975
H        5.0181611243    2.7677945283    0.3303538724
H        3.3137782652    1.4958747243   -0.9136490287
H        2.1277189174    1.9137254813    0.3436706876
H        2.8060996660   -0.7887727106   -0.8497775098
H        2.8570478064   -0.4713434478    1.9027518265
22   
torsion grid (-75,)
C        2.0264624924   -2.2392098035    1.3052887320
C        2.2842331013   -2.8544577081    2.6725277109
C        0.8446607048   -0.0980749746   -0.6746813795
C        4.5780990721    2.4025366175    1.1765134420
C        2.8338954209    1.2009592224    0.1191663922
C        2.2533814497   -0.2003167761   -0.0771227822
N        2.2526707663   -0.8906748843    1.2132162546
O        1.6269016908   -2.9165273500    0.3579170611
O        3.9952598238    1.1293467076    0.9398089193
H        1.3904741172   -3.4004159780    2.9849691251
H        3.0976047765   -3.5805360695    2.5829569235
H        2.5425000685   -2.1210393468    3.4415709674
H        0.1699395587    0.4178000388    0.0168367579
H        0.4500778367   -1.0950658116   -0.8726726789
H        0.8725406110    0.4604823861   -1.6174869192
H        5.4444485307    2.2455371307    1.8226748474
H        3.8701419362    3.0796416428    1.6773800102
H        4.9088694875    2.8698417944    0.2376986666
H        3.0772588862    1.6341132597   -0.8617385660
H        2.0863519946    1.8517333746    0.6018445162
H        2.8813404503   -0.7541481947   -0.7867543351
H        2.8405924165   -0.4687556911    1.9227674586
22   
torsion grid (-60,)
C        1.9426898918   -2.2716026052    1.3457086385
C        2.1662713615   -2.8812845271    2.7216342561
C        0.8320627334   -0.1646109843   -0.7100722460
C        4.5984258171    2.3463764337    1.1016583318
C        2.7531731868    1.1709054063    0.1997736526
C        2.2068211587   -0.2316617139   -0.0392783577
N        2.1531811250   -0.9187790366    1.2577495391
O        1.5818585415   -2.9560040063    0.3885547313
O        4.0264847650    1.0757162577    0.8280573140
H        1.2798062709   -3.4577660312    2.9973691846
H        3.0068195007   -3.5792416223    2.6635006176
H        2.3693930802   -2.1417882569    3.5013540103
H        0.1192165034    0.3736177284   -0.0758708016
H        0.4531100142   -1.1715531362   -0.8858553709
H        0.9054182760    0.3545248473   -1.6721450656
H        5.5605060276    2.1691884222    1.5872087597
H        3.9581504965    2.9391428131    1.7721146617
H        4.7619236980    2.9174288347    0.1759829560
H        2.8394330107    1.6958234961   -0.7631521690
H        2.0588377359    1.7431237309    0.8371872462
H        2.9058384834   -0.7751843026   -0.6875296141
H        2.7262153898   -0.5027871266    1.9829531340
22   
torsion grid (-45,)
C        1.9315874488   -2.2991652703    1.3485064048
C        2.0683398811   -2.9115230367    2.7343090742
C        0.8305520412   -0.1907943449   -0.7388338301
C        4.6194844616    2.3621185793    0.9580412772
C        2.6939016575    1.1728609660    0.2757058785
C        2.1699968129   -0.2305667076   -0.0011258990
N        2.0573478979   -0.9348494220    1.2876203134
O        1.7049427150   -2.9909075105    0.3560259832
O        4.0546038677    1.0904143690    0.6781300680
H        1.1852428371   -3.5230953114    2.9357058088
H        2.9366281009   -3.5768219710    2.7390351074
H        2.1800996296   -2.1724234412    3.5328197585
H        0.0898488045    0.3785720392   -0.1661843363
H        0.4564260140   -1.2046466246   -0.8850228919
H        0.9515410016    0.2806678197   -1.7200056603
H        5.6568998757    2.1953911081    1.2559694446
H        4.0861366315    2.8698588106    1.7761125351
H        4.5995852476    3.0121994456    0.0705730879
H        2.6087205501    1.7776302849   -0.6400753834
H        2.0858131675    1.6633145169    1.0547061801
H        2.9220725301   -0.7663241134   -0.5918437963
H        2.5051956102   -0.4868933343    2.0776001694
22   
torsion grid (-30,)
C        3.1513246287   -1.7005101972    1.2583835695
C        3.5600068693   -1.9400526996    2.7030519161
C        0.1563517654   -0.6430541093   -0.2363004478
C        4.3513827914    1.0886931346   -0.4942963276
C        1.9548807503    1.1014529591   -0.6365328403
C        1.6644734319   -0.3611061523   -0.2434523492
N        2.2434074931   -0.6957400857    1.0602673874
O        3.6332002536   -2.3578172189    0.3357893711
O        3.1918279574    1.3226664308   -1.2884160990
H        3.3646681974   -2.9861323185    2.9531710481
H        4.6377981129   -1.7781280483    2.7922892980
H        3.0433796710   -1.2978488723    3.4224994026
H       -0.3708623917    0.0246662129    0.4572311325
H       -0.0356442639   -1.6747469506    0.0713379459
H       -0.2707344800   -0.4942776750   -1.2329162954
H        5.1928351344    1.5188486499   -1.0432199439
H        4.5333972808    0.0189848890   -0.3424010983
H        4.2709787028    1.5853548218    0.4844295779
H        1.1988281719    1.4321821304   -1.3547706385
H        1.8687959440    1.7431597670    0.2582776286
H        2.1599353035   -1.0159604442   -0.9632418229
H        1.8605920847   -0.2305905072    1.8734216549
22   
torsion grid (-15,)
C        3.1777884601   -1.6397033091    1.3431867442
C        3.5039508285   -1.9450791129    2.7963336855
C        0.2038753155   -0.6573808994   -0.3059501730
C        4.3545048249    1.0905573764   -0.6888309057
C        1.9782350927    1.1696021891   -0.4840520645
C        1.6946180662   -0.3237954004   -0.1836142014
N        2.1912456619   -0.7137626895    1.1399210830
O        3.7832511897   -2.1858074084    0.4199208600
O        3.1071990227    1.4022198677   -1.3065612282
H        3.3896224965   -3.0196053149    2.9616284537
H        4.5527723078   -1.6956236342    2.9791506849
H        2.8794902338   -1.4047207464    3.5139613724
H       -0.3977138815   -0.0542454751    0.3862875554
H        0.0270908206   -1.7131700264   -0.0817229432
H       -0.1523884522   -0.4539448756   -1.3205389600
H        5.1340471026    1.4421846067   -1.3687023737
H        4.4762569714    0.0131533254   -0.5279533021
H        4.4569139654    1.6126426099    0.2751163642
H        1.1371078444    1.5940583449   -1.0402319439
H        2.0691095757    1.7250705931    0.4644382178
H        2.2720929002   -0.9257042688   -0.8880031357
H        1.7211044617   -0.3306235887    1.9499447455
22   
torsion grid (0,)
C        3.2024579912   -1.6033872995    1.4349781451
C        3.4207283250   -1.9940525491    2.8879588028
C        0.2406370635   -0.6847630967   -0.4026038560
C        4.3319391348    1.0877754921   -0.9609488020
C        2.0290750768    1.1458368623   -0.3629039518
C        1.7162534866   -0.3640632859   -0.1453465784
N        2.1021146491   -0.8289552707    1.1883856969
O        3.9779812526   -1.9653843653    0.5485895693
O        2.9979233221    1.3930267162   -1.3666766437
H        3.4589886244   -3.0845164254    2.9543963672
H        4.3931280534   -1.6120265498    3.2105778382
H        2.6486895241   -1.6216412158    3.5677740683
H       -0.4127722145   -0.1390598736    0.2904157503
H        0.0485692750   -1.7552664353   -0.2848123154
H       -0.0372752059   -0.3919027888   -1.4196467461
H        4.9809100582    1.3554137827   -1.7980102544
H        4.4605741835    0.0252641254   -0.7237850054
H        4.6158637655    1.6861540981   -0.0812637953
H        1.1282027133    1.6670118674   -0.7013829912
H        2.3423061129    1.5954030990    0.5924155539
H        2.3363460412   -0.9311366069   -0.8418249293
H        1.5065462159   -0.5803239780    1.9675615079
22   
torsion grid (15,)
C        3.2331001661   -1.4810740452    1.5924764086
C        3.3255634339   -1.9994958382    3.0187001929
C        0.2946418136   -0.6373837531   -0.4753423355
C        4.2828991867    1.1128299184   -1.2454390387
C        2.1442383469    1.1006413958   -0.2015330438
C        1.7612360178   -0.4057041546   -0.1013677528
N        2.0206603542   -0.9706609618    1.2213360906
O        4.1955714486   -1.5287118436    0.8246399886
O        2.8907128464    1.4074916305   -1.3671205315
H        3.6261993882   -3.0501324832    2.9898818902
H        4.1116010060   -1.4479804214    3.5416705705
H        2.3926168220   -1.9107525140    3.5831026029
H       -0.3805220960   -0.1381176757    0.2318729635
H        0.0523381028   -1.7045716992   -0.4904041211
H        0.0964883478   -0.2233816154   -1.4682618212
H        4.7334773429    1.3362198244   -2.2153596324
H        4.4632781217    0.0657057905   -0.9796889105
H        4.7456318958    1.7504965887   -0.4773093907
H        1.2406790607    1.7175225491   -0.2506493430
H        2.7046285352    1.3901487307    0.6992394109
H        2.3825706044   -0.9444459713   -0.8197794804
H        1.2745145101   -0.9476583949    1.9036780178
22   
torsion grid (30,)
C        3.2126867504   -1.4501388859    1.7454572234
C        3.2209881647   -2.0431702398    3.1447842396
C        0.3892985353   -0.6250082221   -0.5300777511
C        4.1900048715    1.1125175662   -1.4490569776
C        2.2636722273    1.0326904089   -0.0618312148
C        1.8317889616   -0.4553686513   -0.0530710303
N        1.9925752537   -1.0608708859    1.2676866211
O        4.2450279421   -1.3341906383    1.0826164182
O        2.8032877801    1.4227597471   -1.3161004003
H        3.6364485146   -3.0531611514    3.0942235717
H        3.8859038053   -1.4464391953    3.7749977610
H        2.2325093092   -2.0874649059    3.6114096611
H       -0.3165674687   -0.1512990374    0.1643950520
H        0.1220992570   -1.6819291986   -0.6301978672
H        0.2680312998   -0.1439484527   -1.5046495797
H        4.4739351736    1.3825190682   -2.4689047624
H        4.3964552453    0.0503980709   -1.2742158253
H        4.7887747253    1.6989198094   -0.7375614358
H        1.3979346393    1.6794915649    0.1196597980
H        2.9946188306    1.2026743559    0.7392355692
H        2.4862280006   -0.9876968763   -0.7477463624
H        1.1771475852   -1.1612518204    1.8569673780
22   
torsion grid (45,)
C        3.2748947622   -1.5595433414    2.1114908706
C        3.0527674803   -1.9323141022    3.5691507278
C        0.8050189424   -1.0915109750   -0.6355588737
C        3.5507550403    2.0392229451   -1.8212079746
C        2.6604274129    0.5805899365   -0.1930615906
C        2.1822754654   -0.8646044001   -0.0110568335
N        2.1509441094   -1.2276941207    1.4040495491
O        4.3957978053   -1.5641010776    1.6042359181
O        3.0408780530    0.7443046443   -1.5512853248
H        3.4065726654   -2.9550435597    3.7254328833
H        3.6614770790   -1.2756364918    4.1962763668
H        2.0088052511   -1.8648553949    3.8893513317
H        0.0353918265   -0.4999854412   -0.1226968602
H        0.5193935048   -2.1472852357   -0.5892624858
H        0.8222579672   -0.7810985946   -1.6830250356
H        3.8246473747    2.0643321617   -2.8785166804
H        4.4423275837    2.2524010436   -1.2128474454
H        2.7975527838    2.8183025284   -1.6263385449
H        1.8606043094    1.2911771312    0.0777417502
H        3.5220594607    0.7599665368    0.4643534506
H        2.9084026044   -1.5039427341   -0.5206404901
H        1.2569572219   -1.2296288952    1.8759905352
22   
torsion grid (60,)
C        3.2297041022   -1.6194225444    2.1383670021
C        2.9572104047   -1.9264298170    3.6027175685
C        0.8704309749   -1.1138689662   -0.6858144259
C        3.4350258599    2.0798497341   -1.8433411239
C        2.7390188562    0.5392653832   -0.1964279261
C        2.2283006599   -0.8943757738   -0.0208971700
N        2.1469266478   -1.2168903907    1.4040789903
O        4.3532727048   -1.7364475694    1.6500389899
O        2.8931047180    0.7954408922   -1.5842074256
H        3.2209289911   -2.9700033972    3.7949738175
H        3.6111051304   -1.3042525356    4.2194298181
H        1.9185075325   -1.7612942448    3.9039434331
H        0.0997676626   -0.4803851817   -0.2272072695
H        0.5581131082   -2.1591138404   -0.5969175509
H        0.9294945433   -0.8521968302   -1.7440846781
H        3.5197565586    2.1818202633   -2.9277586609
H        4.4317046150    2.1930152052   -1.3915142470
H        2.7815276962    2.8772443413   -1.4571279494
H        2.0227920698    1.2514309225    0.2493615727
H        3.7001663997    0.6437269276    0.3259477898
H        2.9708396963   -1.5652937874   -0.4608636658
H        1.2530628076   -1.1141341089    1.8653678479
22   
torsion grid (75,)
C        3.1812829219   -1.6590994318    2.1430982621
C        2.8765383818   -1.9055833940    3.6124441678
C        0.9071477767   -1.1393099958   -0.7388761391
C        3.3058345192    2.1295939809   -1.8508944043
C        2.7965171104    0.4983137589   -0.2241983263
C        2.2515405798   -0.9257396474   -0.0486169773
N        2.1327994601   -1.2144787389    1.3841417889
O        4.3005216185   -1.8615372362    1.6721019251
O        2.7218988938    0.8629203989   -1.5943102511
H        3.0725918781   -2.9576067818    3.8368981123
H        3.5624837742   -1.3079505358    4.2185319828
H        1.8473150031   -1.6678097179    3.8970973584
H        0.1471691994   -0.4543071626   -0.3411252386
H        0.5607255296   -2.1668531047   -0.5911814314
H        0.9983747429   -0.9448712557   -1.8086244237
H        3.1991798173    2.3238524946   -2.9206753772
H        4.3736954214    2.1406012202   -1.5867424106
H        2.7968753926    2.9272439910   -1.2880212092
H        2.1930608243    1.1968815488    0.3816578332
H        3.8321347534    0.5375790686    0.1411177952
H        3.0016265701   -1.6273638996   -0.4220467659
H        1.2519306967   -1.0128642150    1.8384137642
22   
torsion grid (90,)
C        3.1712945967   -1.6647547510    2.1748526408
C        2.8279414915   -1.8688767332    3.6421181211
C        0.9789338201   -1.1601397994   -0.7650240193
C        3.2083720864    2.1789731587   -1.8288985837
C        2.9122445273    0.4489770326   -0.2543375575
C        2.3138182920   -0.9578727819   -0.0531156520
N        2.1531668128   -1.2066696035    1.3845234395
O        4.2941749335   -1.9106112759    1.7328642110
O        2.6023194126    0.9262358059   -1.5561815920
H        2.9863338282   -2.9211203197    3.8936321042
H        3.5192080494   -1.2790802525    4.2498268033
H        1.8007996997   -1.5932175941    3.8987266866
H        0.2290110825   -0.4418295954   -0.4110259709
H        0.6068026955   -2.1730424467   -0.5829977878
H        1.0936845971   -1.0093072080   -1.8390798726
H        2.9112706989    2.4682583176   -2.8396646738
H        4.3055428941    2.1148097504   -1.7793788575
H        2.8704445518    2.9504733801   -1.1197834311
H        2.4805314702    1.1318655482    0.4970942583
H        3.9981473185    0.4144365819   -0.0908994575
H        3.0521786239   -1.6980745589   -0.3708559247
H        1.2694085153   -0.9657249499    1.8137448961
22   
torsion grid (105,)
C        3.1214603002   -1.5702995561    2.1385259224
C        2.7570153165   -1.8213442159    3.5930995905
C        0.9374819504   -1.1146371245   -0.8385665453
C        3.1139929447    2.2462395393   -1.7561209349
C        2.9935787804    0.3624698111   -0.3460155639
C        2.2839417667   -0.9988581963   -0.1267065493
N        2.0874631819   -1.2434202448    1.3087774001
O        4.2820494714   -1.6627382808    1.7345286047
O        2.4423411987    1.0296792452   -1.4758824976
H        3.0584717768   -2.8385941086    3.8572950224
H        3.3307411281   -1.1357774361    4.2224303939
H        1.6917065488   -1.6984535487    3.8092745172
H        0.2372559863   -0.3462147095   -0.4924111595
H        0.5023079955   -2.1017993673   -0.6520027967
H        1.0600954368   -0.9802298844   -1.9136618574
H        2.6283873890    2.6898946777   -2.6286013354
H        4.1775100429    2.0764378365   -1.9819334347
H        3.0449232817    2.9473655803   -0.9100682221
H        2.8557828159    0.9856166364    0.5512530877
H        4.0720533377    0.2052183706   -0.4767816847
H        2.9596514089   -1.7918176793   -0.4584245890
H        1.1564748426   -1.1427551950    1.6906107859
22   
torsion grid (120,)
C        3.1100272343   -1.5132398550    2.1722344689
C        2.7201108906   -1.6972665349    3.6299436021
C        0.9870225198   -1.1602033366   -0.8646652334
C        3.0371050554    2.2943639991   -1.6098138400
C        3.0884062213    0.2690042313   -0.4088006862
C        2.3241857660   -1.0536948589   -0.1287694235
N        2.0896615321   -1.2424414074    1.3066940035
O        4.2790118260   -1.6087769220    1.7933025441
O        2.3549802875    1.0877258848   -1.3143830650
H        3.0240974376   -2.6978301517    3.9492531792
H        3.2757900998   -0.9768605126    4.2361399961
H        1.6497752960   -1.5735660824    3.8191366880
H        0.2955191216   -0.3706478387   -0.5541827622
H        0.5321108188   -2.1356108626   -0.6636938378
H        1.1326700659   -1.0561901074   -1.9408259327
H        2.4137482392    2.8550485671   -2.3105431787
H        4.0161754018    2.0998998190   -2.0737162892
H        3.1956297775    2.8995568372   -0.7040121134
H        3.2489321055    0.8055824574    0.5364634169
H        4.0790632111    0.0442083001   -0.8281079387
H        2.9655892151   -1.8801983580   -0.4456479470
H        1.1500980446   -1.1261360001    1.6620524572
22   
torsion grid (135,)
C        3.0810723408   -1.5444511165    2.0936865396
C        2.6689952188   -1.6430835904    3.5536440744
C        1.0120526119   -1.1999808059   -0.9782703373
C        2.9670075372    2.3524486935   -1.4985353780
C        3.1298096137    0.1956310168   -0.5639640745
C        2.3415410558   -1.0920437208   -0.2242787666
N        2.0891492679   -1.2252189748    1.2103160653
O        4.2412813088   -1.7449380501    1.7301500323
O        2.2793713922    1.1532341239   -1.1865845077
H        2.9136132678   -2.6440955787    3.9188717356
H        3.2589683733   -0.9290494271    4.1347025517
H        1.6058896804   -1.4510343154    3.7256466832
H        0.3259244205   -0.3952704655   -0.6993235577
H        0.5429939087   -2.1656577602   -0.7641182826
H        1.1778594287   -1.1238970260   -2.0549985974
H        2.2486212355    3.0222197694   -1.9774129209
H        3.8034845989    2.1675411739   -2.1899920080
H        3.3644707979    2.8369962009   -0.5937013257
H        3.5756514501    0.6089653464    0.3499047690
H        3.9560851268   -0.0527406534   -1.2476102235
H        2.9596189193   -1.9396327758   -0.5314078963
H        1.1607749942   -1.0229341827    1.5562500843
22   
torsion grid (150,)
C        3.0166213430   -1.5518688340    2.0603724144
C        2.5782884622   -1.5251158899    3.5159045811
C        1.0473465379   -1.2369300847   -1.0765493315
C        2.9454633834    2.4085915902   -1.3022752685
C        3.1501252464    0.1499810509   -0.6548407420
C        2.3547263994   -1.1140084622   -0.2859272778
N        2.0665460263   -1.1959738300    1.1440348438
O        4.1562922739   -1.8846608891    1.7313868878
O        2.2596906115    1.2054850563   -1.0003050103
H        2.7373576112   -2.5169503630    3.9471915802
H        3.2157511637   -0.8242559872    4.0620299412
H        1.5317143033   -1.2392882666    3.6559354837
H        0.3538977400   -0.4276618362   -0.8316951718
H        0.5702040537   -2.1979814187   -0.8615111512
H        1.2466110075   -1.1791290758   -2.1499791830
H        2.1911545645    3.1544816558   -1.5642163355
H        3.6312205903    2.2763749398   -2.1532792361
H        3.5261034716    2.7698119433   -0.4399957857
H        3.7994020711    0.4381113633    0.1822460932
H        3.7990363496   -0.0728856381   -1.5175447150
H        2.9773143724   -1.9708542899   -0.5549213473
H        1.1798829363   -0.8342544939    1.4692264147
22   
torsion grid (165,)
C        2.9787848944   -1.5552957265    2.0125943474
C        2.5479936488   -1.4042493171    3.4628377333
C        1.0806439642   -1.3131890358   -1.1637577577
C        2.9163177918    2.4332270133   -1.1196186168
C        3.1478395189    0.1124033872   -0.7492577089
C        2.3696125686   -1.1453619365   -0.3531057728
N        2.0615367688   -1.1647586209    1.0754283445
O        4.0795753435   -2.0175670655    1.7090563959
O        2.2513349562    1.2145713086   -0.8326848403
H        2.6114087405   -2.3810408063    3.9495844421
H        3.2516143585   -0.7388322495    3.9707957109
H        1.5340915988   -1.0116696222    3.5827521642
H        0.3804917352   -0.4955301973   -0.9709513042
H        0.5989197991   -2.2630081064   -0.9136472161
H        1.3035163903   -1.3079618509   -2.2350417293
H        2.1540592296    3.2144975639   -1.1692856378
H        3.4439475800    2.3842992808   -2.0843581001
H        3.6449777231    2.6889280317   -0.3356511411
H        3.9400659063    0.3034315099   -0.0123957451
H        3.6277745761   -0.0497312926   -1.7286709815
H        3.0187202711   -1.9993584153   -0.5610946455
H        1.2440849227   -0.6519848313    1.3791770475
22   
torsion grid (180,)
C        2.3135924676   -2.4164807364    0.9984117734
C        2.5614650681   -3.1490880684    2.3076026104
C        0.8119391951    0.2922423313   -0.0986584182
C        4.0394405006    2.7871495856    1.1056779336
C        3.2766534424    0.9315445064   -0.1519653455
C        2.2636532963   -0.2068479356   -0.1240283853
N        2.5555337791   -1.0712555285    1.0170918140
O        1.9341485983   -3.0092901707   -0.0125996950
O        3.1045631863    1.7232349825    1.0202247638
H        1.6278036609   -3.6201170568    2.6274998440
H        3.2869231502   -3.9473879527    2.1301243591
H        2.9295382520   -2.5036880743    3.1104303438
H        0.6234592991    0.8991223183    0.7909537135
H        0.1302298493   -0.5621676816   -0.1008665107
H        0.5994477152    0.9039447302   -0.9826683749
H        3.8276126068    3.3307900153    2.0291429954
H        3.9399030248    3.4745743923    0.2526138141
H        5.0734931589    2.4122298902    1.1359023612
H        4.2985010811    0.5239801018   -0.1877056898
H        3.1189169616    1.5484398732   -1.0503967537
H        2.4037634354   -0.8076629184   -1.0265337780
H        2.7490817647   -0.6086627109    1.8964460896
