25
0 1 C9Cl2H8N6
C                     2.581444212620    -0.452343987038     0.144244785701
C                     1.410609904837    -0.064022261411     0.783224500133
C                     3.240325445845    -1.622538318486     0.531871489979
C                    -4.361981225191     0.407963709457     5.269529449717
C                     0.860327090840    -0.830722086577     1.828245740722
C                     2.713711199160    -2.398121737827     1.564995472179
C                     1.529980467037    -2.012276630339     2.215901496830
C                    -2.795145936145     0.563342621800     3.750513978994
C                    -0.380177429058    -0.409331188038     2.497502948400
N                    -3.571874584929    -0.618872134033     5.415131162205
N                    -2.565454112471    -0.532834576627     4.449155624582
N                    -0.957931260839     0.677518664081     2.098448397669
N                    -3.923052245575     1.203762036919     4.223526241437
N                    -4.419880615227     2.400369968374     3.688727131457
N                    -2.107728308532     1.098018782747     2.689395432245
Cl                    3.566912204469    -3.855677805288     2.021418283072
Cl                    0.892005395539    -3.004104284490     3.507611992396
H                     2.991797649318     0.151517082895    -0.660223877520
H                     0.890442745820     0.841825759071     0.491555790803
H                     4.155825706277    -1.939514292904     0.043136663510
H                    -5.239827521356     0.635449478008     5.860369823335
H                    -0.776384392550    -1.017701355816     3.305501429995
H                    -4.432654011158     3.118643723345     4.411534014211
H                    -5.367260267698     2.253332344108     3.343159410716
H                    -2.466738458659     1.971292194046     2.324519612034
