
  -OEChem-05262117483D

 38 40  0     0  0  0  0  0  0999 V2000
    1.7477   -2.4300    0.6525 C   0  0  0  0  0  0  0  0  0  0  0  0
    3.1680   -0.5892    1.2737 C   0  0  0  0  0  0  0  0  0  0  0  0
    0.6528   -1.7965    1.2424 C   0  0  0  0  0  0  0  0  0  0  0  0
    2.0826    0.0630    1.8576 C   0  0  0  0  0  0  0  0  0  0  0  0
   -2.2155    1.0928    2.9528 C   0  0  0  0  0  0  0  0  0  0  0  0
    3.0199   -1.8396    0.6536 C   0  0  0  0  0  0  0  0  0  0  0  0
    0.8227   -0.5414    1.8321 C   0  0  0  0  0  0  0  0  0  0  0  0
   -1.2591    1.2552    4.0034 C   0  0  0  0  0  0  0  0  0  0  0  0
   -1.5249    0.3687    1.9756 C   0  0  0  0  0  0  0  0  0  0  0  0
   -6.1988    3.0662    2.6929 C   0  0  0  0  0  0  0  0  0  0  0  0
   -6.6974    1.3893    1.3651 C   0  0  0  0  0  0  0  0  0  0  0  0
   -3.5691    1.5955    2.9645 C   0  0  0  0  0  0  0  0  0  0  0  0
    4.1927   -2.5201   -0.0122 C   0  0  0  0  0  0  0  0  0  0  0  0
   -1.4410    1.9540    5.3161 C   0  0  0  0  0  0  0  0  0  0  0  0
   -5.4626    4.0763    3.5082 C   0  0  0  0  0  0  0  0  0  0  0  0
   -0.1010    0.6819    3.6972 N   0  0  0  0  0  0  0  0  0  0  0  0
   -7.4669    3.1554    2.3677 N   0  0  0  0  0  0  0  0  0  0  0  0
   -7.7953    2.0861    1.5384 N   0  0  0  0  0  0  0  0  0  0  0  0
   -4.3838    1.4008    1.9836 N   0  0  0  0  0  0  0  0  0  0  0  0
   -0.2729    0.1295    2.4518 N   0  0  0  0  0  0  0  0  0  0  0  0
   -5.6542    1.9344    2.0813 N   0  0  0  0  0  0  0  0  0  0  0  0
   -6.4799   -0.0616    0.3953 S   0  0  0  0  0  0  0  0  0  0  0  0
   -2.0394   -0.1018    0.4103 Cl  0  0  0  0  0  0  0  0  0  0  0  0
    1.6097   -3.4078    0.1973 H   0  0  0  0  0  0  0  0  0  0  0  0
    4.1467   -0.1157    1.2990 H   0  0  0  0  0  0  0  0  0  0  0  0
   -0.3172   -2.2817    1.2565 H   0  0  0  0  0  0  0  0  0  0  0  0
    2.2014    1.0267    2.3416 H   0  0  0  0  0  0  0  0  0  0  0  0
   -3.8617    2.1382    3.8644 H   0  0  0  0  0  0  0  0  0  0  0  0
    4.2756   -2.2135   -1.0619 H   0  0  0  0  0  0  0  0  0  0  0  0
    5.1355   -2.2637    0.4797 H   0  0  0  0  0  0  0  0  0  0  0  0
    4.0854   -3.6085    0.0041 H   0  0  0  0  0  0  0  0  0  0  0  0
   -2.2338    1.4870    5.9103 H   0  0  0  0  0  0  0  0  0  0  0  0
   -0.5111    1.9066    5.8862 H   0  0  0  0  0  0  0  0  0  0  0  0
   -1.7067    3.0073    5.1745 H   0  0  0  0  0  0  0  0  0  0  0  0
   -5.2529    3.7260    4.5249 H   0  0  0  0  0  0  0  0  0  0  0  0
   -4.5140    4.3590    3.0399 H   0  0  0  0  0  0  0  0  0  0  0  0
   -6.0947    4.9632    3.5815 H   0  0  0  0  0  0  0  0  0  0  0  0
   -7.7760   -0.0672    0.0211 H   0  0  0  0  0  0  0  0  0  0  0  0
  1  3  1  0  0  0  0
  1  6  2  0  0  0  0
  1 24  1  0  0  0  0
  2  4  2  0  0  0  0
  2  6  1  0  0  0  0
  2 25  1  0  0  0  0
  3  7  2  0  0  0  0
  3 26  1  0  0  0  0
  4  7  1  0  0  0  0
  4 27  1  0  0  0  0
  5  8  1  0  0  0  0
  5  9  2  0  0  0  0
  5 12  1  0  0  0  0
  6 13  1  0  0  0  0
  7 20  1  0  0  0  0
  8 14  1  0  0  0  0
  8 16  2  0  0  0  0
  9 20  1  0  0  0  0
  9 23  1  0  0  0  0
 10 15  1  0  0  0  0
 10 17  2  0  0  0  0
 10 21  1  0  0  0  0
 11 18  2  0  0  0  0
 11 21  1  0  0  0  0
 11 22  1  0  0  0  0
 12 19  2  0  0  0  0
 12 28  1  0  0  0  0
 13 29  1  0  0  0  0
 13 30  1  0  0  0  0
 13 31  1  0  0  0  0
 14 32  1  0  0  0  0
 14 33  1  0  0  0  0
 14 34  1  0  0  0  0
 15 35  1  0  0  0  0
 15 36  1  0  0  0  0
 15 37  1  0  0  0  0
 16 20  1  0  0  0  0
 17 18  1  0  0  0  0
 19 21  1  0  0  0  0
 22 38  1  0  0  0  0
M  END
$$$$
