
  -OEChem-05262117483D

 25 26  0     0  0  0  0  0  0999 V2000
   -3.9382    3.4325    1.1148 C   0  0  0  0  0  0  0  0  0  0  0  0
   -4.5482    3.4307    2.3773 C   0  0  0  0  0  0  0  0  0  0  0  0
    1.5911   -2.1922    0.5213 C   0  0  0  0  0  0  0  0  0  0  0  0
    3.0193   -0.3294    1.2151 C   0  0  0  0  0  0  0  0  0  0  0  0
    0.5468   -1.6739    1.2872 C   0  0  0  0  0  0  0  0  0  0  0  0
    1.9724    0.1856    1.9798 C   0  0  0  0  0  0  0  0  0  0  0  0
   -2.8100    2.6460    0.9020 C   0  0  0  0  0  0  0  0  0  0  0  0
   -3.9923    2.6328    3.3753 C   0  0  0  0  0  0  0  0  0  0  0  0
    2.8039   -1.5061    0.5003 C   0  0  0  0  0  0  0  0  0  0  0  0
    0.7509   -0.4914    2.0020 C   0  0  0  0  0  0  0  0  0  0  0  0
   -2.3502    1.8888    1.9881 C   0  0  0  0  0  0  0  0  0  0  0  0
   -2.9041    1.8682    3.1857 N   0  0  0  0  0  0  0  0  0  0  0  0
   -1.5195   -0.9110    3.2975 O   0  0  0  0  0  0  0  0  0  0  0  0
   -0.0298    1.0360    4.0186 O   0  0  0  0  0  0  0  0  0  0  0  0
   -1.2253    1.1136    1.7512 O   0  0  0  0  0  0  0  0  0  0  0  0
    3.8175   -2.0071   -0.2411 F   0  0  0  0  0  0  0  0  0  0  0  0
   -0.5798    0.1584    2.9964 S   0  0  0  0  0  0  0  0  0  0  0  0
   -4.3374    4.0396    0.3067 H   0  0  0  0  0  0  0  0  0  0  0  0
   -5.4292    4.0311    2.5810 H   0  0  0  0  0  0  0  0  0  0  0  0
    1.4795   -3.1100   -0.0471 H   0  0  0  0  0  0  0  0  0  0  0  0
    3.9868    0.1603    1.1710 H   0  0  0  0  0  0  0  0  0  0  0  0
   -0.4098   -2.1833    1.3422 H   0  0  0  0  0  0  0  0  0  0  0  0
    2.1013    1.0921    2.5621 H   0  0  0  0  0  0  0  0  0  0  0  0
   -2.2952    2.6061   -0.0521 H   0  0  0  0  0  0  0  0  0  0  0  0
   -4.4279    2.5963    4.3717 H   0  0  0  0  0  0  0  0  0  0  0  0
  1  2  1  0  0  0  0
  1  7  2  0  0  0  0
  1 18  1  0  0  0  0
  2  8  2  0  0  0  0
  2 19  1  0  0  0  0
  3  5  2  0  0  0  0
  3  9  1  0  0  0  0
  3 20  1  0  0  0  0
  4  6  1  0  0  0  0
  4  9  2  0  0  0  0
  4 21  1  0  0  0  0
  5 10  1  0  0  0  0
  5 22  1  0  0  0  0
  6 10  2  0  0  0  0
  6 23  1  0  0  0  0
  7 11  1  0  0  0  0
  7 24  1  0  0  0  0
  8 12  1  0  0  0  0
  8 25  1  0  0  0  0
  9 16  1  0  0  0  0
 10 17  1  0  0  0  0
 11 12  2  0  0  0  0
 11 15  1  0  0  0  0
 13 17  2  0  0  0  0
 14 17  2  0  0  0  0
 15 17  1  0  0  0  0
M  END
$$$$
