
  -OEChem-05262117483D

 25 26  0     0  0  0  0  0  0999 V2000
   -4.2508    2.8718    2.9821 C   0  0  0  0  0  0  0  0  0  0  0  0
   -5.0870    2.4717    1.9344 C   0  0  0  0  0  0  0  0  0  0  0  0
    1.6186   -1.8592    0.2756 C   0  0  0  0  0  0  0  0  0  0  0  0
    3.1376   -0.4551    1.5857 C   0  0  0  0  0  0  0  0  0  0  0  0
    0.5367   -1.3662    1.0024 C   0  0  0  0  0  0  0  0  0  0  0  0
    2.0523    0.0386    2.3111 C   0  0  0  0  0  0  0  0  0  0  0  0
   -2.9127    2.4800    2.9652 C   0  0  0  0  0  0  0  0  0  0  0  0
   -4.5445    1.6890    0.9133 C   0  0  0  0  0  0  0  0  0  0  0  0
    2.8960   -1.3913    0.5833 C   0  0  0  0  0  0  0  0  0  0  0  0
    0.7706   -0.4243    2.0086 C   0  0  0  0  0  0  0  0  0  0  0  0
   -2.4950    1.6875    1.8919 C   0  0  0  0  0  0  0  0  0  0  0  0
   -3.2627    1.2901    0.8915 N   0  0  0  0  0  0  0  0  0  0  0  0
   -1.6375   -0.8364    3.0812 O   0  0  0  0  0  0  0  0  0  0  0  0
   -0.1351    0.9372    4.0988 O   0  0  0  0  0  0  0  0  0  0  0  0
   -1.1519    1.2961    1.8009 O   0  0  0  0  0  0  0  0  0  0  0  0
    3.9453   -1.8704   -0.1209 F   0  0  0  0  0  0  0  0  0  0  0  0
   -0.6134    0.1916    2.9385 S   0  0  0  0  0  0  0  0  0  0  0  0
   -4.6309    3.4832    3.7960 H   0  0  0  0  0  0  0  0  0  0  0  0
   -6.1340    2.7580    1.9063 H   0  0  0  0  0  0  0  0  0  0  0  0
    1.4873   -2.5916   -0.5143 H   0  0  0  0  0  0  0  0  0  0  0  0
    4.1527   -0.1284    1.7870 H   0  0  0  0  0  0  0  0  0  0  0  0
   -0.4729   -1.7078    0.7981 H   0  0  0  0  0  0  0  0  0  0  0  0
    2.1936    0.7643    3.1052 H   0  0  0  0  0  0  0  0  0  0  0  0
   -2.2118    2.7620    3.7438 H   0  0  0  0  0  0  0  0  0  0  0  0
   -5.1598    1.3604    0.0779 H   0  0  0  0  0  0  0  0  0  0  0  0
  1  2  1  0  0  0  0
  1  7  2  0  0  0  0
  1 18  1  0  0  0  0
  2  8  2  0  0  0  0
  2 19  1  0  0  0  0
  3  5  2  0  0  0  0
  3  9  1  0  0  0  0
  3 20  1  0  0  0  0
  4  6  1  0  0  0  0
  4  9  2  0  0  0  0
  4 21  1  0  0  0  0
  5 10  1  0  0  0  0
  5 22  1  0  0  0  0
  6 10  2  0  0  0  0
  6 23  1  0  0  0  0
  7 11  1  0  0  0  0
  7 24  1  0  0  0  0
  8 12  1  0  0  0  0
  8 25  1  0  0  0  0
  9 16  1  0  0  0  0
 10 17  1  0  0  0  0
 11 12  2  0  0  0  0
 11 15  1  0  0  0  0
 13 17  2  0  0  0  0
 14 17  2  0  0  0  0
 15 17  1  0  0  0  0
M  END
$$$$
