
  -OEChem-05262117483D

 21 22  0     0  0  0  0  0  0999 V2000
    1.6549   -2.0114    1.8088 C   0  0  0  0  0  0  0  0  0  0  0  0
    0.4212   -2.2275    1.1950 C   0  0  0  0  0  0  0  0  0  0  0  0
    1.7256   -1.2359    2.9670 C   0  0  0  0  0  0  0  0  0  0  0  0
   -0.7280   -1.6638    1.7674 C   0  0  0  0  0  0  0  0  0  0  0  0
    0.5206   -0.7116    3.4393 C   0  0  0  0  0  0  0  0  0  0  0  0
   -2.4971   -3.0409    0.4434 C   0  0  0  0  0  0  0  0  0  0  0  0
   -3.2611   -1.0376    1.7679 C   0  0  0  0  0  0  0  0  0  0  0  0
   -2.6621   -0.4963    0.5183 C   0  0  0  0  0  0  0  0  0  0  0  0
   -2.0800   -1.7833    1.1287 C   0  0  0  0  0  0  0  0  0  0  0  0
   -0.6579   -0.9082    2.8787 N   0  0  0  0  0  0  0  0  0  0  0  0
   -3.4693   -3.1405   -0.2848 O   0  0  0  0  0  0  0  0  0  0  0  0
   -1.7195   -4.1172    0.7429 O   0  0  0  0  0  0  0  0  0  0  0  0
    0.5451    0.2902    4.8901 Cl  0  0  0  0  0  0  0  0  0  0  0  0
    2.5599   -2.4401    1.3867 H   0  0  0  0  0  0  0  0  0  0  0  0
    0.3497   -2.8261    0.2950 H   0  0  0  0  0  0  0  0  0  0  0  0
    2.6616   -1.0398    3.4777 H   0  0  0  0  0  0  0  0  0  0  0  0
   -3.0311   -0.5502    2.7076 H   0  0  0  0  0  0  0  0  0  0  0  0
   -4.2217   -1.5345    1.6931 H   0  0  0  0  0  0  0  0  0  0  0  0
   -3.2050   -0.6197   -0.4125 H   0  0  0  0  0  0  0  0  0  0  0  0
   -2.0208    0.3758    0.5951 H   0  0  0  0  0  0  0  0  0  0  0  0
   -2.1270   -4.8719    0.2755 H   0  0  0  0  0  0  0  0  0  0  0  0
  1  2  1  0  0  0  0
  1  3  2  0  0  0  0
  1 14  1  0  0  0  0
  2  4  2  0  0  0  0
  2 15  1  0  0  0  0
  3  5  1  0  0  0  0
  3 16  1  0  0  0  0
  4  9  1  0  0  0  0
  4 10  1  0  0  0  0
  5 10  2  0  0  0  0
  5 13  1  0  0  0  0
  6  9  1  0  0  0  0
  6 11  2  0  0  0  0
  6 12  1  0  0  0  0
  7  8  1  0  0  0  0
  7  9  1  0  0  0  0
  7 17  1  0  0  0  0
  7 18  1  0  0  0  0
  8  9  1  0  0  0  0
  8 19  1  0  0  0  0
  8 20  1  0  0  0  0
 12 21  1  0  0  0  0
M  END
$$$$
