
  -OEChem-05262117483D

 38 40  0     0  0  0  0  0  0999 V2000
    1.8908   -1.4698   -0.0299 C   0  0  0  0  0  0  0  0  0  0  0  0
    2.5754   -1.8926    2.2383 C   0  0  0  0  0  0  0  0  0  0  0  0
    0.8836   -0.6159    0.4240 C   0  0  0  0  0  0  0  0  0  0  0  0
    1.5671   -1.0535    2.7097 C   0  0  0  0  0  0  0  0  0  0  0  0
   -2.2085    1.4938    2.7713 C   0  0  0  0  0  0  0  0  0  0  0  0
    2.7527   -2.1204    0.8642 C   0  0  0  0  0  0  0  0  0  0  0  0
    0.7171   -0.4216    1.7970 C   0  0  0  0  0  0  0  0  0  0  0  0
   -1.1233    1.9893    3.5658 C   0  0  0  0  0  0  0  0  0  0  0  0
   -1.6218    0.5023    1.9831 C   0  0  0  0  0  0  0  0  0  0  0  0
   -6.5466    2.3044    3.1968 C   0  0  0  0  0  0  0  0  0  0  0  0
   -5.9089    4.3053    3.8549 C   0  0  0  0  0  0  0  0  0  0  0  0
   -3.6004    1.8692    2.7463 C   0  0  0  0  0  0  0  0  0  0  0  0
    3.8655   -3.0116    0.3649 C   0  0  0  0  0  0  0  0  0  0  0  0
   -1.1469    3.0755    4.5922 C   0  0  0  0  0  0  0  0  0  0  0  0
   -6.5760    0.8547    2.8424 C   0  0  0  0  0  0  0  0  0  0  0  0
    0.0067    1.3543    3.2763 N   0  0  0  0  0  0  0  0  0  0  0  0
   -7.6138    3.0419    3.3873 N   0  0  0  0  0  0  0  0  0  0  0  0
   -7.2169    4.3129    3.7910 N   0  0  0  0  0  0  0  0  0  0  0  0
   -4.0613    2.7853    3.5317 N   0  0  0  0  0  0  0  0  0  0  0  0
   -0.3015    0.4437    2.2941 N   0  0  0  0  0  0  0  0  0  0  0  0
   -5.4106    3.0716    3.4675 N   0  0  0  0  0  0  0  0  0  0  0  0
   -4.9158    5.6802    4.3179 S   0  0  0  0  0  0  0  0  0  0  0  0
   -2.3877   -0.5610    0.8641 Cl  0  0  0  0  0  0  0  0  0  0  0  0
    2.0135   -1.6197   -1.0998 H   0  0  0  0  0  0  0  0  0  0  0  0
    3.2324   -2.3840    2.9522 H   0  0  0  0  0  0  0  0  0  0  0  0
    0.2450   -0.0994   -0.2848 H   0  0  0  0  0  0  0  0  0  0  0  0
    1.4338   -0.8777    3.7719 H   0  0  0  0  0  0  0  0  0  0  0  0
   -4.2315    1.3468    2.0272 H   0  0  0  0  0  0  0  0  0  0  0  0
    4.8044   -2.4511    0.2811 H   0  0  0  0  0  0  0  0  0  0  0  0
    4.0438   -3.8477    1.0476 H   0  0  0  0  0  0  0  0  0  0  0  0
    3.6375   -3.4218   -0.6228 H   0  0  0  0  0  0  0  0  0  0  0  0
   -1.8978    2.8708    5.3605 H   0  0  0  0  0  0  0  0  0  0  0  0
   -0.1619    3.1639    5.0554 H   0  0  0  0  0  0  0  0  0  0  0  0
   -1.4106    4.0340    4.1332 H   0  0  0  0  0  0  0  0  0  0  0  0
   -6.3090    0.6696    1.7962 H   0  0  0  0  0  0  0  0  0  0  0  0
   -5.9020    0.2686    3.4758 H   0  0  0  0  0  0  0  0  0  0  0  0
   -7.5970    0.5011    2.9967 H   0  0  0  0  0  0  0  0  0  0  0  0
   -3.7746    4.9602    4.3569 H   0  0  0  0  0  0  0  0  0  0  0  0
  1  3  1  0  0  0  0
  1  6  2  0  0  0  0
  1 24  1  0  0  0  0
  2  4  2  0  0  0  0
  2  6  1  0  0  0  0
  2 25  1  0  0  0  0
  3  7  2  0  0  0  0
  3 26  1  0  0  0  0
  4  7  1  0  0  0  0
  4 27  1  0  0  0  0
  5  8  1  0  0  0  0
  5  9  2  0  0  0  0
  5 12  1  0  0  0  0
  6 13  1  0  0  0  0
  7 20  1  0  0  0  0
  8 14  1  0  0  0  0
  8 16  2  0  0  0  0
  9 20  1  0  0  0  0
  9 23  1  0  0  0  0
 10 15  1  0  0  0  0
 10 17  2  0  0  0  0
 10 21  1  0  0  0  0
 11 18  2  0  0  0  0
 11 21  1  0  0  0  0
 11 22  1  0  0  0  0
 12 19  2  0  0  0  0
 12 28  1  0  0  0  0
 13 29  1  0  0  0  0
 13 30  1  0  0  0  0
 13 31  1  0  0  0  0
 14 32  1  0  0  0  0
 14 33  1  0  0  0  0
 14 34  1  0  0  0  0
 15 35  1  0  0  0  0
 15 36  1  0  0  0  0
 15 37  1  0  0  0  0
 16 20  1  0  0  0  0
 17 18  1  0  0  0  0
 19 21  1  0  0  0  0
 22 38  1  0  0  0  0
M  END
$$$$
