25
0 1 C9Cl2H8N6
C                     2.152991640000    -0.279686592083     0.349556531553
C                     1.033024930810     0.238095184238     0.988546940657
C                     2.536907256250    -1.605187555559     0.567896630915
C                    -3.204167264467     4.906398644276     1.830233160989
C                     0.259566348473    -0.554670534465     1.857336231275
C                     1.790425292014    -2.408506718876     1.431345946675
C                     0.654976085331    -1.892203357846     2.076614874047
C                    -2.806541830878     2.958847615363     2.700425517356
C                    -0.919651227015     0.010104019700     2.525324577837
N                    -3.454405456991     4.994374059211     3.112385107432
N                    -3.186823137422     3.747182829620     3.677906087220
N                    -1.395694404850     1.151110677201     2.165925207288
N                    -2.799078558920     3.631283452959     1.503442965478
N                    -2.532403804726     3.164885487600     0.202312671053
N                    -2.515006707043     1.603337985956     2.819976576611
Cl                    2.303320185588    -4.058905487239     1.680130245980
Cl                   -0.274841292081    -2.924785896507     3.141769323087
H                     2.741324883120     0.346218899758    -0.314967201851
H                     0.741318586396     1.272343699761     0.841930890708
H                     3.412112614169    -2.021934585402     0.080411255342
H                    -3.282318022934     5.695534228481     1.094977347312
H                    -1.378534553185    -0.566420321749     3.332178666088
H                    -3.273956562622     2.510483755338    -0.051983347574
H                    -1.666586960709     2.628403525297     0.250720585178
H                    -2.692539284637     1.247743743517     3.760575817979
