38
0 1 C15ClH15N6S
C                     2.467534478770    -0.568324650610     0.152131044878
C                     2.566609957210    -2.198529635607     1.919604735909
C                     1.384177217408     0.054332100624     0.775372600432
C                     1.477748131001    -1.597314938570     2.548750919572
C                    -2.182342665661     1.034215944666     3.191563289913
C                     3.077382659665    -1.700620405627     0.710160177139
C                     0.883502136901    -0.472731846147     1.968002944924
C                    -1.329321517102     0.881402748029     4.333208230381
C                    -1.422677383660     0.533202910425     2.133537508788
C                    -6.009873995497     3.410936570736     4.754193943222
C                    -6.479954605609     2.026782663584     3.116471609648
C                    -3.521234363201     1.558442670779     3.090781050923
C                     4.273585818180    -2.346278611630     0.051171684985
C                    -1.612179092493     1.250674316326     5.753364851939
C                    -5.250360656149     4.134586983131     5.810491727916
N                    -0.165315077032     0.343096166828     3.988012187837
N                    -7.268584899662     3.584454323168     4.427782527467
N                    -7.570551931981     2.702268757999     3.394563039364
N                    -4.148192589601     1.995599790465     4.132488139311
N                    -0.222093209352     0.137140195348     2.629448015276
N                    -5.444148086542     2.442502782715     3.941555228378
S                    -6.378681650009     0.696595015683     1.960899809808
Cl                   -1.890560839410     0.334041664290     0.487998682760
H                     2.850154489289    -0.155401010783    -0.778118252265
H                     3.023216466680    -3.074838047546     2.373859222015
H                     0.943595463902     0.945836497639     0.341900067579
H                     1.085988610917    -1.983370155870     3.483887962021
H                    -3.959809540225     1.581290346651     2.089944482851
H                     5.207617409436    -1.963187818606     0.479483655220
H                     4.269841280860    -3.431112166282     0.192934931199
H                     4.296548658887    -2.144048555723    -1.023275840848
H                    -2.507194352754     0.736574692623     6.115920103078
H                    -0.757192098222     0.984175846936     6.378497385212
H                    -1.808399288110     2.323186879229     5.843944713060
H                    -4.818734560170     3.434107187584     6.531934555866
H                    -4.427649529359     4.716003959484     5.381795585610
H                    -5.934479387738     4.810741211400     6.325378968396
H                    -7.720364969006     0.614328555001     1.853361507161
