25
0 1 C9Cl2H8N6
C                     2.433566736495    -0.473861327277     0.132991509518
C                     1.322477154934    -0.005175850547     0.822064710368
C                     3.136131162162    -1.589048227437     0.599201357671
C                    -4.296606339203     3.935683811430     2.566066629801
C                     0.879234719580    -0.638309024652     2.000255819654
C                     2.714538387809    -2.231192866098     1.763832353851
C                     1.592355018784    -1.763598870282     2.466122983229
C                    -2.721909403011     2.422689281967     2.530292832165
C                    -0.296723981558    -0.125571286126     2.711196258007
N                    -3.554590270785     4.157623305386     1.516509837798
N                    -2.541154469586     3.194676852201     1.481509660201
N                    -0.925564729427     0.904177191066     2.258015673550
N                    -3.815109799709     2.835179573284     3.259777634977
N                    -4.254448182565     2.204030030537     4.433146505804
N                    -1.999288933514     1.332256841922     2.952091911545
Cl                    3.617340199678    -3.622917478765     2.317384202401
Cl                    1.084543131616    -2.590609630702     3.927790175522
H                     2.762547683324     0.025384371499    -0.773781147597
H                     0.768625532786     0.859073919829     0.470925822537
H                     4.005738020988    -1.965653784408     0.070689576760
H                    -5.163559458986     4.502973349082     2.879261955847
H                    -0.614856112929    -0.639006543717     3.622883489713
H                    -5.209959256723     1.873409528665     4.304447491315
H                    -4.232395299114     2.868476313565     5.205742296449
H                    -2.314280985527     0.867394178404     3.804442693122
