
  -OEChem-05262117483D

 25 26  0     0  0  0  0  0  0999 V2000
    2.4585    0.1541    1.2478 C   0  0  0  0  0  0  0  0  0  0  0  0
    1.1989    0.5122    1.7122 C   0  0  0  0  0  0  0  0  0  0  0  0
    2.9136   -1.1591    1.3905 C   0  0  0  0  0  0  0  0  0  0  0  0
   -3.1940    4.9379    2.9569 C   0  0  0  0  0  0  0  0  0  0  0  0
    0.3602   -0.4282    2.3397 C   0  0  0  0  0  0  0  0  0  0  0  0
    2.0964   -2.1110    2.0023 C   0  0  0  0  0  0  0  0  0  0  0  0
    0.8240   -1.7545    2.4778 C   0  0  0  0  0  0  0  0  0  0  0  0
   -3.0457    2.7777    3.0963 C   0  0  0  0  0  0  0  0  0  0  0  0
   -0.9687   -0.0319    2.8222 C   0  0  0  0  0  0  0  0  0  0  0  0
   -4.3625    4.4454    2.6305 N   0  0  0  0  0  0  0  0  0  0  0  0
   -4.2671    3.0553    2.7058 N   0  0  0  0  0  0  0  0  0  0  0  0
   -1.3017    1.2102    2.8849 N   0  0  0  0  0  0  0  0  0  0  0  0
   -2.3154    3.9263    3.2753 N   0  0  0  0  0  0  0  0  0  0  0  0
   -1.0034    4.1014    3.7546 N   0  0  0  0  0  0  0  0  0  0  0  0
   -2.5522    1.5054    3.3703 N   0  0  0  0  0  0  0  0  0  0  0  0
    2.6991   -3.7420    2.1605 Cl  0  0  0  0  0  0  0  0  0  0  0  0
   -0.1747   -2.9633    3.2568 Cl  0  0  0  0  0  0  0  0  0  0  0  0
    3.0919    0.8909    0.7626 H   0  0  0  0  0  0  0  0  0  0  0  0
    0.8296    1.5240    1.5852 H   0  0  0  0  0  0  0  0  0  0  0  0
    3.8925   -1.4551    1.0280 H   0  0  0  0  0  0  0  0  0  0  0  0
   -2.9095    5.9810    2.9798 H   0  0  0  0  0  0  0  0  0  0  0  0
   -1.6617   -0.8204    3.1258 H   0  0  0  0  0  0  0  0  0  0  0  0
   -0.4111    3.4461    3.2452 H   0  0  0  0  0  0  0  0  0  0  0  0
   -0.9892    3.8153    4.7348 H   0  0  0  0  0  0  0  0  0  0  0  0
   -3.2722    0.7849    3.2963 H   0  0  0  0  0  0  0  0  0  0  0  0
  1  2  1  0  0  0  0
  1  3  2  0  0  0  0
  1 18  1  0  0  0  0
  2  5  2  0  0  0  0
  2 19  1  0  0  0  0
  3  6  1  0  0  0  0
  3 20  1  0  0  0  0
  4 10  2  0  0  0  0
  4 13  1  0  0  0  0
  4 21  1  0  0  0  0
  5  7  1  0  0  0  0
  5  9  1  0  0  0  0
  6  7  2  0  0  0  0
  6 16  1  0  0  0  0
  7 17  1  0  0  0  0
  8 11  2  0  0  0  0
  8 13  1  0  0  0  0
  8 15  1  0  0  0  0
  9 12  2  0  0  0  0
  9 22  1  0  0  0  0
 10 11  1  0  0  0  0
 12 15  1  0  0  0  0
 13 14  1  0  0  0  0
 14 23  1  0  0  0  0
 14 24  1  0  0  0  0
 15 25  1  0  0  0  0
M  END
$$$$
