
  -OEChem-05262117483D

 25 26  0     0  0  0  0  0  0999 V2000
   -3.9982    0.0178   -0.0618 C   0  0  0  0  0  0  0  0  0  0  0  0
   -3.3903    0.0373   -1.3220 C   0  0  0  0  0  0  0  0  0  0  0  0
    1.4533   -1.9626    0.2023 C   0  0  0  0  0  0  0  0  0  0  0  0
    2.7873    0.0770    0.4326 C   0  0  0  0  0  0  0  0  0  0  0  0
    0.5393   -1.4664    1.1322 C   0  0  0  0  0  0  0  0  0  0  0  0
    1.8724    0.5698    1.3604 C   0  0  0  0  0  0  0  0  0  0  0  0
   -3.2905    0.5053    1.0365 C   0  0  0  0  0  0  0  0  0  0  0  0
   -2.0933    0.5442   -1.4276 C   0  0  0  0  0  0  0  0  0  0  0  0
    2.5552   -1.1781   -0.1287 C   0  0  0  0  0  0  0  0  0  0  0  0
    0.7618   -0.2089    1.6964 C   0  0  0  0  0  0  0  0  0  0  0  0
   -2.0009    0.9893    0.8013 C   0  0  0  0  0  0  0  0  0  0  0  0
   -1.3983    1.0129   -0.3789 N   0  0  0  0  0  0  0  0  0  0  0  0
   -1.3529   -0.6141    3.2251 O   0  0  0  0  0  0  0  0  0  0  0  0
    0.2106    1.3169    3.8088 O   0  0  0  0  0  0  0  0  0  0  0  0
   -1.2734    1.5286    1.8648 O   0  0  0  0  0  0  0  0  0  0  0  0
    3.4411   -1.6551   -1.0321 F   0  0  0  0  0  0  0  0  0  0  0  0
   -0.4335    0.4509    2.8374 S   0  0  0  0  0  0  0  0  0  0  0  0
   -5.0054   -0.3699    0.0644 H   0  0  0  0  0  0  0  0  0  0  0  0
   -3.9067   -0.3301   -2.2037 H   0  0  0  0  0  0  0  0  0  0  0  0
    1.3235   -2.9358   -0.2600 H   0  0  0  0  0  0  0  0  0  0  0  0
    3.6650    0.6450    0.1414 H   0  0  0  0  0  0  0  0  0  0  0  0
   -0.3331   -2.0434    1.4200 H   0  0  0  0  0  0  0  0  0  0  0  0
    2.0147    1.5435    1.8176 H   0  0  0  0  0  0  0  0  0  0  0  0
   -3.6993    0.5113    2.0405 H   0  0  0  0  0  0  0  0  0  0  0  0
   -1.5848    0.5768   -2.3892 H   0  0  0  0  0  0  0  0  0  0  0  0
  1  2  1  0  0  0  0
  1  7  2  0  0  0  0
  1 18  1  0  0  0  0
  2  8  2  0  0  0  0
  2 19  1  0  0  0  0
  3  5  2  0  0  0  0
  3  9  1  0  0  0  0
  3 20  1  0  0  0  0
  4  6  1  0  0  0  0
  4  9  2  0  0  0  0
  4 21  1  0  0  0  0
  5 10  1  0  0  0  0
  5 22  1  0  0  0  0
  6 10  2  0  0  0  0
  6 23  1  0  0  0  0
  7 11  1  0  0  0  0
  7 24  1  0  0  0  0
  8 12  1  0  0  0  0
  8 25  1  0  0  0  0
  9 16  1  0  0  0  0
 10 17  1  0  0  0  0
 11 12  2  0  0  0  0
 11 15  1  0  0  0  0
 13 17  2  0  0  0  0
 14 17  2  0  0  0  0
 15 17  1  0  0  0  0
M  END
$$$$
