44
0 1 C17ClH21N4O
C                    -0.907433271361    -7.585910226291     3.678067306349
C                    -1.740937819338    -6.763721228071     4.441330734085
C                    -1.531916710576    -6.388805191056     1.697112807404
C                    -3.792752739905    -2.549571355919     1.067573624994
C                    -0.790532638500    -7.417333142179     2.291447629191
C                    -2.489241798920    -5.736191321043     3.854094184275
C                    -2.357231039985    -5.572236673951     2.467602239912
C                    -4.756216082805    -3.581335940075     0.842224176593
C                    -2.752463158512    -3.213100167374     1.713000310675
C                    -3.968932206080    -1.126001647188     0.759343145374
C                    -1.698305715714    -1.641217422048    -1.056803752192
C                    -1.209036907106     0.672710157771    -0.581511804910
C                    -0.211354711468    -1.854252033030    -1.331089524621
C                     0.263811212262     0.385022395678    -0.844623508400
C                     0.080083318932    -8.329746637855     1.459278798578
C                    -3.390401134687    -4.835920881279     4.661637488801
C                    -6.090469970727    -3.445459155317     0.176053950632
N                    -4.327776543820    -4.764103495589     1.284669819237
N                    -3.159101310807    -0.231303639248     0.302962441111
N                    -3.091061213214    -4.528149298845     1.817805238401
N                    -1.867509208058    -0.544444555293    -0.088669377929
O                     0.427298775797    -0.668441645053    -1.793759955125
Cl                   -1.279785254286    -2.612418563459     2.363509425959
H                    -0.339382935633    -8.372459822011     4.170323965908
H                    -1.811827340414    -6.922897838876     5.514699717386
H                    -1.475387222751    -6.212992804529     0.625812473071
H                    -4.960236054168    -0.728869300924     0.982044426967
H                    -2.225299673508    -1.396593159424    -1.994110124866
H                    -2.117888151136    -2.567471076701    -0.666265530776
H                    -1.311376070117     1.447469806947     0.182000341408
H                    -1.691001826641     1.031447644048    -1.505187472238
H                     0.279372202611    -2.212044821568    -0.413546666616
H                    -0.080863929403    -2.603726235096    -2.116389219645
H                     0.754842900663     1.264380821015    -1.269016000622
H                     0.765402113309     0.118153385822     0.098397353720
H                    -0.492622130508    -9.190965762720     1.094704201911
H                     0.482966805456    -7.810307684890     0.584817903035
H                     0.921641324918    -8.717039404855     2.040983620876
H                    -2.997841059443    -3.813695811743     4.698037139032
H                    -4.390833464288    -4.784019233374     4.221392985223
H                    -3.482815748449    -5.197360997282     5.688758611725
H                    -5.986276009842    -3.065784915577    -0.845875361761
H                    -6.586425272067    -4.417820168506     0.140427814605
H                    -6.735269719000    -2.745630327116     0.719591480311
