44
0 1 C17ClH21N4O
C                    -4.525142609185    -5.764535401849     1.927501959638
C                    -5.400275940794    -4.872596264588     1.302403934011
C                    -2.906881751804    -5.395603618238     0.197212926773
C                    -2.720155884364    -2.363162132247    -3.145247414389
C                    -3.265182132414    -6.048503037566     1.382527645040
C                    -5.054343325907    -4.222438517680     0.111246167986
C                    -3.783953507161    -4.501532050280    -0.414939709748
C                    -2.965972504953    -3.646230931125    -3.725171698250
C                    -2.980806379356    -2.563580671684    -1.792305061761
C                    -2.209119942705    -1.179793680134    -3.845364406040
C                    -4.830091793216    -0.071491491905    -2.968173464100
C                    -3.622527787375     2.009584271943    -3.089564483100
C                    -5.569466383627     0.320345674352    -4.249054755516
C                    -4.391589198138     2.358687224542    -4.363707014953
C                    -2.333097130110    -7.044155563429     2.032816135761
C                    -6.000031177668    -3.268245242947    -0.575836606871
C                    -2.836274541477    -4.029121097194    -5.167144137161
N                    -3.368191112063    -4.532731444312    -2.813623597817
N                    -2.498737857506     0.075466485899    -3.748632589965
N                    -3.369330467640    -3.858509522502    -1.623783403670
N                    -3.491055106412     0.552881661488    -2.915087718685
O                    -5.681366995653     1.738504360892    -4.370701330067
Cl                   -2.805051768396    -1.490852357940    -0.461539721683
H                    -4.829902580613    -6.250549797071     2.851859958646
H                    -6.375253216696    -4.681876903118     1.744755600075
H                    -1.939369700523    -5.574718800825    -0.264434487764
H                    -1.414538595826    -1.377677767655    -4.565746619982
H                    -5.386092165887     0.293297289239    -2.098252094091
H                    -4.757131104287    -1.154275924228    -2.887956808386
H                    -2.620748934611     2.442766820976    -3.108608576058
H                    -4.157015592985     2.399668612774    -2.216566810169
H                    -5.045867081766    -0.092291151427    -5.125138738109
H                    -6.591363373876    -0.070046875162    -4.237940547104
H                    -4.568189518949     3.435540379391    -4.436554174203
H                    -3.814179723135     2.032974714296    -5.241833256446
H                    -2.464972562557    -8.042963996340     1.599730145694
H                    -1.285461357217    -6.762143835475     1.891899218536
H                    -2.521547215656    -7.123485524517     3.107347573224
H                    -5.695320996524    -2.227194921688    -0.422144531556
H                    -6.025825486876    -3.446802815631    -1.655038287224
H                    -7.014643916609    -3.380328929121    -0.185295972407
H                    -1.803640651459    -3.914622240939    -5.515987644757
H                    -3.133331576588    -5.071475316392    -5.301407492354
H                    -3.466467802795    -3.398407077874    -5.803061587744
