18
0 1 BrC7H7N2S
C                     2.774967932842     0.921792722518     0.768304179341
C                     3.895036683274    -3.784459839792     1.144530792512
C                     4.476823909047    -3.383522592964    -0.029748982798
C                     2.711812225572    -3.032162032798     1.414137262537
C                     2.406658260545    -2.084160221390     0.469323124686
C                     1.626896177485     0.171524103749     1.292039892505
C                     1.277842115568    -1.090833667498     0.463953140187
N                     3.686493278656     1.525257190008     0.373198941635
N                     0.965280008265    -0.701887179381    -0.913917549603
S                     3.603915037344    -2.099397122447    -0.796136598702
Br                    1.657742684401    -3.323812279136     2.981722707906
H                     4.274853187016    -4.570646340568     1.786656153247
H                     5.375293056045    -3.774995341334    -0.489932629669
H                     1.843199150965    -0.125935778097     2.321978783532
H                     0.760081252331     0.842296615661     1.321436967166
H                     0.432941900405    -1.557818416299     0.992411045567
H                     0.230305399358     0.003062554897    -0.927195060912
H                     0.622170924221    -1.507871543719    -1.433019300267
