32
0 1 C16H11N3OS
C                     7.955418389719    -2.455269198798     1.767108929179
C                     0.347882019063    -1.353831793684     1.936976930513
C                     0.428982226090    -0.379674409077     0.937387553750
C                     1.475773246943    -2.109859739085     2.243564134974
C                     1.631955804841    -0.180195571947     0.257653044767
C                     8.942111331559    -6.553694037013     4.070127949433
C                     8.606261484616    -7.713512764432     4.703400805155
C                     6.612157228325    -6.447309457104     3.924778331677
C                     2.691362172266    -1.907166711328     1.563289918154
C                     7.798685709777    -5.795593140433     3.607547965898
C                     2.784152771728    -0.927867063051     0.545726084911
C                     3.833878418887    -2.751982342806     1.951057245984
C                     5.804650283566    -3.425994752775     2.298596337047
C                     8.035028640101    -4.544603783746     2.918243276477
C                     7.253418088126    -3.558988786468     2.372801857155
C                     4.043212996354    -0.663383652854    -0.247964868394
N                     8.559762270356    -1.583842504836     1.284729060626
N                     5.161608324400    -2.411684295731     1.780223030565
N                     3.659732183850    -3.925085450254     2.538392471469
O                     4.974818119595    -4.375232685105     2.778763773892
S                     6.882821063210    -7.923452090907     4.754812995890
H                    -0.581517303061    -1.518213878376     2.475143570800
H                    -0.440375390269     0.222917852659     0.686807465122
H                     1.431956045665    -2.863892961573     3.023162104305
H                     1.683212967821     0.574696801494    -0.523077390254
H                     9.967769036075    -6.228165865648     3.927625135733
H                     9.261175052951    -8.455527292945     5.141238436150
H                     5.603607823030    -6.135335249806     3.710123877502
H                     9.097111104306    -4.336106258792     2.811336700292
H                     4.827601585806    -0.227388336443     0.375266399954
H                     4.461058328205    -1.583133555544    -0.666377885682
H                     3.829250182085     0.022543536561    -1.071722305532
