22
0 1 C10H9NO2
C                    -0.001040103099    -1.275219963113     1.801067484938
C                     0.103363655383    -1.007933638817     0.424310088747
C                     0.152625550398    -2.576498056733     2.263205557876
C                     0.358831764490    -2.032645846535    -0.479135694746
C                     0.831670626144    -6.001863448468     0.889453692446
C                     0.411787469897    -3.629967897247     1.366710845136
C                     0.515263194429    -3.352173775163    -0.016406192190
C                     0.581260969620    -5.009112411835     1.793359727817
C                     0.940265182379    -5.729248055655    -0.536291024581
C                     0.620118896708    -6.516586585803     3.643176081048
N                     0.769978818834    -4.389335622902    -0.893043397805
O                     1.163993887986    -6.579528664233    -1.401729427516
O                     0.467416287525    -5.189987965914     3.132286737352
H                    -0.200864910998    -0.467536770592     2.498958095770
H                    -0.016108725804     0.008313400438     0.058321191899
H                     0.075490764550    -2.801865814665     3.321264714208
H                     0.439245925014    -1.823862708764    -1.543397866341
H                     0.963212385900    -7.038533600618     1.169606775407
H                     0.493184190791    -6.433847135946     4.722715265334
H                     1.617096223009    -6.910128279481     3.416701120347
H                    -0.143978419060    -7.184508494166     3.230652430400
H                     0.845377591217    -4.200924087916    -1.887138899102
