29   
torsion grid (-165,)
C        1.7018059462   -1.7107956874    0.2447491779
C       -0.2052210698   -4.9317904432    6.1888882396
C        2.5714865512   -2.3448733504    1.1387940926
C        0.8319444014   -0.7200605196    0.7120861173
C        1.0424713586   -4.7272766035    6.7937288516
C       -0.6695179184   -4.0015462604    5.2575741765
C        2.5754145252   -1.9877701776    2.4897824520
C        0.8338735773   -0.3695033338    2.0655234734
C        1.8085820941   -3.6084710660    6.4727565333
C        0.0907429728   -2.8736527212    4.9227702270
C        1.7062140933   -0.9974511982    2.9628001363
C        1.3348516815   -2.6752697871    5.5371662953
C        2.7027210936    0.5998350357    4.6421239949
C        1.7352173362   -0.5637986905    4.4178048615
O        2.1667057440   -1.6081429241    5.3022379393
H        1.6972449669   -1.9907689426   -0.8054999135
H       -0.8016674997   -5.8047261262    6.4388530049
H        3.2438076885   -3.1220229429    0.7839574295
H        0.1485631426   -0.2264059227    0.0257237886
H        1.4199948949   -5.4419094028    7.5208388881
H       -1.6315456351   -4.1501650030    4.7734328090
H        3.2414846125   -2.4872706564    3.1872218477
H        0.1471161200    0.3944794044    2.4263800296
H        2.7755755229   -3.4337662521    6.9359791479
H       -0.2835237096   -2.1839731354    4.1764186766
H        3.6764395610    0.3940549215    4.1901077001
H        2.8357581361    0.7614014442    5.7161413153
H        2.2919826613    1.5168906281    4.2102483905
H        0.7279589573   -0.2471359003    4.7211825326
29   
torsion grid (-150,)
C        1.7103380469   -1.7266245804    0.2497165118
C       -0.2091325306   -4.9361974599    6.1826071573
C        2.5716658508   -2.3654139626    1.1486062456
C        0.8468870735   -0.7278904363    0.7116235734
C        1.0358928162   -4.7314998577    6.7929303812
C       -0.6698235004   -4.0049731283    5.2505341332
C        2.5746197645   -2.0057867554    2.4988803184
C        0.8470092745   -0.3747371323    2.0644930364
C        1.8026113436   -3.6118748690    6.4765796547
C        0.0905181711   -2.8758999117    4.9197614069
C        1.7113421417   -1.0074820977    2.9661473344
C        1.3318314390   -2.6780415023    5.5399714840
C        2.7028399891    0.6048295209    4.6443074447
C        1.7389198862   -0.5683426501    4.4189880383
O        2.1634117806   -1.6091536433    5.3123587773
H        1.7073157507   -2.0090912714   -0.7998658069
H       -0.8060314700   -5.8098870399    6.4288633662
H        3.2386986986   -3.1489446907    0.7978671393
H        0.1698200264   -0.2302224794    0.0219018423
H        1.4108880384   -5.4468051900    7.5206816957
H       -1.6296850477   -4.1537391835    4.7621788293
H        3.2348686192   -2.5086719569    3.1994014138
H        0.1653107779    0.3955379720    2.4213332868
H        2.7676075396   -3.4370376481    6.9439134310
H       -0.2812669363   -2.1858263778    4.1725690583
H        3.5910012543    0.5273552118    4.0132553947
H        3.0127861069    0.6119341749    5.6935976064
H        2.1961956721    1.5544502385    4.4507229600
H        0.7297170518   -0.2554125929    4.7189995926
29   
torsion grid (-135,)
C        1.7197250546   -1.7380000281    0.2478387889
C       -0.2138294774   -4.9232436678    6.1829041069
C        2.5772595433   -2.3722675538    1.1534539726
C        0.8542845465   -0.7370778153    0.7013363786
C        1.0293368889   -4.7142445054    6.7956403047
C       -0.6735763634   -3.9958148435    5.2466372363
C        2.5739088230   -2.0055322925    2.5019214948
C        0.8483103705   -0.3766762129    2.0523014908
C        1.7949227806   -3.5942780680    6.4778395184
C        0.0859310401   -2.8665658586    4.9143353519
C        1.7090210367   -1.0047521548    2.9607712743
C        1.3251801449   -2.6640333300    5.5370699920
C        2.6904655525    0.6280306505    4.6370643146
C        1.7301844377   -0.5563966580    4.4111329593
O        2.1558151809   -1.5945213645    5.3083963009
H        1.7210974503   -2.0256345576   -0.8003366569
H       -0.8097941466   -5.7972209859    6.4304146702
H        3.2459353989   -3.1575314557    0.8097376281
H        0.1799134542   -0.2431521911    0.0062948499
H        1.4037344346   -5.4265723153    7.5266116814
H       -1.6317964234   -4.1477793633    4.7560414641
H        3.2313520763   -2.5046725902    3.2076354330
H        0.1655113624    0.3958574721    2.4020360132
H        2.7583238225   -3.4163342138    6.9472574190
H       -0.2847967382   -2.1801028452    4.1632970336
H        3.4394410860    0.7038794629    3.8463204676
H        3.2029353009    0.4879770366    5.5929372850
H        2.1372133914    1.5687620603    4.7032085812
H        0.7166217325   -0.2530901819    4.7042786249
29   
torsion grid (-120,)
C        1.7316666390   -1.7273840762    0.2252981462
C       -0.2259695443   -4.8663425896    6.2080790519
C        2.5980734540   -2.3391360000    1.1378430920
C        0.8466400285   -0.7395775779    0.6698601133
C        1.0129189859   -4.6420498924    6.8240479170
C       -0.6813528033   -3.9592256307    5.2500514444
C        2.5846985082   -1.9641026156    2.4841052603
C        0.8312223801   -0.3698121186    2.0181816931
C        1.7782841869   -3.5271149564    6.4885888519
C        0.0778578265   -2.8354576449    4.8989814815
C        1.7010010325   -0.9756164677    2.9332678686
C        1.3124650920   -2.6175588288    5.5258782801
C        2.6646260829    0.6757171142    4.6088541721
C        1.7093459649   -0.5173103981    4.3817242426
O        2.1447864069   -1.5536181747    5.2773456011
H        1.7411209498   -2.0222954039   -0.8208199625
H       -0.8218199313   -5.7362457246    6.4698355846
H        3.2821911198   -3.1140663830    0.8011209346
H        0.1645156166   -0.2633868521   -0.0299984809
H        1.3839319473   -5.3382882001    7.5720347554
H       -1.6360083721   -4.1234672110    4.7564883156
H        3.2485618572   -2.4468539376    3.1951397504
H        0.1339608321    0.3930793208    2.3606336253
H        2.7380258190   -3.3372734629    6.9608670300
H       -0.2886313285   -2.1661784339    4.1305305408
H        3.2153562283    0.9283521846    3.7005067563
H        3.3840020949    0.4128804424    5.3882597134
H        2.1175099359    1.5627461919    4.9392941074
H        0.6904240516   -0.2260709090    4.6658912022
29   
torsion grid (-105,)
C        1.7557899439   -1.7345573056    0.2270661542
C       -0.2329747809   -4.8788625029    6.2169338612
C        2.6112036148   -2.3538173131    1.1444984671
C        0.8731440587   -0.7418651703    0.6661820894
C        1.0078711542   -4.6580932736    6.8300815647
C       -0.6879689790   -3.9718049954    5.2585236736
C        2.5889061581   -1.9819789779    2.4917996542
C        0.8504324870   -0.3747221223    2.0148174741
C        1.7748980857   -3.5454313145    6.4905697551
C        0.0732717050   -2.8507348832    4.9035539955
C        1.7088007249   -0.9883850593    2.9359081988
C        1.3097686262   -2.6359116326    5.5276284592
C        2.6625540622    0.6532495202    4.6226480348
C        1.7054099725   -0.5339036700    4.3870737719
O        2.1460968470   -1.5766219159    5.2720192645
H        1.7716366170   -2.0272719985   -0.8195846372
H       -0.8310485986   -5.7464291937    6.4813306857
H        3.2934488014   -3.1319504120    0.8113485033
H        0.1993788709   -0.2601514865   -0.0380128627
H        1.3785575360   -5.3541992393    7.5783736358
H       -1.6442628935   -4.1342306313    4.7675583138
H        3.2434422960   -2.4711058656    3.2069164720
H        0.1560371518    0.3927523124    2.3530920593
H        2.7361119469   -3.3572802216    6.9604937156
H       -0.2924928077   -2.1815443754    4.1345062747
H        2.9797171598    1.0909967052    3.6732540640
H        3.5506237860    0.3042283439    5.1542304715
H        2.1813995453    1.4439232128    5.2049524085
H        0.6844380780   -0.2450767099    4.6653759714
29   
torsion grid (-90,)
C        1.7711751300   -1.7314589619    0.2204306967
C       -0.2446429876   -4.8374591749    6.2234994413
C        2.6379005056   -2.3249309541    1.1442538948
C        0.8669148281   -0.7541519862    0.6500678585
C        0.9934973933   -4.6091511827    6.8393145764
C       -0.6984873370   -3.9388879214    5.2565555256
C        2.6053489037   -1.9427672091    2.4884440777
C        0.8341804148   -0.3762193089    1.9954336990
C        1.7599559949   -3.4976484962    6.4945966992
C        0.0622010553   -2.8191232216    4.8965184067
C        1.7037089331   -0.9642904876    2.9225988569
C        1.2960549150   -2.5966659112    5.5232493375
C        2.6461055721    0.6788283154    4.6012724765
C        1.6891303136   -0.5009152442    4.3713191879
O        2.1312119802   -1.5383298682    5.2606071694
H        1.7949432976   -2.0323718934   -0.8237565110
H       -0.8416916869   -5.7043191084    6.4924774983
H        3.3370732421   -3.0910175011    0.8183801779
H        0.1842903705   -0.2927968981   -0.0591999927
H        1.3627935244   -5.2988350614    7.5942014771
H       -1.6526750956   -4.1070189018    4.7633950723
H        3.2677285982   -2.4130171171    3.2091040335
H        0.1231587549    0.3792047516    2.3264168307
H        2.7190363738   -3.3039582423    6.9666511962
H       -0.3020298808   -2.1561188627    4.1213950294
H        2.7354894364    1.2740678105    3.6885548762
H        3.6375919183    0.3040350062    4.8657707445
H        2.2754619290    1.3430964216    5.3872345328
H        0.6679226284   -0.2054371741    4.6423092117
29   
torsion grid (-75,)
C        1.7832085545   -1.7367292540    0.2163871267
C       -0.2481923733   -4.8277851778    6.2245005303
C        2.6461781618   -2.3260196375    1.1463920264
C        0.8762642091   -0.7586936342    0.6385482833
C        0.9874854641   -4.5942676695    6.8432606256
C       -0.7021391218   -3.9318507176    5.2551336021
C        2.6070658888   -1.9388189690    2.4888799723
C        0.8367503929   -0.3763262703    1.9824416139
C        1.7513610722   -3.4807754789    6.4990488354
C        0.0559208831   -2.8100640390    4.8958811112
C        1.7021411016   -0.9601534393    2.9160795635
C        1.2875002100   -2.5825872713    5.5251619810
C        2.6343042026    0.6832675393    4.5876485199
C        1.6809545675   -0.4929216197    4.3630622994
O        2.1189596061   -1.5211679277    5.2636334421
H        1.8120791837   -2.0412622367   -0.8266257911
H       -0.8431559242   -5.6962098740    6.4930641314
H        3.3475566733   -3.0925892196    0.8265039579
H        0.1969128084   -0.3000729369   -0.0755918877
H        1.3570518839   -5.2816670196    7.6000954477
H       -1.6545032241   -4.1035383113    4.7596801548
H        3.2667972234   -2.4057830252    3.2141394666
H        0.1230240073    0.3790824788    2.3076176887
H        2.7086007025   -3.2834422464    6.9733193418
H       -0.3088446887   -2.1486416618    4.1196504757
H        2.5312048217    1.4061677045    3.7735006710
H        3.6676482398    0.3272248935    4.6038131333
H        2.4044588084    1.1970001581    5.5257759892
H        0.6600787256   -0.1903559783    4.6300090221
29   
torsion grid (-60,)
C        1.7895870685   -1.7484857681    0.2166890036
C       -0.2466881162   -4.8201934287    6.2168357656
C        2.6472080012   -2.3356395524    1.1531838971
C        0.8844867488   -0.7654465082    0.6306888880
C        0.9838580987   -4.5795230156    6.8430659405
C       -0.6996361132   -3.9267733366    5.2447215822
C        2.6046771615   -1.9408272436    2.4931529179
C        0.8405107609   -0.3762316119    1.9726226224
C        1.7442314168   -3.4621521866    6.5037657155
C        0.0545138952   -2.8007879972    4.8903815836
C        1.7005986215   -0.9577180610    2.9123146210
C        1.2810795659   -2.5667256309    5.5269988609
C        2.6251904369    0.6952022003    4.5738497574
C        1.6768888981   -0.4830923685    4.3556615960
O        2.1066324330   -1.4990254031    5.2730550775
H        1.8213727325   -2.0584980541   -0.8246279963
H       -0.8383673651   -5.6919794705    6.4817483497
H        3.3471089362   -3.1063034653    0.8400098511
H        0.2096767448   -0.3079605522   -0.0884382223
H        1.3525517190   -5.2649889040    7.6020660872
H       -1.6480412306   -4.1035246868    4.7434859466
H        3.2610302565   -2.4052853211    3.2231903394
H        0.1271509973    0.3821247143    2.2915256480
H        2.6976587820   -3.2598255850    6.9836074908
H       -0.3097202940   -2.1408093013    4.1127473018
H        2.3635699771    1.5160433246    3.9003181827
H        3.6547874757    0.3916841357    4.3639106212
H        2.5612784823    1.0479882363    5.6074118774
H        0.6561024715   -0.1751142450    4.6193083532
29   
torsion grid (-45,)
C        1.7934619456   -1.7607616335    0.2175793362
C       -0.2452884932   -4.8118039008    6.2093923801
C        2.6457591286   -2.3472050653    1.1596533871
C        0.8915014184   -0.7715155488    0.6230233751
C        0.9787702294   -4.5632917980    6.8452108535
C       -0.6953077264   -3.9226418663    5.2320628599
C        2.6015586833   -1.9449556374    2.4971264984
C        0.8447757699   -0.3755776095    1.9630878377
C        1.7350401097   -3.4422097903    6.5091776339
C        0.0548745302   -2.7928615501    4.8812545671
C        1.6998205394   -0.9559239180    2.9078270935
C        1.2750808952   -2.5508596432    5.5270674472
C        2.6168932592    0.7140004388    4.5608972098
C        1.6749133904   -0.4726001822    4.3470138204
O        2.0955084821   -1.4774136458    5.2809649399
H        1.8271482276   -2.0764448805   -0.8219600056
H       -0.8342024369   -5.6864481759    6.4710123733
H        3.3427093402   -3.1229801315    0.8525849925
H        0.2212390892   -0.3145932100   -0.1006974129
H        1.3454293225   -5.2452226211    7.6083841042
H       -1.6387181735   -4.1056811602    4.7237132068
H        3.2543954855   -2.4075713807    3.2315757072
H        0.1332202053    0.3867339152    2.2762975716
H        2.6836332164   -3.2337264336    6.9958902269
H       -0.3075271442   -2.1363479029    4.0999468587
H        2.2249227395    1.6063891357    4.0658523245
H        3.6033533448    0.4942133222    4.1417918359
H        2.7382510966    0.9042092701    5.6310696035
H        0.6529193844   -0.1645508111    4.6072021556
29   
torsion grid (-30,)
C        1.8031181851   -1.7756825784    0.2259897816
C       -0.2493774963   -4.8185277612    6.2023956656
C        2.6481338285   -2.3659562008    1.1723847069
C        0.9060710230   -0.7797786798    0.6256453720
C        0.9710909804   -4.5691082228    6.8447599746
C       -0.6958448972   -3.9284083415    5.2243528505
C        2.6018136391   -1.9605234370    2.5087146648
C        0.8564327773   -0.3807743377    1.9648315900
C        1.7266501363   -3.4461233034    6.5136992920
C        0.0539016023   -2.7966743493    4.8787388725
C        1.7046291157   -0.9647309283    2.9134451553
C        1.2705394422   -2.5535005379    5.5307968943
C        2.6172034040    0.7194560283    4.5657555772
C        1.6779087094   -0.4760317537    4.3502124369
O        2.0899163826   -1.4772736103    5.2931005605
H        1.8387278169   -2.0937893103   -0.8127327890
H       -0.8381064474   -5.6946315711    6.4595103900
H        3.3408372738   -3.1472048519    0.8695971467
H        0.2415613550   -0.3200759043   -0.1016144834
H        1.3353269287   -5.2515946329    7.6086115727
H       -1.6364095737   -4.1122185619    4.7110348193
H        3.2494260269   -2.4252522468    3.2464439317
H        0.1485872668    0.3865994926    2.2738731471
H        2.6725469731   -3.2369072193    7.0052771304
H       -0.3061519000   -2.1398782178    4.0966732514
H        2.1235215482    1.6563281231    4.2959648118
H        3.5159085863    0.6177378056    3.9504658994
H        2.9370338033    0.7494459160    5.6107191922
H        0.6540216216   -0.1713732104    4.6062726025
29   
torsion grid (-15,)
C        1.8125209780   -1.7881606792    0.2237568359
C       -0.2547309202   -4.8045465976    6.2020264495
C        2.6530600889   -2.3738303363    1.1768929609
C        0.9146342088   -0.7897044703    0.6152233562
C        0.9645075772   -4.5518904158    6.8455573880
C       -0.7004357060   -3.9181160356    5.2203696974
C        2.6014632911   -1.9617219303    2.5111414342
C        0.8600065868   -0.3837316414    1.9521381009
C        1.7201787658   -3.4295139963    6.5129592712
C        0.0492124729   -2.7869462707    4.8726501773
C        1.7038952535   -0.9630511720    2.9074952925
C        1.2644056482   -2.5406778521    5.5264013231
C        2.6064941501    0.7417920877    4.5574437180
C        1.6713088974   -0.4650003684    4.3412325884
O        2.0836352789   -1.4645886216    5.2871734124
H        1.8520856247   -2.1115760632   -0.8131852916
H       -0.8430154466   -5.6804150073    6.4609577950
H        3.3465997063   -3.1570438969    0.8811376099
H        0.2530098527   -0.3333962826   -0.1168044866
H        1.3278672718   -5.2318056882    7.6120950566
H       -1.6398351500   -4.1044366839    4.7058192588
H        3.2458683260   -2.4232528376    3.2535755954
H        0.1520554816    0.3863494986    2.2540256697
H        2.6649751963   -3.2179573907    7.0057012342
H       -0.3095909116   -2.1335610740    4.0871670255
H        2.0475036175    1.6807476778    4.5563557772
H        3.3647749879    0.7960345370    3.7720166199
H        3.1278367661    0.6283671166    5.5111373136
H        0.6439715291   -0.1690549899    4.5908962948
29   
torsion grid (0,)
C        1.5261415281   -1.5642457860    0.2250927521
C       -0.1231718123   -4.9086824811    6.1881346811
C        2.4332807536   -2.2130639910    1.0698918903
C        0.6729213452   -0.5870312818    0.7483696767
C        1.1473981838   -4.7082776142    6.7449570761
C       -0.6262230261   -3.9674476684    5.2886376581
C        2.4919212462   -1.8854302117    2.4273000726
C        0.7297609512   -0.2647071151    2.1076709751
C        1.8971537248   -3.5829191446    6.4090032867
C        0.1169285296   -2.8328559258    4.9380566016
C        1.6404206261   -0.9077126841    2.9551905568
C        1.3838148391   -2.6388144670    5.5055542669
C        2.6955411321    0.6831799276    4.6345255322
C        1.7260494100   -0.5001649939    4.4163190980
O        2.2050394635   -1.5676618464    5.2509609900
H        1.4796230569   -1.8223932887   -0.8297116768
H       -0.7069656556   -5.7866634147    6.4500667711
H        3.0929928397   -2.9799585935    0.6716809787
H       -0.0403124188   -0.0823696754    0.1014708228
H        1.5554948899   -5.4312818292    7.4468237244
H       -1.6062850925   -4.1127747845    4.8410709276
H        3.1875113477   -2.3968754735    3.0859801662
H        0.0572252377    0.4901530829    2.5118223318
H        2.8812387557   -3.4112588503    6.8359501748
H       -0.2877989500   -2.1360660041    4.2145426878
H        2.1721417623    1.5559398174    5.0339209471
H        3.1865341495    0.9747886202    3.7036843067
H        3.4652484686    0.3872003474    5.3512915578
H        0.7242035576   -0.2181708122    4.7634994967
29   
torsion grid (15,)
C        1.5464319598   -1.5698777099    0.2193982446
C       -0.1371235408   -4.9074194082    6.2016262210
C        2.4579326462   -2.2104504652    1.0655322668
C        0.6816157337   -0.6020695693    0.7414937607
C        1.1348147939   -4.7091367141    6.7560008826
C       -0.6366886017   -3.9693603020    5.2968023060
C        2.5087014600   -1.8840498472    2.4236917069
C        0.7315808316   -0.2801808738    2.1010017885
C        1.8890557297   -3.5888835303    6.4127444437
C        0.1113979763   -2.8403484802    4.9388709020
C        1.6462721309   -0.9153837843    2.9503246817
C        1.3794720670   -2.6479355714    5.5040622320
C        2.6975877916    0.6646977084    4.6366163690
C        1.7229587355   -0.5104853515    4.4140264548
O        2.2062711230   -1.5836699058    5.2382059016
H        1.5053738457   -1.8270907873   -0.8358650434
H       -0.7246275992   -5.7811187057    6.4695247720
H        3.1269764688   -2.9696335743    0.6680880290
H       -0.0351735174   -0.1043380989    0.0931502129
H        1.5403204422   -5.4295502437    7.4620204998
H       -1.6177344522   -4.1130402755    4.8508657442
H        3.2067728253   -2.3898696378    3.0839985945
H        0.0506472046    0.4679543836    2.5038566579
H        2.8740519385   -3.4188384353    6.8381996146
H       -0.2902662161   -2.1462045370    4.2109999202
H        2.2605512697    1.4148644843    5.3024515157
H        2.9656212970    1.1498510154    3.6963834626
H        3.6022565878    0.2898751255    5.1216971897
H        0.7198583420   -0.2284241799    4.7565980326
29   
torsion grid (30,)
C        1.5647610948   -1.5687243606    0.2111816655
C       -0.1376592514   -4.8898508572    6.2126978228
C        2.4659784197   -2.2096001563    1.0677822113
C        0.6995467595   -0.5951100965    0.7220465061
C        1.1328274062   -4.6839783052    6.7674801854
C       -0.6400655855   -3.9585731008    5.3023627276
C        2.5064653957   -1.8787106423    2.4253437503
C        0.7396499258   -0.2685345475    2.0805488614
C        1.8830521979   -3.5625738984    6.4189575471
C        0.1039383412   -2.8286138295    4.9392742901
C        1.6437788542   -0.9045543019    2.9407714337
C        1.3706865889   -2.6286450164    5.5048269310
C        2.6778645052    0.6745271268    4.6263954113
C        1.7070821601   -0.4958839254    4.4047114252
O        2.1940564193   -1.5633279576    5.2321966017
H        1.5318438353   -1.8297975269   -0.8434293104
H       -0.7221478376   -5.7643133497    6.4846478153
H        3.1354012893   -2.9728825789    0.6789591166
H       -0.0093292625   -0.0966229643    0.0656296506
H        1.5403070900   -5.3990726408    7.4777556070
H       -1.6201216414   -4.1084669588    4.8563098519
H        3.1964918634   -2.3853591467    3.0933702231
H        0.0584771470    0.4841123141    2.4746512067
H        2.8669302435   -3.3863793998    6.8445136440
H       -0.2995247774   -2.1394840133    4.2075622546
H        2.3653948492    1.2754041992    5.4864876617
H        2.7334985819    1.3193991689    3.7474380755
H        3.6694447377    0.2771221135    4.8589213875
H        0.7019602885   -0.2113346675    4.7401193959
29   
torsion grid (45,)
C        1.5780941797   -1.5920864975    0.2221147627
C       -0.1495732324   -4.9184638409    6.2035972219
C        2.4860993902   -2.2275742371    1.0757485083
C        0.7061432641   -0.6264039263    0.7363002684
C        1.1207861241   -4.7215935334    6.7619122488
C       -0.6460695366   -3.9792896305    5.2981165240
C        2.5264801438   -1.8984123269    2.4335446967
C        0.7458570442   -0.3021895649    2.0954370356
C        1.8768632304   -3.6016105778    6.4214661973
C        0.1037058763   -2.8504651156    4.9434972803
C        1.6566054331   -0.9324028674    2.9526221405
C        1.3704436233   -2.6598184011    5.5121541344
C        2.7012507524    0.6282565259    4.6375507765
C        1.7218909168   -0.5275259288    4.4168799483
O        2.1980848757   -1.5959463278    5.2480773499
H        1.5452715069   -1.8514520571   -0.8329220182
H       -0.7385102827   -5.7919080069    6.4691500221
H        3.1606813124   -2.9848654423    0.6841624995
H       -0.0076205803   -0.1322177539    0.0819550629
H        1.5237613819   -5.4428501255    7.4685209204
H       -1.6260809360   -4.1218495008    4.8495600830
H        3.2214655506   -2.4010013224    3.0996809278
H        0.0589710221    0.4436698068    2.4925339647
H        2.8608650397   -3.4325882666    6.8496339153
H       -0.2957310754   -2.1543050193    4.2162604587
H        2.5437103287    1.0768817473    5.6235409037
H        2.5757941225    1.3966124101    3.8712869583
H        3.7257866481    0.2467747547    4.6072251029
H        0.7209164333   -0.2277082459    4.7533223729
29   
torsion grid (60,)
C        1.5883927885   -1.6094607010    0.2329709986
C       -0.1522749658   -4.9267487957    6.1914628270
C        2.4896771316   -2.2489575421    1.0908905942
C        0.7219373761   -0.6358665878    0.7412773189
C        1.1148274677   -4.7304467097    6.7574032794
C       -0.6457911027   -3.9841208934    5.2880038265
C        2.5281421903   -1.9145165411    2.4472940687
C        0.7595101096   -0.3076029124    2.0995970135
C        1.8718832567   -3.6081899776    6.4268971437
C        0.1046713668   -2.8526240453    4.9435199002
C        1.6633062771   -0.9411670947    2.9613435455
C        1.3682979924   -2.6629762374    5.5195424765
C        2.7056380785    0.6222986993    4.6398541547
C        1.7284405072   -0.5325964259    4.4234548394
O        2.1940343595   -1.5948556774    5.2678869520
H        1.5566496539   -1.8720162241   -0.8213000433
H       -0.7410798586   -5.8024867702    6.4496408967
H        3.1597658926   -3.0125831666    0.7039116069
H        0.0140143884   -0.1384958646    0.0830316081
H        1.5150089190   -5.4547698042    7.4624490419
H       -1.6232582036   -4.1257279774    4.8336052187
H        3.2181286561   -2.4191351033    3.1171858138
H        0.0761236776    0.4435871806    2.4925046527
H        2.8535494454   -3.4401247503    6.8608162501
H       -0.2924445891   -2.1529355714    4.2184844087
H        2.7056012596    0.9268311745    5.6906464924
H        2.4220674902    1.4766548996    4.0191624903
H        3.7174949490    0.3126943547    4.3629339988
H        0.7289323329   -0.2241523409    4.7584591434
29   
torsion grid (75,)
C        1.5970654956   -1.6229782245    0.2390242229
C       -0.1562875138   -4.9337174233    6.1845175783
C        2.4899782586   -2.2689133846    1.1011197203
C        0.7386640605   -0.6405236523    0.7435344917
C        1.1066626137   -4.7371429997    6.7595359148
C       -0.6444878129   -3.9900424254    5.2792854763
C        2.5285752418   -1.9320397682    2.4567670028
C        0.7753439113   -0.3104120608    2.1016306850
C        1.8636231431   -3.6132220343    6.4348175460
C        0.1055368285   -2.8565264402    4.9404455349
C        1.6709550644   -0.9502021617    2.9670142677
C        1.3651428557   -2.6670282631    5.5254532712
C        2.7100619176    0.6215911169    4.6424557352
C        1.7368326484   -0.5387532373    4.4271298256
O        2.1905942652   -1.5962678928    5.2846996020
H        1.5657401969   -1.8873283053   -0.8148153802
H       -0.7458945762   -5.8105376410    6.4371348792
H        3.1537076819   -3.0397747450    0.7175744541
H        0.0372792718   -0.1375455342    0.0825749202
H        1.5033115500   -5.4619362551    7.4661136930
H       -1.6187893451   -4.1324361275    4.8184118607
H        3.2129492564   -2.4409472525    3.1292346254
H        0.0972505274    0.4470132409    2.4914747370
H        2.8423436619   -3.4444641049    6.8750817107
H       -0.2884724658   -2.1564117273    4.2142413148
H        2.8753338353    0.7852396455    5.7106646114
H        2.2946600031    1.5337752797    4.2032620756
H        3.6631804159    0.4242679011    4.1439387853
H        0.7375026923   -0.2275034742    4.7609944116
29   
torsion grid (90,)
C        1.6056032330   -1.6366310218    0.2443756903
C       -0.1631230316   -4.9381921464    6.1792770655
C        2.4922989602   -2.2876344582    1.1092608856
C        0.7526262224   -0.6477188540    0.7451540307
C        1.0961419132   -4.7415027211    6.7624317050
C       -0.6447210752   -3.9947852570    5.2703078160
C        2.5309309922   -1.9495753748    2.4644866066
C        0.7880161895   -0.3161238520    2.1030409988
C        1.8556683769   -3.6180512431    6.4422000776
C        0.1085446044   -2.8619046307    4.9362108282
C        1.6780461695   -0.9611183383    2.9703530053
C        1.3643098075   -2.6716688496    5.5290322245
C        2.7133233225    0.6239019181    4.6463931837
C        1.7436116984   -0.5459949235    4.4287984442
O        2.1909769716   -1.6004828413    5.2948263229
H        1.5749382860   -1.9022702478   -0.8091485967
H       -0.7546714678   -5.8147059572    6.4284126031
H        3.1513150593   -3.0636877729    0.7280803290
H        0.0561608134   -0.1410107999    0.0818504399
H        1.4878815981   -5.4660667490    7.4719848883
H       -1.6159234173   -4.1367996701    4.8027992476
H        3.2109820211   -2.4614641002    3.1390605461
H        0.1140463517    0.4460627071    2.4906322002
H        2.8315008148   -3.4496553130    6.8888899465
H       -0.2803575292   -2.1622707422    4.2068238813
H        3.0617536374    0.6383690499    5.6817448416
H        2.1997839325    1.5675857688    4.4366285448
H        3.5614786352    0.5690650796    3.9591046764
H        0.7423087213   -0.2394739079    4.7604006688
29   
torsion grid (105,)
C        1.6143229693   -1.6509482355    0.2415895548
C       -0.1675205341   -4.9238331229    6.1783060600
C        2.4982190202   -2.2956168490    1.1140471754
C        0.7582084154   -0.6601310830    0.7331711017
C        1.0905046814   -4.7232777839    6.7629091834
C       -0.6499069534   -3.9837078681    5.2664357305
C        2.5309487330   -1.9494823275    2.4674669647
C        0.7878731213   -0.3202601329    2.0892016548
C        1.8485636790   -3.5991888013    6.4416576167
C        0.1020661650   -2.8502563824    4.9312684132
C        1.6753121234   -0.9587545551    2.9640217298
C        1.3564797844   -2.6558575745    5.5256588477
C        2.7026205197    0.6475999048    4.6386457462
C        1.7345656676   -0.5321898474    4.4197197323
O        2.1817328276   -1.5835033834    5.2910592245
H        1.5882093018   -1.9229415231   -0.8104315389
H       -0.7575317302   -5.8010704714    6.4285206695
H        3.1597261713   -3.0731810367    0.7402942686
H        0.0635100166   -0.1583992075    0.0642334161
H        1.4825215829   -5.4455751245    7.4746083500
H       -1.6200064273   -4.1287407292    4.7975503603
H        3.2090974925   -2.4564450754    3.1475806502
H        0.1119785262    0.4440001717    2.4692481698
H        2.8233356291   -3.4279355581    6.8895906475
H       -0.2868434461   -2.1535833070    4.1991019636
H        3.2529659479    0.5073213023    5.5715685603
H        2.1439711632    1.5859982260    4.7062643824
H        3.4018756213    0.7527561580    3.8059606189
H        0.7292686524   -0.2329002209    4.7436574622
29   
torsion grid (120,)
C        1.6342519361   -1.6621385766    0.2333400356
C       -0.1773890121   -4.9157299171    6.1888832176
C        2.5177671425   -2.2996835113    1.1111186593
C        0.7702755249   -0.6748783356    0.7187298731
C        1.0808838926   -4.7134958147    6.7722781788
C       -0.6572523775   -3.9811769600    5.2699641954
C        2.5419971328   -1.9504951841    2.4641783441
C        0.7929690272   -0.3313364759    2.0738296112
C        1.8406310685   -3.5929645298    6.4426486509
C        0.0965715130   -2.8515992717    4.9260065458
C        1.6797394585   -0.9627757931    2.9546873459
C        1.3510315481   -2.6551972216    5.5196425784
C        2.6987227671    0.6498106808    4.6356093323
C        1.7290342102   -0.5321597284    4.4109231253
O        2.1806151767   -1.5880968647    5.2749456734
H        1.6142455663   -1.9368000791   -0.8181177524
H       -0.7693657806   -5.7898273486    6.4453770350
H        3.1855631460   -3.0742032295    0.7421997377
H        0.0752937762   -0.1789615805    0.0457216941
H        1.4713973992   -5.4310978250    7.4895332083
H       -1.6274190276   -4.1279756377    4.8017969746
H        3.2191576786   -2.4529049884    3.1485091444
H        0.1121863578    0.4312699908    2.4485614520
H        2.8154137176   -3.4201180092    6.8899369434
H       -0.2903411867   -2.1604548385    4.1875380647
H        3.4487809874    0.3620685962    5.3761040639
H        2.1688672911    1.5294596056    5.0110174227
H        3.2108760439    0.9288764950    3.7124478793
H        0.7199859281   -0.2394721035    4.7269751226
29   
torsion grid (135,)
C        1.6619085547   -1.6595613938    0.2385877810
C       -0.1925331511   -4.9408540861    6.2030640059
C        2.5454909180   -2.2989338050    1.1146081192
C        0.7900586779   -0.6814812875    0.7290191379
C        1.0653087093   -4.7429603426    6.7888352167
C       -0.6645287421   -4.0085725616    5.2776876468
C        2.5617999390   -1.9616680629    2.4710404798
C        0.8057302213   -0.3485328586    2.0866195468
C        1.8326346525   -3.6285013564    6.4558377967
C        0.0973017808   -2.8855804269    4.9299668317
C        1.6923964219   -0.9826687899    2.9660251916
C        1.3510195610   -2.6931766979    5.5263332489
C        2.7043681224    0.6070091068    4.6659873406
C        1.7316913441   -0.5661692170    4.4280425333
O        2.1890726217   -1.6346481124    5.2729715040
H        1.6476936209   -1.9254630805   -0.8152255512
H       -0.7904425304   -5.8099311718    6.4628424605
H        3.2197221190   -3.0659977229    0.7418388940
H        0.0946058165   -0.1843182310    0.0574148835
H        1.4493334844   -5.4588962557    7.5112383793
H       -1.6342140078   -4.1522032622    4.8075383690
H        3.2379432395   -2.4669815921    3.1541239491
H        0.1197594385    0.4079351338    2.4645539572
H        2.8068644664   -3.4586308108    6.9054487196
H       -0.2824359710   -2.1960899503    4.1860682302
H        3.6086354411    0.2167093327    5.1410749647
H        2.2735329592    1.3659388576    5.3239748453
H        3.0075763049    1.0684624576    3.7239356784
H        0.7208121308   -0.2780176197    4.7417269425
29   
torsion grid (150,)
C        1.6790021993   -1.6695405590    0.2413235352
C       -0.2014521127   -4.9465270175    6.2054174749
C        2.5642503822   -2.3025595717    1.1201425473
C        0.7992000754   -0.6966444511    0.7281051602
C        1.0553480956   -4.7479284759    6.7930408826
C       -0.6701168979   -4.0146972568    5.2778440089
C        2.5729450982   -1.9629036713    2.4761175025
C        0.8087248112   -0.3622859546    2.0853146709
C        1.8245531615   -3.6346224938    6.4603072887
C        0.0925385211   -2.8924509692    4.9297072802
C        1.6963024568   -0.9893590069    2.9687892897
C        1.3451548128   -2.7004987041    5.5286173420
C        2.7069658958    0.5863121268    4.6684667277
C        1.7286883880   -0.5737851062    4.4314588585
O        2.1848522821   -1.6436722149    5.2738186704
H        1.6695747146   -1.9364136399   -0.8122971165
H       -0.8005508885   -5.8148020310    6.4652048299
H        3.2448473872   -3.0654377027    0.7503207633
H        0.1026464503   -0.2047147270    0.0537891478
H        1.4374878756   -5.4630148456    7.5172541668
H       -1.6389377100   -4.1583265327    4.8059660374
H        3.2495517249   -2.4637052641    3.1620750326
H        0.1165886573    0.3900546541    2.4602865542
H        2.7980091888   -3.4648567272    6.9116858127
H       -0.2853073662   -2.2034944125    4.1843021650
H        3.6974785269    0.1662603946    4.8681628139
H        2.4125138990    1.1983785203    5.5249062855
H        2.8016165313    1.2053890714    3.7734863997
H        0.7189566344   -0.2770720696    4.7418522559
29   
torsion grid (165,)
C        1.6930395767   -1.6801097331    0.2432127136
C       -0.2053509580   -4.9502306783    6.2044167563
C        2.5727122742   -2.3155626879    1.1259202722
C        0.8152647649   -0.7037228402    0.7265148195
C        1.0496191081   -4.7536592717    6.7966601362
C       -0.6732274193   -4.0182978195    5.2764822266
C        2.5782325371   -1.9750622034    2.4815891097
C        0.8205502497   -0.3684599753    2.0835073969
C        1.8195913372   -3.6399148699    6.4671230052
C        0.0914313914   -2.8960742546    4.9329449252
C        1.7027179225   -0.9984125375    2.9702766623
C        1.3425337565   -2.7049319314    5.5351726742
C        2.7087921336    0.5710256594    4.6681056665
C        1.7314545257   -0.5829786492    4.4327176616
O        2.1816576168   -1.6469949667    5.2840482751
H        1.6864791236   -1.9476165710   -0.8102813151
H       -0.8050694425   -5.8188181021    6.4615760862
H        3.2517886296   -3.0811602916    0.7590085861
H        0.1233307379   -0.2094057557    0.0492351595
H        1.4294298385   -5.4698916718    7.5210041266
H       -1.6408903375   -4.1613713846    4.8019872162
H        3.2509172667   -2.4775627905    3.1702383305
H        0.1291227518    0.3859284779    2.4557626449
H        2.7919129859   -3.4705921525    6.9210774405
H       -0.2843053406   -2.2051747258    4.1882536817
H        3.7317380186    0.1847468531    4.6231622887
H        2.5505448018    1.0304149188    5.6476892980
H        2.6094275309    1.3219310904    3.8801797284
H        0.7229796347   -0.2780042814    4.7412534940
29   
torsion grid (180,)
C        1.7002303017   -1.6947082012    0.2447887014
C       -0.2061469116   -4.9437548882    6.1974880536
C        2.5752028805   -2.3285520632    1.1335679099
C        0.8247199858   -0.7122085944    0.7192842090
C        1.0470536070   -4.7450084045    6.7926917129
C       -0.6735085847   -4.0095459870    5.2715992366
C        2.5795769196   -1.9807987648    2.4871346452
C        0.8275533906   -0.3700807220    2.0746520985
C        1.8142153104   -3.6280454346    6.4674654356
C        0.0880200174   -2.8837911171    4.9325076708
C        1.7051436311   -0.9984201265    2.9669270729
C        1.3375750776   -2.6910274006    5.5372645662
C        2.7057146928    0.5810997873    4.6559750383
C        1.7323523548   -0.5746605146    4.4257434464
O        2.1729034096   -1.6283265919    5.2943553258
H        1.6957399699   -1.9683509010   -0.8071301361
H       -0.8042071466   -5.8146891237    6.4506017520
H        3.2519530531   -3.0989397663    0.7725098483
H        0.1368873610   -0.2188332742    0.0371715415
H        1.4277128690   -5.4621643543    7.5156798208
H       -1.6398885020   -4.1535191890    4.7948020986
H        3.2491782590   -2.4812671074    3.1804037098
H        0.1372021988    0.3879772885    2.4413448016
H        2.7852652688   -3.4576574340    6.9236976093
H       -0.2891914709   -2.1913063583    4.1901254884
H        3.7225379558    0.2705895071    4.3997874763
H        2.6839239701    0.8929342396    5.7045080707
H        2.4351962011    1.4314878150    4.0240061996
H        0.7250363147   -0.2606793192    4.7312279883
