
  -OEChem-05262117483D

 47 50  0     1  0  0  0  0  0999 V2000
    6.3853   -1.9606   -5.3624 C   0  0  0  0  0  0  0  0  0  0  0  0
    8.5351   -0.3014   -2.8326 C   0  0  0  0  0  0  0  0  0  0  0  0
    7.6979   -0.2982   -1.7094 C   0  0  0  0  0  0  0  0  0  0  0  0
    8.0721   -0.8561   -4.0215 C   0  0  0  0  0  0  0  0  0  0  0  0
    6.4185   -0.8422   -1.7770 C   0  0  0  0  0  0  0  0  0  0  0  0
    3.7527   -2.5294   -3.9318 C   0  0  0  0  0  0  0  0  0  0  0  0
    2.5244   -2.8481   -3.2707 C   0  0  0  0  0  0  0  0  0  0  0  0
    6.7807   -1.4089   -4.0995 C   0  0  0  0  0  0  0  0  0  0  0  0
    5.9229   -1.4122   -2.9683 C   0  0  0  0  0  0  0  0  0  0  0  0
    4.5769   -1.9665   -2.9827 C   0  0  0  0  0  0  0  0  0  0  0  0
    2.6665   -2.4693   -1.9628 C   0  0  0  0  0  0  0  0  0  0  0  0
    0.8728    1.1586    1.1003 C   0  0  0  0  0  0  0  0  0  0  0  0
    1.2363    1.1587   -0.4085 C   0  0  0  0  0  0  0  0  0  0  0  0
   -1.3680   -0.0587    0.9127 C   0  0  0  0  0  0  0  0  0  0  0  0
    0.8314   -1.3651    1.1230 C   0  0  0  0  0  0  0  0  0  0  0  0
   -0.5598   -0.3778   -1.3802 C   0  0  0  0  0  0  0  0  0  0  0  0
    0.0584   -0.0863    1.4924 C   0  0  1  0  0  0  0  0  0  0  0  0
    0.9446   -0.2086   -1.0452 C   0  0  2  0  0  0  0  0  0  0  0  0
   -2.8190    0.3621   -0.9567 C   0  0  0  0  0  0  0  0  0  0  0  0
    1.7597   -2.5380   -0.7795 C   0  0  0  0  0  0  0  0  0  0  0  0
    6.0939   -2.3986   -6.4031 N   0  0  0  0  0  0  0  0  0  0  0  0
   -1.4420    0.3662   -0.4831 N   0  0  1  0  0  0  0  0  0  0  0  0
    1.5180   -1.2384   -0.1669 N   0  0  2  0  0  0  0  0  0  0  0  0
    3.9091   -1.9340   -1.7746 O   0  0  0  0  0  0  0  0  0  0  0  0
    9.5334    0.1229   -2.7805 H   0  0  0  0  0  0  0  0  0  0  0  0
    8.0456    0.1331   -0.7745 H   0  0  0  0  0  0  0  0  0  0  0  0
    8.7006   -0.8714   -4.9067 H   0  0  0  0  0  0  0  0  0  0  0  0
    5.7784   -0.8310   -0.9024 H   0  0  0  0  0  0  0  0  0  0  0  0
    3.9849   -2.6918   -4.9730 H   0  0  0  0  0  0  0  0  0  0  0  0
    1.6437   -3.2965   -3.7114 H   0  0  0  0  0  0  0  0  0  0  0  0
    1.7885    1.1707    1.7017 H   0  0  0  0  0  0  0  0  0  0  0  0
    0.3095    2.0610    1.3583 H   0  0  0  0  0  0  0  0  0  0  0  0
    0.6738    1.9309   -0.9390 H   0  0  0  0  0  0  0  0  0  0  0  0
    2.3022    1.3704   -0.5345 H   0  0  0  0  0  0  0  0  0  0  0  0
   -1.8294   -1.0565    1.0601 H   0  0  0  0  0  0  0  0  0  0  0  0
   -1.9679    0.6518    1.4945 H   0  0  0  0  0  0  0  0  0  0  0  0
    1.5830   -1.5790    1.8955 H   0  0  0  0  0  0  0  0  0  0  0  0
    0.1269   -2.2158    1.1251 H   0  0  0  0  0  0  0  0  0  0  0  0
   -0.7310    0.0123   -2.3898 H   0  0  0  0  0  0  0  0  0  0  0  0
   -0.8167   -1.4558   -1.4160 H   0  0  0  0  0  0  0  0  0  0  0  0
   -0.0653   -0.1014    2.5819 H   0  0  0  0  0  0  0  0  0  0  0  0
    1.4893   -0.2765   -1.9909 H   0  0  0  0  0  0  0  0  0  0  0  0
   -2.8656    0.7720   -1.9709 H   0  0  0  0  0  0  0  0  0  0  0  0
   -3.4352    0.9934   -0.3078 H   0  0  0  0  0  0  0  0  0  0  0  0
   -3.2699   -0.6494   -0.9745 H   0  0  0  0  0  0  0  0  0  0  0  0
    0.8358   -3.0517   -1.1042 H   0  0  0  0  0  0  0  0  0  0  0  0
    2.2164   -3.1787   -0.0136 H   0  0  0  0  0  0  0  0  0  0  0  0
  1  8  1  0  0  0  0
  1 21  3  0  0  0  0
  2  3  1  0  0  0  0
  2  4  2  0  0  0  0
  2 25  1  0  0  0  0
  3  5  2  0  0  0  0
  3 26  1  0  0  0  0
  4  8  1  0  0  0  0
  4 27  1  0  0  0  0
  5  9  1  0  0  0  0
  5 28  1  0  0  0  0
  6  7  1  0  0  0  0
  6 10  2  0  0  0  0
  6 29  1  0  0  0  0
  7 11  2  0  0  0  0
  7 30  1  0  0  0  0
  8  9  2  0  0  0  0
  9 10  1  0  0  0  0
 10 24  1  0  0  0  0
 11 20  1  0  0  0  0
 11 24  1  0  0  0  0
 12 13  1  0  0  0  0
 12 17  1  0  0  0  0
 12 31  1  0  0  0  0
 12 32  1  0  0  0  0
 13 18  1  0  0  0  0
 13 33  1  0  0  0  0
 13 34  1  0  0  0  0
 14 17  1  0  0  0  0
 14 22  1  0  0  0  0
 14 35  1  0  0  0  0
 14 36  1  0  0  0  0
 15 17  1  0  0  0  0
 15 23  1  0  0  0  0
 15 37  1  0  0  0  0
 15 38  1  0  0  0  0
 16 18  1  0  0  0  0
 16 22  1  0  0  0  0
 16 39  1  0  0  0  0
 16 40  1  0  0  0  0
 17 41  1  0  0  0  0
 18 23  1  0  0  0  0
 18 42  1  0  0  0  0
 19 22  1  0  0  0  0
 19 43  1  0  0  0  0
 19 44  1  0  0  0  0
 19 45  1  0  0  0  0
 20 23  1  0  0  0  0
 20 46  1  0  0  0  0
 20 47  1  0  0  0  0
M  END
$$$$
