21
0 1 C8ClH9N2O
C                     1.492352331911    -1.132906377892    -0.045395530519
C                     0.750812882823    -0.119263541401     0.567010560718
C                     2.518044718701    -1.770635202066     0.655299079225
C                     1.038644163066     0.250215432612     1.882697324269
C                     2.831717822975    -1.418564602503     1.975126871411
C                     2.067054954354    -0.401070483066     2.565326750100
C                     4.789874462791    -3.035195101941     1.930350674025
C                     3.933700238281    -2.111474158211     2.757742897129
N                     4.571381055499    -4.290590970179     1.736558782667
N                     5.865705241978    -2.454096198134     1.256600582492
O                     3.346302929726    -4.693774008046     2.343405941391
Cl                    2.392899489022     0.087287590396     4.229982642624
H                     1.273064015780    -1.428956161225    -1.067616557141
H                    -0.048867483365     0.383565316812     0.030003559371
H                     3.087865676084    -2.559774315883     0.175268879198
H                     0.473811193028     1.032718463120     2.379509506390
H                     4.574696107303    -1.354280816423     3.222394725863
H                     3.484601065355    -2.687806948094     3.570778013330
H                     6.369282510228    -1.758236791691     1.796127028290
H                     6.487630903145    -3.140531842180     0.838799394603
H                     3.336922655113    -5.645885473174     2.158614142571
