39
0 1 C16H16N2O4S
C                     1.881274229163    -8.642228865859    -0.838971705287
C                     2.457205124830    -8.809365540187     0.429471974307
C                     0.647612976036    -7.998917862417    -0.989482695302
C                     1.813432774112    -8.335890279436     1.580452484498
C                    -3.682037029739    -8.835760476114     1.816756800760
C                     0.002707683368    -7.528505151271     0.152402856753
C                    -4.381755238735    -7.769006345532     1.148652659641
C                     0.591184116550    -7.702792210947     1.402371859233
C                    -4.226273099794   -10.023750746109     1.393792578997
C                    -5.341779072644    -8.360435645759     0.318300108093
C                    -1.311247199591    -6.821860663474     0.196565981174
C                    -4.155782689461    -6.334119875228     1.272693517648
C                    -3.895048780265   -11.427350375848     1.790285097096
C                    -6.319241544648    -7.740855652539    -0.627240399565
C                    -6.079611698873   -10.703726173601    -0.182682196827
C                    -2.848110230098    -5.840827250735     1.929017623714
N                    -5.225507816699    -9.720910015757     0.464703830978
N                    -1.652190398354    -6.577844880558     1.522964540326
O                    -1.997313133979    -6.505857644859    -0.760195041306
O                    -4.957486396464    -5.466540982227     0.930788571055
O                    -0.963108444912    -8.008908992743     3.586137842254
O                     0.146869880382    -5.776375387389     3.236122011341
S                    -0.440130375929    -6.990609666678     2.673196942110
H                     2.402876929534    -9.017729823612    -1.714710272747
H                     3.416191263396    -9.310875482413     0.523089402577
H                     0.186262387580    -7.859246787098    -1.962456008858
H                     2.252396790550    -8.459126020776     2.565736238009
H                    -2.897093433935    -8.747630493808     2.554542197923
H                    -4.758042225733   -11.957582797627     2.211516771504
H                    -3.519964729486   -12.023031228663     0.948195458517
H                    -3.113174031276   -11.407142701579     2.552831262166
H                    -6.153149487301    -8.080379635065    -1.657263313350
H                    -7.353264604221    -7.989731610628    -0.358041110236
H                    -6.212995752046    -6.658004284590    -0.594622159721
H                    -6.983775882763   -10.895591235482     0.406874863845
H                    -6.376194792291   -10.349089540825    -1.170751301046
H                    -5.536997419383   -11.642166625955    -0.304882518286
H                    -2.949278265733    -5.943995470391     3.014416588340
H                    -2.745486883049    -4.780748055653     1.688943401376
