25
0 1 BrC11H11N2
C                     1.847061562508     4.323525007107     1.578687154615
C                     1.094787266858     4.289239165827     2.750316688743
C                    -0.027782353904     2.223320471363     2.042932310662
C                     1.737476714624     1.927876902859    -1.143414329141
C                     0.724776681419     2.241363847882     0.852157536643
C                     0.792303762873     1.375222141976    -0.307046260399
C                     1.655260144769     3.300538620901     0.643580926154
C                     0.173749002872     3.243833811376     2.961781648991
C                    -1.508150229605     0.128023884912    -0.334039044863
C                    -1.268982387286    -0.906769042834     0.794502457141
C                     0.034161468760     0.116609363141    -0.578198255970
N                     2.254808727359     3.084489985864    -0.584082013330
N                     0.175435903401    -0.988924709684     0.430002178122
Br                   -0.845173159477     3.237321513200     4.594503411385
H                     2.560032681364     5.126006747487     1.406986729019
H                     1.215162016900     5.063830192686     3.499997063541
H                    -0.748446873304     1.440329015582     2.246318327727
H                     2.083161298861     1.578024397201    -2.107681375805
H                    -2.093279399967    -0.242888206824    -1.178643222420
H                    -1.914512580030     1.090004161053    -0.015882179749
H                    -1.468860488621    -0.527928273076     1.804597864240
H                    -1.788498261451    -1.864354660994     0.682326201998
H                     0.309401855710    -0.237452927149    -1.578513515697
H                     2.968664043125     3.665859426229    -0.998786392680
H                     0.805390135373    -0.747514261972     1.191969116400
