39
0 1 C16H16N2O4S
C                     2.046533705546    -7.935293103051     2.591764120747
C                     2.247327151161    -8.318441433513     1.256485116024
C                     0.837374955388    -7.362645746684     3.000190876139
C                     1.243167418999    -8.138550757599     0.296275662625
C                    -5.675119047953    -8.648482158250    -0.701720123427
C                    -0.163016093099    -7.179968217200     2.046198768122
C                    -4.941944615248    -7.945802446036     0.313332531113
C                     0.055997950483    -7.561387164787     0.726329282063
C                    -5.730427776870    -9.972214050560    -0.349009118896
C                    -4.587599924248    -8.882969793273     1.291458337334
C                    -1.506406257314    -6.581749419899     2.282458792252
C                    -4.645743735946    -6.522378451541     0.187789757055
C                    -6.335358520325   -11.136007787849    -1.067914002359
C                    -3.916596791615    -8.753242137663     2.621880601243
C                    -4.948828872086   -11.337550775941     1.631929023182
C                    -3.481815719940    -5.855571000967     0.941840812816
N                    -5.064300747645   -10.103090470517     0.872963863798
N                    -2.269546587848    -6.660616435596     1.118852283152
O                    -1.901987230625    -6.098713916657     3.332962403996
O                    -5.293774931315    -5.787052135584    -0.555839714469
O                    -1.193717454403    -6.113299162439    -1.186786672305
O                    -1.962763624862    -8.482256663577    -0.753035358314
S                    -1.390968910568    -7.231435484700    -0.267356128062
H                     2.842687259086    -8.086172633242     3.315149547653
H                     3.194697230816    -8.760144418276     0.960848159709
H                     0.662705300588    -7.058954215796     4.027923214617
H                     1.389370335008    -8.434664497290    -0.737937593820
H                    -6.069733378545    -8.202269006703    -1.604005320753
H                    -5.585144830150   -11.882624919820    -1.357448667001
H                    -7.101912430167   -11.646420660384    -0.471892798637
H                    -6.812490411478   -10.778964705833    -1.983257292954
H                    -4.455525621714    -9.317316114119     3.391020541904
H                    -2.886609586708    -9.132156235507     2.600483479483
H                    -3.880868974187    -7.717871877580     2.954322922666
H                    -3.945294839057   -11.433263327915     2.052452028762
H                    -5.679782025239   -11.377825982477     2.448326277375
H                    -5.121471058488   -12.187338593533     0.971802768274
H                    -3.801671143357    -5.579989808018     1.951018335584
H                    -3.245757788586    -4.937251363734     0.397673160082
