
  -OEChem-05262117483D

 25 27  0     1  0  0  0  0  0999 V2000
    1.8471    4.3235    1.5787 C   0  0  0  0  0  0  0  0  0  0  0  0
    1.0948    4.2892    2.7503 C   0  0  0  0  0  0  0  0  0  0  0  0
   -0.0278    2.2233    2.0429 C   0  0  0  0  0  0  0  0  0  0  0  0
    1.7375    1.9279   -1.1434 C   0  0  0  0  0  0  0  0  0  0  0  0
    0.7248    2.2414    0.8522 C   0  0  0  0  0  0  0  0  0  0  0  0
    0.7923    1.3752   -0.3070 C   0  0  0  0  0  0  0  0  0  0  0  0
    1.6553    3.3005    0.6436 C   0  0  0  0  0  0  0  0  0  0  0  0
    0.1737    3.2438    2.9618 C   0  0  0  0  0  0  0  0  0  0  0  0
   -1.5082    0.1280   -0.3340 C   0  0  0  0  0  0  0  0  0  0  0  0
   -1.2690   -0.9068    0.7945 C   0  0  0  0  0  0  0  0  0  0  0  0
    0.0342    0.1166   -0.5782 C   0  0  2  0  0  0  0  0  0  0  0  0
    2.2548    3.0845   -0.5841 N   0  0  0  0  0  0  0  0  0  0  0  0
    0.1754   -0.9889    0.4300 N   0  0  0  0  0  0  0  0  0  0  0  0
   -0.8452    3.2373    4.5945 Br  0  0  0  0  0  0  0  0  0  0  0  0
    2.5600    5.1260    1.4070 H   0  0  0  0  0  0  0  0  0  0  0  0
    1.2152    5.0638    3.5000 H   0  0  0  0  0  0  0  0  0  0  0  0
   -0.7484    1.4403    2.2463 H   0  0  0  0  0  0  0  0  0  0  0  0
    2.0832    1.5780   -2.1077 H   0  0  0  0  0  0  0  0  0  0  0  0
   -2.0933   -0.2429   -1.1786 H   0  0  0  0  0  0  0  0  0  0  0  0
   -1.9145    1.0900   -0.0159 H   0  0  0  0  0  0  0  0  0  0  0  0
   -1.4689   -0.5279    1.8046 H   0  0  0  0  0  0  0  0  0  0  0  0
   -1.7885   -1.8644    0.6823 H   0  0  0  0  0  0  0  0  0  0  0  0
    0.3094   -0.2375   -1.5785 H   0  0  0  0  0  0  0  0  0  0  0  0
    2.9687    3.6659   -0.9988 H   0  0  0  0  0  0  0  0  0  0  0  0
    0.8054   -0.7475    1.1920 H   0  0  0  0  0  0  0  0  0  0  0  0
  1  2  1  0  0  0  0
  1  7  2  0  0  0  0
  1 15  1  0  0  0  0
  2  8  2  0  0  0  0
  2 16  1  0  0  0  0
  3  5  2  0  0  0  0
  3  8  1  0  0  0  0
  3 17  1  0  0  0  0
  4  6  2  0  0  0  0
  4 12  1  0  0  0  0
  4 18  1  0  0  0  0
  5  6  1  0  0  0  0
  5  7  1  0  0  0  0
  6 11  1  0  0  0  0
  7 12  1  0  0  0  0
  8 14  1  0  0  0  0
  9 10  1  0  0  0  0
  9 11  1  0  0  0  0
  9 19  1  0  0  0  0
  9 20  1  0  0  0  0
 10 13  1  0  0  0  0
 10 21  1  0  0  0  0
 10 22  1  0  0  0  0
 11 13  1  0  0  0  0
 11 23  1  0  0  0  0
 12 24  1  0  0  0  0
 13 25  1  0  0  0  0
M  END
$$$$
