
  -OEChem-05262117483D

 25 27  0     1  0  0  0  0  0999 V2000
   -1.9407    1.6683    4.0349 C   0  0  0  0  0  0  0  0  0  0  0  0
   -2.6801    0.5175    4.3005 C   0  0  0  0  0  0  0  0  0  0  0  0
   -1.5153   -0.7274    2.5334 C   0  0  0  0  0  0  0  0  0  0  0  0
    0.6390    2.0294    1.4991 C   0  0  0  0  0  0  0  0  0  0  0  0
   -0.7596    0.4277    2.2573 C   0  0  0  0  0  0  0  0  0  0  0  0
    0.2821    0.7148    1.2972 C   0  0  0  0  0  0  0  0  0  0  0  0
   -0.9863    1.6120    3.0129 C   0  0  0  0  0  0  0  0  0  0  0  0
   -2.4576   -0.6558    3.5504 C   0  0  0  0  0  0  0  0  0  0  0  0
    1.7679    0.2882   -0.7894 C   0  0  0  0  0  0  0  0  0  0  0  0
    0.5585    0.3244   -1.7555 C   0  0  0  0  0  0  0  0  0  0  0  0
    0.7866   -0.2628    0.2795 C   0  0  2  0  0  0  0  0  0  0  0  0
   -0.1191    2.5740    2.5274 N   0  0  0  0  0  0  0  0  0  0  0  0
   -0.1887   -0.5701   -0.8260 N   0  0  0  0  0  0  0  0  0  0  0  0
   -3.5080   -2.2146    3.9618 Br  0  0  0  0  0  0  0  0  0  0  0  0
   -2.1102    2.5748    4.6105 H   0  0  0  0  0  0  0  0  0  0  0  0
   -3.4296    0.5210    5.0847 H   0  0  0  0  0  0  0  0  0  0  0  0
   -1.3675   -1.6436    1.9706 H   0  0  0  0  0  0  0  0  0  0  0  0
    1.3836    2.6316    0.9969 H   0  0  0  0  0  0  0  0  0  0  0  0
    2.5188   -0.4507   -1.0761 H   0  0  0  0  0  0  0  0  0  0  0  0
    2.2656    1.2357   -0.5749 H   0  0  0  0  0  0  0  0  0  0  0  0
    0.1310    1.3317   -1.8516 H   0  0  0  0  0  0  0  0  0  0  0  0
    0.7042   -0.0981   -2.7550 H   0  0  0  0  0  0  0  0  0  0  0  0
    1.1158   -1.1786    0.7847 H   0  0  0  0  0  0  0  0  0  0  0  0
   -0.0283    3.5151    2.8818 H   0  0  0  0  0  0  0  0  0  0  0  0
   -1.1351   -0.2527   -0.6212 H   0  0  0  0  0  0  0  0  0  0  0  0
  1  2  1  0  0  0  0
  1  7  2  0  0  0  0
  1 15  1  0  0  0  0
  2  8  2  0  0  0  0
  2 16  1  0  0  0  0
  3  5  2  0  0  0  0
  3  8  1  0  0  0  0
  3 17  1  0  0  0  0
  4  6  2  0  0  0  0
  4 12  1  0  0  0  0
  4 18  1  0  0  0  0
  5  6  1  0  0  0  0
  5  7  1  0  0  0  0
  6 11  1  0  0  0  0
  7 12  1  0  0  0  0
  8 14  1  0  0  0  0
  9 10  1  0  0  0  0
  9 11  1  0  0  0  0
  9 19  1  0  0  0  0
  9 20  1  0  0  0  0
 10 13  1  0  0  0  0
 10 21  1  0  0  0  0
 10 22  1  0  0  0  0
 11 13  1  0  0  0  0
 11 23  1  0  0  0  0
 12 24  1  0  0  0  0
 13 25  1  0  0  0  0
M  END
$$$$
