21
0 1 C8ClH9N2O
C                     1.830293550692    -0.384381837249     0.129410567333
C                     0.509453061494    -0.645297407689     0.503273769245
C                     2.885153365110    -0.912316619204     0.876528539075
C                     0.250444169462    -1.432874549133     1.627094222056
C                     2.656216502687    -1.708754769540     2.006862761175
C                     1.319972860827    -1.949291498051     2.360091814320
C                     5.156861864118    -2.092585982025     2.229866123579
C                     3.791400443418    -2.279064903628     2.839439571541
N                     5.936403095069    -1.085037753554     2.426115577404
N                     5.570416124426    -3.062045828783     1.314329175292
O                     5.303536065350    -0.102662019319     3.242085071198
Cl                    0.951513695967    -2.931653775310     3.779556600176
H                     2.040813892577     0.230037154138    -0.741717972312
H                    -0.318789083711    -0.239893095562    -0.071484072840
H                     3.909012428037    -0.703167317263     0.583617274028
H                    -0.767610062886    -1.645956114009     1.937479902868
H                     3.782458242867    -1.806247849367     3.824920872197
H                     3.616869438339    -3.348715882555     2.999487223910
H                     5.335812297963    -4.013402718959     1.576484115802
H                     6.547091074905    -2.965743985067     1.051015595987
H                     6.006486996760     0.558606374638     3.338680634725
