32
0 1 C13H12N6O
C                    -6.492404520802    -0.499001716332     1.351106975558
C                    -5.841815933685    -1.441994182802     0.525713391277
C                    -5.775911822860     0.307638774830     2.232755812157
C                    -4.457056547260    -1.599412210734     0.563970887444
C                    -2.136944293460     0.236209223118     2.665641693862
C                    -4.377581808579     0.169553347273     2.291643609971
C                    -3.331992231665     0.814878848980     3.062277592526
C                    -3.743591594939    -0.786448004279     1.451335065464
C                    -2.113734538666     5.367414094221     7.654138462258
C                    -3.520271456473     5.599620298119     7.684252286284
C                    -3.784025083671     4.011181524076     6.103752027668
C                    -3.420138290375     1.857269422652     4.061850739424
C                    -1.157582752617     6.128042992047     8.526314677528
N                    -1.646685129702     4.447108507834     6.824636383156
N                    -4.356763712522     4.937250241878     6.924208362114
N                    -2.470329148288     3.746410961157     6.029049626035
N                    -4.576615739969     2.349836571648     4.379916247385
N                    -2.378459491801    -0.720299762840     1.703931351015
N                    -4.689950316400     3.339034717780     5.324398554083
O                    -3.999557125332     6.537208357114     8.528874773372
H                    -7.573683137038    -0.403923975923     1.294223992065
H                    -6.429321734152    -2.056312815731    -0.151500567274
H                    -6.271978748840     1.032689527710     2.867934372600
H                    -3.956212055961    -2.325673287146    -0.071751450209
H                    -1.130380144098     0.443487947121     3.005747199809
H                    -2.495947241486     2.199756898102     4.522251941630
H                    -1.390057556284     5.982596466068     9.586751432359
H                    -0.141375745618     5.781323273685     8.330531058402
H                    -1.215429346643     7.204077091701     8.330028678725
H                    -1.671986462713    -1.284478913267     1.254065723109
H                    -5.648934322382     3.625211065090     5.469651115447
H                    -4.968629212196     6.554872117778     8.411307715899
