25
0 1 C9Cl2H8N6
C                     2.518252510716    -2.034912561241     2.404672025635
C                     1.431474764283    -1.312564416920     2.884706665459
C                     2.936250060392    -1.859409288290     1.086520878523
C                    -4.696147844096     4.007587336586     2.436297555491
C                     0.726978238536    -0.396639528820     2.076532539364
C                     2.256313040583    -0.958230992103     0.263490668458
C                     1.155780433247    -0.221066166347     0.735370152997
C                    -3.019751790021     2.606732078071     2.435645355162
C                    -0.393823983261     0.285006431749     2.729850442614
N                    -4.157015270187     4.031204706002     1.248918765638
N                    -3.081296909408     3.137836668561     1.234753882357
N                    -1.164469792927     1.155183701274     2.175752546684
N                    -4.012632030561     3.112925524367     3.246446978402
N                    -4.200573635016     2.733714076556     4.584198844106
N                    -2.145414118682     1.674702099614     2.942200843338
Cl                    2.823943146104    -0.778283868856    -1.380590263771
Cl                    0.352582038754     0.882673053798    -0.335175283586
H                     3.041636125239    -2.733589010814     3.050659633868
H                     1.107763570498    -1.451492686188     3.913128664720
H                     3.781137215462    -2.410347943354     0.686784461788
H                    -5.547525225360     4.584382648518     2.774000205310
H                    -0.547173453375    -0.005822901981     3.779242776923
H                    -5.132389296703     2.336191065216     4.696778591580
H                    -4.113405273538     3.552654434713     5.184801267235
H                    -2.280961765799     1.394747431648     3.915011090937
