25
0 1 C9Cl2H8N6
C                     2.458545641832     0.154109014040     1.247846731985
C                     1.198855130106     0.512219160734     1.712248873744
C                     2.913590671064    -1.159127315060     1.390508341183
C                    -3.194036965826     4.937930329846     2.956925225684
C                     0.360173186384    -0.428191952844     2.339745453288
C                     2.096420172548    -2.110988802165     2.002297062535
C                     0.823961927088    -1.754543240596     2.477754139566
C                    -3.045729898350     2.777685030273     3.096346037224
C                    -0.968739170898    -0.031882731147     2.822213646810
N                    -4.362475005738     4.445421988313     2.630469290250
N                    -4.267089850412     3.055324399773     2.705784447342
N                    -1.301678696644     1.210159355471     2.884856512570
N                    -2.315410921749     3.926319406841     3.275341710429
N                    -1.003416222306     4.101425468795     3.754648985594
N                    -2.552199361075     1.505369249902     3.370284706445
Cl                    2.699092805718    -3.742048196686     2.160462971327
Cl                   -0.174732536928    -2.963349823321     3.256756287110
H                     3.091895143580     0.890900727529     0.762584276412
H                     0.829591398923     1.524038955276     1.585249237783
H                     3.892539316097    -1.455091858527     1.028011886923
H                    -2.909504835611     5.980985867601     2.979766980062
H                    -1.661664093912    -0.820361902773     3.125760844614
H                    -0.411050336626     3.446149922081     3.245224340916
H                    -0.989171861900     3.815299255734     4.734815987069
H                    -3.272156121831     0.784912130926     3.296302784876
