25
0 1 C11FH8NO3S
C                    -0.850046765169     3.971058328985    -0.981135279352
C                     0.501044821916     4.181584280148    -0.675980139551
C                     1.763472338719    -2.909908190356     0.498627312871
C                     3.020612666090    -1.146152022148     1.638857741489
C                     0.574623531617    -2.231245561564     0.766851556148
C                     1.832070543641    -0.465190716346     1.896711709551
C                    -1.452147278397     2.773564046870    -0.603728479291
C                     1.190290910253     3.172548238199    -0.005433559849
C                     2.960568854201    -2.351094886262     0.941100176392
C                     0.627481233405    -1.016751953691     1.455393457787
C                    -0.650348435915     1.834581489506     0.054912354019
N                     0.627579369319     2.006112599561     0.351396919932
O                    -1.972842381642    -1.152120267942     1.874461395374
O                    -0.690359032679     0.827684995687     2.845372590008
O                    -1.256526323054     0.625319126449     0.364968145759
F                     4.114580380327    -3.009069178542     0.686548760967
S                    -0.900912305262    -0.172350276377     1.809347436085
H                    -1.428265336251     4.733278616145    -1.496307349466
H                     1.005542318752     5.103845245122    -0.946589432141
H                     1.771497480456    -3.855934106978    -0.032974238521
H                     3.980317173303    -0.759339335298     1.966276123266
H                    -0.380891807709    -2.641490850316     0.457155657829
H                     1.830465004108     0.480848651960     2.424840715418
H                    -2.496599806947     2.554698278742    -0.797628079378
H                     2.239715270367     3.294173312279     0.256378918338
