
  -OEChem-05262117483D

 25 26  0     0  0  0  0  0  0999 V2000
    2.5814   -0.4523    0.1442 C   0  0  0  0  0  0  0  0  0  0  0  0
    1.4106   -0.0640    0.7832 C   0  0  0  0  0  0  0  0  0  0  0  0
    3.2403   -1.6225    0.5319 C   0  0  0  0  0  0  0  0  0  0  0  0
   -4.3620    0.4080    5.2695 C   0  0  0  0  0  0  0  0  0  0  0  0
    0.8603   -0.8307    1.8282 C   0  0  0  0  0  0  0  0  0  0  0  0
    2.7137   -2.3981    1.5650 C   0  0  0  0  0  0  0  0  0  0  0  0
    1.5300   -2.0123    2.2159 C   0  0  0  0  0  0  0  0  0  0  0  0
   -2.7951    0.5633    3.7505 C   0  0  0  0  0  0  0  0  0  0  0  0
   -0.3802   -0.4093    2.4975 C   0  0  0  0  0  0  0  0  0  0  0  0
   -3.5719   -0.6189    5.4151 N   0  0  0  0  0  0  0  0  0  0  0  0
   -2.5655   -0.5328    4.4492 N   0  0  0  0  0  0  0  0  0  0  0  0
   -0.9579    0.6775    2.0984 N   0  0  0  0  0  0  0  0  0  0  0  0
   -3.9231    1.2038    4.2235 N   0  0  0  0  0  0  0  0  0  0  0  0
   -4.4199    2.4004    3.6887 N   0  0  0  0  0  0  0  0  0  0  0  0
   -2.1077    1.0980    2.6894 N   0  0  0  0  0  0  0  0  0  0  0  0
    3.5669   -3.8557    2.0214 Cl  0  0  0  0  0  0  0  0  0  0  0  0
    0.8920   -3.0041    3.5076 Cl  0  0  0  0  0  0  0  0  0  0  0  0
    2.9918    0.1515   -0.6602 H   0  0  0  0  0  0  0  0  0  0  0  0
    0.8904    0.8418    0.4916 H   0  0  0  0  0  0  0  0  0  0  0  0
    4.1558   -1.9395    0.0431 H   0  0  0  0  0  0  0  0  0  0  0  0
   -5.2398    0.6354    5.8604 H   0  0  0  0  0  0  0  0  0  0  0  0
   -0.7764   -1.0177    3.3055 H   0  0  0  0  0  0  0  0  0  0  0  0
   -4.4327    3.1186    4.4115 H   0  0  0  0  0  0  0  0  0  0  0  0
   -5.3673    2.2533    3.3432 H   0  0  0  0  0  0  0  0  0  0  0  0
   -2.4667    1.9713    2.3245 H   0  0  0  0  0  0  0  0  0  0  0  0
  1  2  1  0  0  0  0
  1  3  2  0  0  0  0
  1 18  1  0  0  0  0
  2  5  2  0  0  0  0
  2 19  1  0  0  0  0
  3  6  1  0  0  0  0
  3 20  1  0  0  0  0
  4 10  2  0  0  0  0
  4 13  1  0  0  0  0
  4 21  1  0  0  0  0
  5  7  1  0  0  0  0
  5  9  1  0  0  0  0
  6  7  2  0  0  0  0
  6 16  1  0  0  0  0
  7 17  1  0  0  0  0
  8 11  2  0  0  0  0
  8 13  1  0  0  0  0
  8 15  1  0  0  0  0
  9 12  2  0  0  0  0
  9 22  1  0  0  0  0
 10 11  1  0  0  0  0
 12 15  1  0  0  0  0
 13 14  1  0  0  0  0
 14 23  1  0  0  0  0
 14 24  1  0  0  0  0
 15 25  1  0  0  0  0
M  END
$$$$
