25
0 1 C11FH8NO3S
C                     0.430474325904     1.962985556492    -3.597334189552
C                     0.255412376163     0.762877239500    -2.895989813695
C                     4.284932017881     0.539254512213     1.983970777295
C                     6.221008373450     1.805352185187     1.184069146241
C                     3.434615017786     1.529930073491     1.495754830248
C                     5.368214792258     2.800042778007     0.705301658290
C                     1.271737908274     2.939741778007    -3.070785455006
C                     0.940096618270     0.596384748466    -1.693316416010
C                     5.659136996589     0.696353954297     1.812962748329
C                     3.988725894433     2.644280280980     0.862336868844
C                     1.911127449288     2.648413827050    -1.860570070252
N                     1.766770732024     1.522711969335    -1.180499734828
O                     1.591647090803     3.795412982536     0.856552464505
O                     3.644101913621     5.189827159544     0.264884976324
O                     2.791787809316     3.611439117055    -1.388542807686
F                     6.483548830142    -0.267756662293     2.282320015529
S                     2.913686737895     3.932955738864     0.264098253856
H                    -0.089101017196     2.138968327498    -4.535307399597
H                    -0.396795233922    -0.020736941439    -3.268664044375
H                     3.901095788795    -0.342191929978     2.487533884764
H                     7.298833129408     1.883112442623     1.084685332116
H                     2.359007614884     1.445235345592     1.594699877089
H                     5.765649325169     3.689095243000     0.226924893625
H                     1.438992673788     3.894799865889    -3.556857117786
H                     0.830754646851    -0.317454154821    -1.112301714880
