21
0 1 C9ClH8NO2
C                     1.654856620687    -2.011351427487     1.808841463295
C                     0.421240448167    -2.227514788144     1.195030930449
C                     1.725602369608    -1.235852131448     2.966950366229
C                    -0.727956242689    -1.663843875386     1.767357118583
C                     0.520637735144    -0.711642307255     3.439277942154
C                    -2.497066800543    -3.040932033793     0.443363765105
C                    -3.261056164161    -1.037580781461     1.767949876435
C                    -2.662095127029    -0.496293233906     0.518336041823
C                    -2.079995607325    -1.783261216852     1.128668292863
N                    -0.657890359482    -0.908177268060     2.878702747829
O                    -3.469296884707    -3.140524454866    -0.284816970432
O                    -1.719508513019    -4.117242686749     0.742941313604
Cl                    0.545123748951     0.290204094981     4.890133668317
H                     2.559856052595    -2.440144255762     1.386697508542
H                     0.349739346404    -2.826055335773     0.294966901548
H                     2.661621169460    -1.039753503712     3.477732657375
H                    -3.031136725494    -0.550192774494     2.707639160548
H                    -4.221749925835    -1.534493888260     1.693106031026
H                    -3.204978138582    -0.619706625327    -0.412488772579
H                    -2.020794488976     0.375767472563     0.595120512359
H                    -2.126963947766    -4.871948562266     0.275455624488
