31
0 1 C13H11N5O2
C                     0.870917921824     4.031441713891    -6.222816381475
C                    -0.396625082282     3.663037011950    -5.759911869432
C                     2.006039340268     3.712588070560    -5.467584461477
C                    -0.537372488172     3.008263151690    -4.536395012226
C                     1.876762136175     3.026048416733    -4.261022579687
C                    -4.039857097361     3.696999060278     1.321376392251
C                     0.602002112726     2.705568389579    -3.774193965949
C                    -1.046854305155     3.334354452275    -1.519325483900
C                    -3.455222898195     2.471254091843     1.192690294978
C                    -2.025933185991     3.302362038567    -0.534353489850
C                    -3.648508795596     4.844749837907     0.510043628553
C                    -0.959102414674     4.744894971396    -1.955179245408
C                    -3.818361609544     1.269555592040     2.014281804501
N                     0.522014940001     1.912719473635    -2.594218905034
N                    -0.283032918260     2.170222295575    -1.655887923570
N                    -2.460943597778     2.279631070326     0.250924572409
N                    -2.083149535251     5.381303307926    -1.337973691499
N                    -2.624659173190     4.516190169056    -0.394739279915
O                    -4.087342708525     5.987380905399     0.565138770964
O                    -0.157947776653     5.350835342635    -2.647103319688
H                     0.974726482947     4.552791816812    -7.170668806157
H                    -1.279831112783     3.891579124048    -6.350939899872
H                     2.993991199984     3.987428526541    -5.827988850676
H                    -1.521296039289     2.716535693105    -4.180353789672
H                     2.748570938417     2.747465804730    -3.675763565113
H                    -4.823387514840     3.862320820818     2.049858742923
H                    -4.166646993935     0.452594991665     1.372741607926
H                    -4.610179328441     1.514469923152     2.722581622114
H                    -2.950092807046     0.908184988756     2.576532728424
H                    -1.963823127598     1.399359793134     0.148767398732
H                    -2.033199185977     6.352923388352    -1.042680636869
