
  -OEChem-05262117483D

 40 43  0     0  0  0  0  0  0999 V2000
    0.7808   -1.2143    2.1113 C   0  0  0  0  0  0  0  0  0  0  0  0
   -0.0659   -1.1578    0.9973 C   0  0  0  0  0  0  0  0  0  0  0  0
    1.5839   -2.3369    2.3108 C   0  0  0  0  0  0  0  0  0  0  0  0
   -0.0926   -2.2237    0.0989 C   0  0  0  0  0  0  0  0  0  0  0  0
    0.9799   -7.4663   -6.1463 C   0  0  0  0  0  0  0  0  0  0  0  0
    0.8537   -6.7862   -4.9371 C   0  0  0  0  0  0  0  0  0  0  0  0
    2.3979   -8.3064   -3.7840 C   0  0  0  0  0  0  0  0  0  0  0  0
    1.5671   -3.4116    1.4090 C   0  0  0  0  0  0  0  0  0  0  0  0
    0.7218   -3.3487    0.2922 C   0  0  0  0  0  0  0  0  0  0  0  0
    1.8254   -8.5786   -6.1775 C   0  0  0  0  0  0  0  0  0  0  0  0
    1.5462   -7.1883   -3.7661 C   0  0  0  0  0  0  0  0  0  0  0  0
    2.4976   -8.9546   -5.0067 C   0  0  0  0  0  0  0  0  0  0  0  0
    2.9945  -10.3042   -6.6503 C   0  0  0  0  0  0  0  0  0  0  0  0
    1.8361   -6.5920   -1.3389 C   0  0  0  0  0  0  0  0  0  0  0  0
    2.4204   -4.6388    1.6315 C   0  0  0  0  0  0  0  0  0  0  0  0
    0.6694   -4.4555   -0.7475 C   0  0  0  0  0  0  0  0  0  0  0  0
    1.7738   -5.8625    0.9902 C   0  0  0  0  0  0  0  0  0  0  0  0
    3.6874  -11.4682   -7.2637 C   0  0  0  0  0  0  0  0  0  0  0  0
    2.1719   -9.4684   -7.2039 N   0  0  0  0  0  0  0  0  0  0  0  0
    1.5136   -5.6003   -0.4257 N   0  0  0  0  0  0  0  0  0  0  0  0
    1.3301   -6.3972   -2.6170 N   0  0  0  0  0  0  0  0  0  0  0  0
    2.5289   -7.5656   -1.0357 O   0  0  0  0  0  0  0  0  0  0  0  0
    3.2527  -10.0680   -5.3081 O   0  0  0  0  0  0  0  0  0  0  0  0
    0.8068   -0.3918    2.8212 H   0  0  0  0  0  0  0  0  0  0  0  0
   -0.7017   -0.2918    0.8339 H   0  0  0  0  0  0  0  0  0  0  0  0
    2.2335   -2.3896    3.1821 H   0  0  0  0  0  0  0  0  0  0  0  0
   -0.7530   -2.1824   -0.7659 H   0  0  0  0  0  0  0  0  0  0  0  0
    0.4411   -7.1434   -7.0317 H   0  0  0  0  0  0  0  0  0  0  0  0
    0.2026   -5.9154   -4.8875 H   0  0  0  0  0  0  0  0  0  0  0  0
    2.9242   -8.6273   -2.8966 H   0  0  0  0  0  0  0  0  0  0  0  0
    3.4165   -4.4938    1.1952 H   0  0  0  0  0  0  0  0  0  0  0  0
    2.5590   -4.8122    2.7041 H   0  0  0  0  0  0  0  0  0  0  0  0
   -0.3817   -4.7607   -0.8840 H   0  0  0  0  0  0  0  0  0  0  0  0
    1.0100   -4.0176   -1.6936 H   0  0  0  0  0  0  0  0  0  0  0  0
    2.4222   -6.7348    1.0440 H   0  0  0  0  0  0  0  0  0  0  0  0
    0.8311   -6.1005    1.5044 H   0  0  0  0  0  0  0  0  0  0  0  0
    4.7739  -11.3532   -7.1916 H   0  0  0  0  0  0  0  0  0  0  0  0
    3.4168  -12.3951   -6.7476 H   0  0  0  0  0  0  0  0  0  0  0  0
    3.4004  -11.5415   -8.3130 H   0  0  0  0  0  0  0  0  0  0  0  0
    0.6807   -5.6383   -2.7574 H   0  0  0  0  0  0  0  0  0  0  0  0
  1  2  1  0  0  0  0
  1  3  2  0  0  0  0
  1 24  1  0  0  0  0
  2  4  2  0  0  0  0
  2 25  1  0  0  0  0
  3  8  1  0  0  0  0
  3 26  1  0  0  0  0
  4  9  1  0  0  0  0
  4 27  1  0  0  0  0
  5  6  2  0  0  0  0
  5 10  1  0  0  0  0
  5 28  1  0  0  0  0
  6 11  1  0  0  0  0
  6 29  1  0  0  0  0
  7 11  2  0  0  0  0
  7 12  1  0  0  0  0
  7 30  1  0  0  0  0
  8  9  2  0  0  0  0
  8 15  1  0  0  0  0
  9 16  1  0  0  0  0
 10 12  2  0  0  0  0
 10 19  1  0  0  0  0
 11 21  1  0  0  0  0
 12 23  1  0  0  0  0
 13 18  1  0  0  0  0
 13 19  2  0  0  0  0
 13 23  1  0  0  0  0
 14 20  1  0  0  0  0
 14 21  1  0  0  0  0
 14 22  2  0  0  0  0
 15 17  1  0  0  0  0
 15 31  1  0  0  0  0
 15 32  1  0  0  0  0
 16 20  1  0  0  0  0
 16 33  1  0  0  0  0
 16 34  1  0  0  0  0
 17 20  1  0  0  0  0
 17 35  1  0  0  0  0
 17 36  1  0  0  0  0
 18 37  1  0  0  0  0
 18 38  1  0  0  0  0
 18 39  1  0  0  0  0
 21 40  1  0  0  0  0
M  END
$$$$
