40
0 1 C18H17N3O2
C                     2.296679577814    -1.476779567369    -0.056105331123
C                     1.001205256419    -1.126743998146     0.343976384325
C                     3.071467622640    -2.297743054670     0.763013317420
C                     0.502300797567    -1.600987841170     1.556777614686
C                     1.022888514880    -4.806596383272    10.176621062135
C                     1.041560336963    -4.475435004081     8.820688397882
C                     3.471897192727    -4.803599345805     8.707944960021
C                     2.576155927791    -2.778032985456     1.984580558779
C                     1.278942915294    -2.422536397379     2.386668014608
C                     2.226611419144    -5.136120932682    10.803326659335
C                     2.251734075470    -4.473297599117     8.085663194342
C                     3.410548742050    -5.123789145718    10.054102461751
C                     3.818243883490    -5.688884831073    12.122929127865
C                     1.310786603747    -3.665716140915     5.891266797882
C                     3.430227429612    -3.666964469955     2.864389705513
C                     0.673580347359    -2.917853754424     3.685761368364
C                     2.566172507577    -4.453972518351     3.847141346071
C                     4.699699935539    -6.091678759646    13.250624480801
N                     2.536429017638    -5.503135327338    12.121905593304
N                     1.674756059814    -3.532739167895     4.555963556843
N                     2.313383590937    -4.177380501679     6.706541990009
O                     0.208481840142    -3.311691898467     6.306681454760
O                     4.441000770927    -5.479125022676    10.896188348463
H                     2.696018709465    -1.114491524262    -0.999827913975
H                     0.386867954118    -0.487602741787    -0.284769905411
H                     4.076529501403    -2.576930833731     0.452131718184
H                    -0.503497616497    -1.327548328937     1.870332310267
H                     0.089357943315    -4.803057844057    10.731266640602
H                     0.127834741101    -4.199201166295     8.314606428058
H                     4.411852563016    -4.809330387914     8.162020020898
H                     4.014565749924    -4.359102569958     2.247631782606
H                     4.145482175679    -3.053743403480     3.427651357908
H                     0.214753547899    -2.091230325263     4.229412480639
H                    -0.134848312974    -3.633775311402     3.468931704806
H                     1.961271710260    -5.195377170129     3.302476541932
H                     3.184310693986    -5.014012529305     4.548823516909
H                     5.217644534396    -7.028897452948    13.021947222134
H                     5.461577628081    -5.328015109894    13.438502748036
H                     4.092756926947    -6.223981851947    14.146553349641
H                     3.248035658349    -4.166887817192     6.324033863428
