
  -OEChem-05262117483D

 40 43  0     0  0  0  0  0  0999 V2000
    1.1630   -0.7761   -1.6780 C   0  0  0  0  0  0  0  0  0  0  0  0
    0.1020   -1.1454   -2.5118 C   0  0  0  0  0  0  0  0  0  0  0  0
    1.6922   -1.7032   -0.7784 C   0  0  0  0  0  0  0  0  0  0  0  0
   -0.4148   -2.4386   -2.4335 C   0  0  0  0  0  0  0  0  0  0  0  0
    2.6201   -3.3485   -4.1217 C   0  0  0  0  0  0  0  0  0  0  0  0
    2.3849   -4.5588   -3.4688 C   0  0  0  0  0  0  0  0  0  0  0  0
    0.4768   -5.0896   -4.9083 C   0  0  0  0  0  0  0  0  0  0  0  0
    1.1861   -3.0079   -0.6980 C   0  0  0  0  0  0  0  0  0  0  0  0
    0.1225   -3.3726   -1.5410 C   0  0  0  0  0  0  0  0  0  0  0  0
    1.7732   -3.0121   -5.1792 C   0  0  0  0  0  0  0  0  0  0  0  0
    1.3237   -5.4123   -3.8389 C   0  0  0  0  0  0  0  0  0  0  0  0
    0.7417   -3.8884   -5.5491 C   0  0  0  0  0  0  0  0  0  0  0  0
    0.7173   -2.1018   -6.8027 C   0  0  0  0  0  0  0  0  0  0  0  0
    1.2745   -6.6417   -1.7017 C   0  0  0  0  0  0  0  0  0  0  0  0
    1.8404   -4.0180    0.2308 C   0  0  0  0  0  0  0  0  0  0  0  0
   -0.4215   -4.7881   -1.5003 C   0  0  0  0  0  0  0  0  0  0  0  0
    1.0480   -5.3284    0.3499 C   0  0  0  0  0  0  0  0  0  0  0  0
    0.1905   -1.2380   -7.8921 C   0  0  0  0  0  0  0  0  0  0  0  0
    1.7185   -1.8829   -6.0087 N   0  0  0  0  0  0  0  0  0  0  0  0
    0.5608   -5.7229   -0.9690 N   0  0  0  0  0  0  0  0  0  0  0  0
    1.0656   -6.6212   -3.0994 N   0  0  0  0  0  0  0  0  0  0  0  0
    2.0160   -7.4781   -1.1825 O   0  0  0  0  0  0  0  0  0  0  0  0
    0.0587   -3.3063   -6.5957 O   0  0  0  0  0  0  0  0  0  0  0  0
    1.5800    0.2260   -1.7351 H   0  0  0  0  0  0  0  0  0  0  0  0
   -0.3041   -0.4371   -3.2289 H   0  0  0  0  0  0  0  0  0  0  0  0
    2.5221   -1.4161   -0.1349 H   0  0  0  0  0  0  0  0  0  0  0  0
   -1.2255   -2.7383   -3.0947 H   0  0  0  0  0  0  0  0  0  0  0  0
    3.4193   -2.6840   -3.8103 H   0  0  0  0  0  0  0  0  0  0  0  0
    3.0235   -4.8562   -2.6430 H   0  0  0  0  0  0  0  0  0  0  0  0
   -0.3520   -5.7350   -5.1806 H   0  0  0  0  0  0  0  0  0  0  0  0
    2.8426   -4.2498   -0.1519 H   0  0  0  0  0  0  0  0  0  0  0  0
    1.9841   -3.5785    1.2249 H   0  0  0  0  0  0  0  0  0  0  0  0
   -1.3033   -4.8282   -0.8444 H   0  0  0  0  0  0  0  0  0  0  0  0
   -0.7509   -5.1109   -2.4850 H   0  0  0  0  0  0  0  0  0  0  0  0
    1.6614   -6.1332    0.7531 H   0  0  0  0  0  0  0  0  0  0  0  0
    0.1793   -5.1948    1.0055 H   0  0  0  0  0  0  0  0  0  0  0  0
    0.2322   -1.7606   -8.8531 H   0  0  0  0  0  0  0  0  0  0  0  0
   -0.8549   -0.9728   -7.7036 H   0  0  0  0  0  0  0  0  0  0  0  0
    0.7902   -0.3294   -7.9483 H   0  0  0  0  0  0  0  0  0  0  0  0
    1.5248   -7.4369   -3.4958 H   0  0  0  0  0  0  0  0  0  0  0  0
  1  2  1  0  0  0  0
  1  3  2  0  0  0  0
  1 24  1  0  0  0  0
  2  4  2  0  0  0  0
  2 25  1  0  0  0  0
  3  8  1  0  0  0  0
  3 26  1  0  0  0  0
  4  9  1  0  0  0  0
  4 27  1  0  0  0  0
  5  6  2  0  0  0  0
  5 10  1  0  0  0  0
  5 28  1  0  0  0  0
  6 11  1  0  0  0  0
  6 29  1  0  0  0  0
  7 11  2  0  0  0  0
  7 12  1  0  0  0  0
  7 30  1  0  0  0  0
  8  9  2  0  0  0  0
  8 15  1  0  0  0  0
  9 16  1  0  0  0  0
 10 12  2  0  0  0  0
 10 19  1  0  0  0  0
 11 21  1  0  0  0  0
 12 23  1  0  0  0  0
 13 18  1  0  0  0  0
 13 19  2  0  0  0  0
 13 23  1  0  0  0  0
 14 20  1  0  0  0  0
 14 21  1  0  0  0  0
 14 22  2  0  0  0  0
 15 17  1  0  0  0  0
 15 31  1  0  0  0  0
 15 32  1  0  0  0  0
 16 20  1  0  0  0  0
 16 33  1  0  0  0  0
 16 34  1  0  0  0  0
 17 20  1  0  0  0  0
 17 35  1  0  0  0  0
 17 36  1  0  0  0  0
 18 37  1  0  0  0  0
 18 38  1  0  0  0  0
 18 39  1  0  0  0  0
 21 40  1  0  0  0  0
M  END
$$$$
