
  -OEChem-05262117483D

 40 43  0     0  0  0  0  0  0999 V2000
    1.7622   -0.5500    0.3929 C   0  0  0  0  0  0  0  0  0  0  0  0
    0.3670   -0.4721    0.4775 C   0  0  0  0  0  0  0  0  0  0  0  0
    2.4461   -1.5041    1.1469 C   0  0  0  0  0  0  0  0  0  0  0  0
   -0.3229   -1.3490    1.3149 C   0  0  0  0  0  0  0  0  0  0  0  0
    1.1244   -2.4939    9.5191 C   0  0  0  0  0  0  0  0  0  0  0  0
    0.8549   -2.7343    8.1704 C   0  0  0  0  0  0  0  0  0  0  0  0
    2.6452   -4.4095    8.0468 C   0  0  0  0  0  0  0  0  0  0  0  0
    1.7597   -2.3898    1.9904 C   0  0  0  0  0  0  0  0  0  0  0  0
    0.3593   -2.3077    2.0760 C   0  0  0  0  0  0  0  0  0  0  0  0
    2.1530   -3.2087   10.1361 C   0  0  0  0  0  0  0  0  0  0  0  0
    1.6048   -3.6827    7.4338 C   0  0  0  0  0  0  0  0  0  0  0  0
    2.8800   -4.1417    9.3850 C   0  0  0  0  0  0  0  0  0  0  0  0
    3.6144   -4.0724   11.4396 C   0  0  0  0  0  0  0  0  0  0  0  0
    0.3954   -3.4462    5.2342 C   0  0  0  0  0  0  0  0  0  0  0  0
    2.5269   -3.4138    2.8077 C   0  0  0  0  0  0  0  0  0  0  0  0
   -0.4354   -3.2550    2.9621 C   0  0  0  0  0  0  0  0  0  0  0  0
    1.5936   -4.5250    3.2943 C   0  0  0  0  0  0  0  0  0  0  0  0
    4.5058   -4.4848   12.5560 C   0  0  0  0  0  0  0  0  0  0  0  0
    2.6582   -3.1988   11.4454 N   0  0  0  0  0  0  0  0  0  0  0  0
    0.4062   -3.9542    3.9339 N   0  0  0  0  0  0  0  0  0  0  0  0
    1.3836   -3.9525    6.0649 N   0  0  0  0  0  0  0  0  0  0  0  0
   -0.4538   -2.6406    5.6137 O   0  0  0  0  0  0  0  0  0  0  0  0
    3.8239   -4.7028   10.2168 O   0  0  0  0  0  0  0  0  0  0  0  0
    2.3111    0.1282   -0.2552 H   0  0  0  0  0  0  0  0  0  0  0  0
   -0.1767    0.2705   -0.1006 H   0  0  0  0  0  0  0  0  0  0  0  0
    3.5308   -1.5680    1.0809 H   0  0  0  0  0  0  0  0  0  0  0  0
   -1.4069   -1.2845    1.3894 H   0  0  0  0  0  0  0  0  0  0  0  0
    0.5424   -1.7647   10.0747 H   0  0  0  0  0  0  0  0  0  0  0  0
    0.0627   -2.1997    7.6671 H   0  0  0  0  0  0  0  0  0  0  0  0
    3.2334   -5.1424    7.5002 H   0  0  0  0  0  0  0  0  0  0  0  0
    3.3414   -3.8403    2.2107 H   0  0  0  0  0  0  0  0  0  0  0  0
    2.9894   -2.9247    3.6748 H   0  0  0  0  0  0  0  0  0  0  0  0
   -1.2010   -2.7102    3.5125 H   0  0  0  0  0  0  0  0  0  0  0  0
   -0.9396   -4.0073    2.3410 H   0  0  0  0  0  0  0  0  0  0  0  0
    1.2412   -5.1168    2.4423 H   0  0  0  0  0  0  0  0  0  0  0  0
    2.1092   -5.2333    3.9476 H   0  0  0  0  0  0  0  0  0  0  0  0
    4.3998   -5.5551   12.7612 H   0  0  0  0  0  0  0  0  0  0  0  0
    5.5546   -4.2968   12.3040 H   0  0  0  0  0  0  0  0  0  0  0  0
    4.2420   -3.9183   13.4494 H   0  0  0  0  0  0  0  0  0  0  0  0
    1.9823   -4.6700    5.6862 H   0  0  0  0  0  0  0  0  0  0  0  0
  1  2  1  0  0  0  0
  1  3  2  0  0  0  0
  1 24  1  0  0  0  0
  2  4  2  0  0  0  0
  2 25  1  0  0  0  0
  3  8  1  0  0  0  0
  3 26  1  0  0  0  0
  4  9  1  0  0  0  0
  4 27  1  0  0  0  0
  5  6  2  0  0  0  0
  5 10  1  0  0  0  0
  5 28  1  0  0  0  0
  6 11  1  0  0  0  0
  6 29  1  0  0  0  0
  7 11  2  0  0  0  0
  7 12  1  0  0  0  0
  7 30  1  0  0  0  0
  8  9  2  0  0  0  0
  8 15  1  0  0  0  0
  9 16  1  0  0  0  0
 10 12  2  0  0  0  0
 10 19  1  0  0  0  0
 11 21  1  0  0  0  0
 12 23  1  0  0  0  0
 13 18  1  0  0  0  0
 13 19  2  0  0  0  0
 13 23  1  0  0  0  0
 14 20  1  0  0  0  0
 14 21  1  0  0  0  0
 14 22  2  0  0  0  0
 15 17  1  0  0  0  0
 15 31  1  0  0  0  0
 15 32  1  0  0  0  0
 16 20  1  0  0  0  0
 16 33  1  0  0  0  0
 16 34  1  0  0  0  0
 17 20  1  0  0  0  0
 17 35  1  0  0  0  0
 17 36  1  0  0  0  0
 18 37  1  0  0  0  0
 18 38  1  0  0  0  0
 18 39  1  0  0  0  0
 21 40  1  0  0  0  0
M  END
$$$$
