
  -OEChem-05262117483D

 28 30  0     0  0  0  0  0  0999 V2000
   -0.7174    1.9223   -0.6919 C   0  0  0  0  0  0  0  0  0  0  0  0
   -0.8730    0.6991   -0.0045 C   0  0  0  0  0  0  0  0  0  0  0  0
   -1.8196    2.6027   -1.1911 C   0  0  0  0  0  0  0  0  0  0  0  0
   -2.1336    0.1427    0.1907 C   0  0  0  0  0  0  0  0  0  0  0  0
  -11.5649    3.3721   -2.3348 C   0  0  0  0  0  0  0  0  0  0  0  0
  -10.7135    3.6042   -3.4182 C   0  0  0  0  0  0  0  0  0  0  0  0
   -9.6374    2.7962   -0.9713 C   0  0  0  0  0  0  0  0  0  0  0  0
   -3.1058    2.0574   -1.0043 C   0  0  0  0  0  0  0  0  0  0  0  0
   -8.7720    3.0253   -2.0585 C   0  0  0  0  0  0  0  0  0  0  0  0
   -3.2468    0.8278   -0.3131 C   0  0  0  0  0  0  0  0  0  0  0  0
  -11.0112    2.9717   -1.1182 C   0  0  0  0  0  0  0  0  0  0  0  0
   -9.3358    3.4443   -3.2823 C   0  0  0  0  0  0  0  0  0  0  0  0
   -4.3811    2.5735   -1.4253 C   0  0  0  0  0  0  0  0  0  0  0  0
   -5.4502    1.7775   -1.0758 C   0  0  0  0  0  0  0  0  0  0  0  0
   -6.8748    1.9257   -1.3090 C   0  0  0  0  0  0  0  0  0  0  0  0
   -7.3841    2.9211   -1.9406 N   0  0  0  0  0  0  0  0  0  0  0  0
   -4.9196    0.3373   -0.2000 S   0  0  0  0  0  0  0  0  0  0  0  0
  -12.0625    2.6959    0.2616 Cl  0  0  0  0  0  0  0  0  0  0  0  0
   -8.2998    3.7282   -4.6609 Cl  0  0  0  0  0  0  0  0  0  0  0  0
   -4.5020    4.0643   -2.2943 Cl  0  0  0  0  0  0  0  0  0  0  0  0
    0.2785    2.3336   -0.8304 H   0  0  0  0  0  0  0  0  0  0  0  0
    0.0033    0.1829    0.3779 H   0  0  0  0  0  0  0  0  0  0  0  0
   -1.7056    3.5437   -1.7205 H   0  0  0  0  0  0  0  0  0  0  0  0
   -2.2501   -0.7991    0.7195 H   0  0  0  0  0  0  0  0  0  0  0  0
  -12.6362    3.5104   -2.4349 H   0  0  0  0  0  0  0  0  0  0  0  0
  -11.1231    3.9140   -4.3743 H   0  0  0  0  0  0  0  0  0  0  0  0
   -9.2234    2.5253   -0.0055 H   0  0  0  0  0  0  0  0  0  0  0  0
   -7.5015    1.1091   -0.9198 H   0  0  0  0  0  0  0  0  0  0  0  0
  1  2  1  0  0  0  0
  1  3  2  0  0  0  0
  1 21  1  0  0  0  0
  2  4  2  0  0  0  0
  2 22  1  0  0  0  0
  3  8  1  0  0  0  0
  3 23  1  0  0  0  0
  4 10  1  0  0  0  0
  4 24  1  0  0  0  0
  5  6  2  0  0  0  0
  5 11  1  0  0  0  0
  5 25  1  0  0  0  0
  6 12  1  0  0  0  0
  6 26  1  0  0  0  0
  7  9  1  0  0  0  0
  7 11  2  0  0  0  0
  7 27  1  0  0  0  0
  8 10  2  0  0  0  0
  8 13  1  0  0  0  0
  9 12  2  0  0  0  0
  9 16  1  0  0  0  0
 10 17  1  0  0  0  0
 11 18  1  0  0  0  0
 12 19  1  0  0  0  0
 13 14  2  0  0  0  0
 13 20  1  0  0  0  0
 14 15  1  0  0  0  0
 14 17  1  0  0  0  0
 15 16  2  0  0  0  0
 15 28  1  0  0  0  0
M  END
$$$$
