45
0 1 C14H21N5O4S
C                     1.982815144227    -2.141496159408    -6.251357300327
C                     0.965574103791    -0.612654751608    -4.981566451974
C                     1.611111117629    -1.845593492631    -4.913505002081
C                     2.702852451046    -3.657221539616    -3.676865777742
C                     3.919932222033    -3.272685050328    -0.268565366781
C                     2.801255419336    -4.260448147241    -2.271081937315
C                     2.929369206164    -0.731799566810    -1.643575986043
C                     2.561930713016     0.240649464424    -0.511878285942
C                     1.113897088918    -2.287731011261    -2.509184508867
C                     1.279359991604    -1.691341304405    -0.078981757192
C                     2.096774922366    -2.022376226118    -1.361905503305
C                     4.778493882447    -4.522921456637    -0.170932208455
C                     0.481219017798     0.979662769679    -6.874629786289
C                    -0.301821545628     1.975101825454     0.316559787125
N                     1.591840335737    -1.166421059806    -7.078772706685
N                     0.972484729529    -0.257824635769    -6.296123300469
N                     1.828749744973    -2.607052325535    -3.743763439946
N                     2.929641467839    -3.236934345985    -1.222116664890
N                     1.241620147169    -0.214704138623     0.006180567566
O                     3.347261126777    -4.110514881154    -4.619107431711
O                     4.104804947924    -2.322231571486     0.498504623135
O                    -1.254004767186    -0.366451699361    -0.533313783634
O                     0.211053747221     1.000648879499    -2.088807947789
S                    -0.103876502185     0.524603849545    -0.725155921559
H                     2.512268098558    -3.005598220548    -6.621186303898
H                     0.527198982212     0.021444033320    -4.222297592497
H                     1.922187057196    -4.894622636261    -2.090097547359
H                     3.673324613808    -4.905126216506    -2.284734984523
H                     2.657675708846    -0.315585899970    -2.615033863070
H                     3.997500689773    -0.942937490250    -1.649068988367
H                     3.266890681582     0.152825563509     0.316174911248
H                     2.513985103979     1.280193244624    -0.839103650332
H                     0.433424615856    -3.106506821764    -2.245933282513
H                     0.498159133918    -1.408947182415    -2.666953524167
H                     0.267360599609    -2.096312230980    -0.095136722501
H                     1.797841954043    -2.049525186652     0.808398735362
H                     5.460434827560    -4.600937920511    -1.024333300960
H                     4.182288826687    -5.439012755094    -0.129603415384
H                     5.372195189152    -4.437144894723     0.738965647555
H                     1.310037241190     1.661458111682    -7.089821577587
H                    -0.047408234872     0.754557197887    -7.802767777488
H                    -0.204094738811     1.454328160560    -6.170119549559
H                    -1.123950498110     2.554048189830    -0.107440627118
H                    -0.534631741811     1.636075814558     1.325396117595
H                     0.622227101673     2.553721391152     0.297932886896
