
  -OEChem-05262117483D

 40 43  0     0  0  0  0  0  0999 V2000
    2.2967   -1.4768   -0.0561 C   0  0  0  0  0  0  0  0  0  0  0  0
    1.0012   -1.1267    0.3440 C   0  0  0  0  0  0  0  0  0  0  0  0
    3.0715   -2.2977    0.7630 C   0  0  0  0  0  0  0  0  0  0  0  0
    0.5023   -1.6010    1.5568 C   0  0  0  0  0  0  0  0  0  0  0  0
    1.0229   -4.8066   10.1766 C   0  0  0  0  0  0  0  0  0  0  0  0
    1.0416   -4.4754    8.8207 C   0  0  0  0  0  0  0  0  0  0  0  0
    3.4719   -4.8036    8.7079 C   0  0  0  0  0  0  0  0  0  0  0  0
    2.5762   -2.7780    1.9846 C   0  0  0  0  0  0  0  0  0  0  0  0
    1.2789   -2.4225    2.3867 C   0  0  0  0  0  0  0  0  0  0  0  0
    2.2266   -5.1361   10.8033 C   0  0  0  0  0  0  0  0  0  0  0  0
    2.2517   -4.4733    8.0857 C   0  0  0  0  0  0  0  0  0  0  0  0
    3.4105   -5.1238   10.0541 C   0  0  0  0  0  0  0  0  0  0  0  0
    3.8182   -5.6889   12.1229 C   0  0  0  0  0  0  0  0  0  0  0  0
    1.3108   -3.6657    5.8913 C   0  0  0  0  0  0  0  0  0  0  0  0
    3.4302   -3.6670    2.8644 C   0  0  0  0  0  0  0  0  0  0  0  0
    0.6736   -2.9179    3.6858 C   0  0  0  0  0  0  0  0  0  0  0  0
    2.5662   -4.4540    3.8471 C   0  0  0  0  0  0  0  0  0  0  0  0
    4.6997   -6.0917   13.2506 C   0  0  0  0  0  0  0  0  0  0  0  0
    2.5364   -5.5031   12.1219 N   0  0  0  0  0  0  0  0  0  0  0  0
    1.6748   -3.5327    4.5560 N   0  0  0  0  0  0  0  0  0  0  0  0
    2.3134   -4.1774    6.7065 N   0  0  0  0  0  0  0  0  0  0  0  0
    0.2085   -3.3117    6.3067 O   0  0  0  0  0  0  0  0  0  0  0  0
    4.4410   -5.4791   10.8962 O   0  0  0  0  0  0  0  0  0  0  0  0
    2.6960   -1.1145   -0.9998 H   0  0  0  0  0  0  0  0  0  0  0  0
    0.3869   -0.4876   -0.2848 H   0  0  0  0  0  0  0  0  0  0  0  0
    4.0765   -2.5769    0.4521 H   0  0  0  0  0  0  0  0  0  0  0  0
   -0.5035   -1.3275    1.8703 H   0  0  0  0  0  0  0  0  0  0  0  0
    0.0894   -4.8031   10.7313 H   0  0  0  0  0  0  0  0  0  0  0  0
    0.1278   -4.1992    8.3146 H   0  0  0  0  0  0  0  0  0  0  0  0
    4.4119   -4.8093    8.1620 H   0  0  0  0  0  0  0  0  0  0  0  0
    4.0146   -4.3591    2.2476 H   0  0  0  0  0  0  0  0  0  0  0  0
    4.1455   -3.0537    3.4277 H   0  0  0  0  0  0  0  0  0  0  0  0
    0.2148   -2.0912    4.2294 H   0  0  0  0  0  0  0  0  0  0  0  0
   -0.1348   -3.6338    3.4689 H   0  0  0  0  0  0  0  0  0  0  0  0
    1.9613   -5.1954    3.3025 H   0  0  0  0  0  0  0  0  0  0  0  0
    3.1843   -5.0140    4.5488 H   0  0  0  0  0  0  0  0  0  0  0  0
    5.2176   -7.0289   13.0219 H   0  0  0  0  0  0  0  0  0  0  0  0
    5.4616   -5.3280   13.4385 H   0  0  0  0  0  0  0  0  0  0  0  0
    4.0928   -6.2240   14.1466 H   0  0  0  0  0  0  0  0  0  0  0  0
    3.2480   -4.1669    6.3240 H   0  0  0  0  0  0  0  0  0  0  0  0
  1  2  1  0  0  0  0
  1  3  2  0  0  0  0
  1 24  1  0  0  0  0
  2  4  2  0  0  0  0
  2 25  1  0  0  0  0
  3  8  1  0  0  0  0
  3 26  1  0  0  0  0
  4  9  1  0  0  0  0
  4 27  1  0  0  0  0
  5  6  2  0  0  0  0
  5 10  1  0  0  0  0
  5 28  1  0  0  0  0
  6 11  1  0  0  0  0
  6 29  1  0  0  0  0
  7 11  2  0  0  0  0
  7 12  1  0  0  0  0
  7 30  1  0  0  0  0
  8  9  2  0  0  0  0
  8 15  1  0  0  0  0
  9 16  1  0  0  0  0
 10 12  2  0  0  0  0
 10 19  1  0  0  0  0
 11 21  1  0  0  0  0
 12 23  1  0  0  0  0
 13 18  1  0  0  0  0
 13 19  2  0  0  0  0
 13 23  1  0  0  0  0
 14 20  1  0  0  0  0
 14 21  1  0  0  0  0
 14 22  2  0  0  0  0
 15 17  1  0  0  0  0
 15 31  1  0  0  0  0
 15 32  1  0  0  0  0
 16 20  1  0  0  0  0
 16 33  1  0  0  0  0
 16 34  1  0  0  0  0
 17 20  1  0  0  0  0
 17 35  1  0  0  0  0
 17 36  1  0  0  0  0
 18 37  1  0  0  0  0
 18 38  1  0  0  0  0
 18 39  1  0  0  0  0
 21 40  1  0  0  0  0
M  END
$$$$
