
  -OEChem-05262117483D

 22 23  0     1  0  0  0  0  0999 V2000
    0.0879    3.5143    2.1248 C   0  0  0  0  0  0  0  0  0  0  0  0
   -0.7333    1.8925    3.7277 C   0  0  0  0  0  0  0  0  0  0  0  0
    0.1311    1.1158    1.5465 C   0  0  0  0  0  0  0  0  0  0  0  0
    0.3757    2.4748    1.2346 C   0  0  0  0  0  0  0  0  0  0  0  0
   -0.4631    3.2081    3.3658 C   0  0  0  0  0  0  0  0  0  0  0  0
   -0.4327    0.8814    2.8113 C   0  0  0  0  0  0  0  0  0  0  0  0
   -0.6200   -0.9207    0.0242 C   0  0  0  0  0  0  0  0  0  0  0  0
    0.3030   -2.0760    0.4874 C   0  0  0  0  0  0  0  0  0  0  0  0
    0.4866    0.0607    0.5211 C   0  0  2  0  0  0  0  0  0  0  0  0
    1.3440   -1.1006    0.9382 N   0  0  0  0  0  0  0  0  0  0  0  0
    0.9094    2.7528    0.0016 O   0  0  0  0  0  0  0  0  0  0  0  0
   -0.8253    4.5037    4.4886 Cl  0  0  0  0  0  0  0  0  0  0  0  0
   -0.8158   -0.7545    3.3467 Cl  0  0  0  0  0  0  0  0  0  0  0  0
    0.2879    4.5482    1.8559 H   0  0  0  0  0  0  0  0  0  0  0  0
   -1.1658    1.6540    4.6920 H   0  0  0  0  0  0  0  0  0  0  0  0
   -0.8120   -0.8653   -1.0500 H   0  0  0  0  0  0  0  0  0  0  0  0
   -1.5677   -0.8543    0.5604 H   0  0  0  0  0  0  0  0  0  0  0  0
   -0.1161   -2.6966    1.2861 H   0  0  0  0  0  0  0  0  0  0  0  0
    0.6726   -2.7295   -0.3096 H   0  0  0  0  0  0  0  0  0  0  0  0
    0.9667    0.5755   -0.3092 H   0  0  0  0  0  0  0  0  0  0  0  0
    1.4971   -1.1370    1.9424 H   0  0  0  0  0  0  0  0  0  0  0  0
    1.0570    3.7091   -0.0730 H   0  0  0  0  0  0  0  0  0  0  0  0
  1  4  1  0  0  0  0
  1  5  2  0  0  0  0
  1 14  1  0  0  0  0
  2  5  1  0  0  0  0
  2  6  2  0  0  0  0
  2 15  1  0  0  0  0
  3  4  2  0  0  0  0
  3  6  1  0  0  0  0
  3  9  1  0  0  0  0
  4 11  1  0  0  0  0
  5 12  1  0  0  0  0
  6 13  1  0  0  0  0
  7  8  1  0  0  0  0
  7  9  1  0  0  0  0
  7 16  1  0  0  0  0
  7 17  1  0  0  0  0
  8 10  1  0  0  0  0
  8 18  1  0  0  0  0
  8 19  1  0  0  0  0
  9 10  1  0  0  0  0
  9 20  1  0  0  0  0
 10 21  1  0  0  0  0
 11 22  1  0  0  0  0
M  END
$$$$
