
  -OEChem-05262117483D

 28 30  0     0  0  0  0  0  0999 V2000
   -0.7788    1.8566   -0.8476 C   0  0  0  0  0  0  0  0  0  0  0  0
   -0.9366    0.6834   -0.0784 C   0  0  0  0  0  0  0  0  0  0  0  0
   -1.8797    2.5018   -1.3943 C   0  0  0  0  0  0  0  0  0  0  0  0
   -2.1981    0.1429    0.1526 C   0  0  0  0  0  0  0  0  0  0  0  0
  -11.5830    2.9522   -2.9769 C   0  0  0  0  0  0  0  0  0  0  0  0
  -10.8853    4.0986   -2.5877 C   0  0  0  0  0  0  0  0  0  0  0  0
   -9.5318    1.6636   -2.7810 C   0  0  0  0  0  0  0  0  0  0  0  0
   -3.1667    1.9714   -1.1731 C   0  0  0  0  0  0  0  0  0  0  0  0
   -8.8212    2.8134   -2.3853 C   0  0  0  0  0  0  0  0  0  0  0  0
   -3.3101    0.7932   -0.3978 C   0  0  0  0  0  0  0  0  0  0  0  0
  -10.8915    1.7439   -3.0716 C   0  0  0  0  0  0  0  0  0  0  0  0
   -9.5221    4.0355   -2.3055 C   0  0  0  0  0  0  0  0  0  0  0  0
   -4.4407    2.4575   -1.6318 C   0  0  0  0  0  0  0  0  0  0  0  0
   -5.5114    1.6906   -1.2268 C   0  0  0  0  0  0  0  0  0  0  0  0
   -6.9367    1.8307   -1.4614 C   0  0  0  0  0  0  0  0  0  0  0  0
   -7.4458    2.7926   -2.1432 N   0  0  0  0  0  0  0  0  0  0  0  0
   -4.9841    0.3166   -0.2485 S   0  0  0  0  0  0  0  0  0  0  0  0
  -11.7458    0.2960   -3.5802 Cl  0  0  0  0  0  0  0  0  0  0  0  0
   -8.6820    5.4848   -1.8069 Cl  0  0  0  0  0  0  0  0  0  0  0  0
   -4.5590    3.8857   -2.6005 Cl  0  0  0  0  0  0  0  0  0  0  0  0
    0.2176    2.2570   -1.0118 H   0  0  0  0  0  0  0  0  0  0  0  0
   -0.0615    0.1942    0.3404 H   0  0  0  0  0  0  0  0  0  0  0  0
   -1.7641    3.4044   -1.9865 H   0  0  0  0  0  0  0  0  0  0  0  0
   -2.3164   -0.7597    0.7455 H   0  0  0  0  0  0  0  0  0  0  0  0
  -12.6410    3.0026   -3.2111 H   0  0  0  0  0  0  0  0  0  0  0  0
  -11.4041    5.0483   -2.5053 H   0  0  0  0  0  0  0  0  0  0  0  0
   -9.0040    0.7231   -2.9016 H   0  0  0  0  0  0  0  0  0  0  0  0
   -7.5670    1.0580   -0.9959 H   0  0  0  0  0  0  0  0  0  0  0  0
  1  2  1  0  0  0  0
  1  3  2  0  0  0  0
  1 21  1  0  0  0  0
  2  4  2  0  0  0  0
  2 22  1  0  0  0  0
  3  8  1  0  0  0  0
  3 23  1  0  0  0  0
  4 10  1  0  0  0  0
  4 24  1  0  0  0  0
  5  6  2  0  0  0  0
  5 11  1  0  0  0  0
  5 25  1  0  0  0  0
  6 12  1  0  0  0  0
  6 26  1  0  0  0  0
  7  9  1  0  0  0  0
  7 11  2  0  0  0  0
  7 27  1  0  0  0  0
  8 10  2  0  0  0  0
  8 13  1  0  0  0  0
  9 12  2  0  0  0  0
  9 16  1  0  0  0  0
 10 17  1  0  0  0  0
 11 18  1  0  0  0  0
 12 19  1  0  0  0  0
 13 14  2  0  0  0  0
 13 20  1  0  0  0  0
 14 15  1  0  0  0  0
 14 17  1  0  0  0  0
 15 16  2  0  0  0  0
 15 28  1  0  0  0  0
M  END
$$$$
