
  -OEChem-05262117483D

 45 47  0     1  0  0  0  0  0999 V2000
   -1.7309    2.1744    3.9807 C   0  0  0  0  0  0  0  0  0  0  0  0
   -0.9446    3.6198    2.4771 C   0  0  0  0  0  0  0  0  0  0  0  0
   -1.0562    2.2573    2.7370 C   0  0  0  0  0  0  0  0  0  0  0  0
   -0.0909    0.0552    2.4565 C   0  0  0  0  0  0  0  0  0  0  0  0
   -0.9468   -1.6467   -0.4313 C   0  0  0  0  0  0  0  0  0  0  0  0
    0.4606   -1.0141    1.5040 C   0  0  0  0  0  0  0  0  0  0  0  0
    0.1052    0.7730   -1.8600 C   0  0  0  0  0  0  0  0  0  0  0  0
    0.8975    2.0671   -2.1191 C   0  0  0  0  0  0  0  0  0  0  0  0
   -0.7446    1.3914    0.4493 C   0  0  0  0  0  0  0  0  0  0  0  0
    1.7036    0.9861   -0.1103 C   0  0  0  0  0  0  0  0  0  0  0  0
    0.2406    0.5330   -0.3443 C   0  0  2  0  0  0  0  0  0  0  0  0
   -1.1492   -3.0276    0.1754 C   0  0  0  0  0  0  0  0  0  0  0  0
   -1.6819    5.6823    3.7268 C   0  0  0  0  0  0  0  0  0  0  0  0
    3.1815    4.4714   -1.4372 C   0  0  0  0  0  0  0  0  0  0  0  0
   -2.0193    3.3915    4.4497 N   0  0  0  0  0  0  0  0  0  0  0  0
   -1.5387    4.2524    3.5235 N   0  0  0  0  0  0  0  0  0  0  0  0
   -0.5812    1.2104    1.9034 N   0  0  0  0  0  0  0  0  0  0  0  0
    0.0684   -0.8626    0.1007 N   0  0  0  0  0  0  0  0  0  0  0  0
    1.8919    2.1422   -1.0117 N   0  0  2  0  0  0  0  0  0  0  0  0
   -0.0227   -0.1546    3.6657 O   0  0  0  0  0  0  0  0  0  0  0  0
   -1.6405   -1.2767   -1.3766 O   0  0  0  0  0  0  0  0  0  0  0  0
    2.7900    3.4335    0.9906 O   0  0  0  0  0  0  0  0  0  0  0  0
    0.8148    4.4105   -0.2684 O   0  0  0  0  0  0  0  0  0  0  0  0
    2.0832    3.6542   -0.2731 S   0  0  0  0  0  0  0  0  0  0  0  0
   -1.9830    1.2926    4.5506 H   0  0  0  0  0  0  0  0  0  0  0  0
   -0.4825    4.1618    1.6628 H   0  0  0  0  0  0  0  0  0  0  0  0
    1.5511   -0.9934    1.6034 H   0  0  0  0  0  0  0  0  0  0  0  0
    0.1359   -1.9713    1.9001 H   0  0  0  0  0  0  0  0  0  0  0  0
   -0.9284    0.8512   -2.1884 H   0  0  0  0  0  0  0  0  0  0  0  0
    0.5547   -0.0702   -2.3895 H   0  0  0  0  0  0  0  0  0  0  0  0
    1.4135    2.0426   -3.0831 H   0  0  0  0  0  0  0  0  0  0  0  0
    0.2424    2.9422   -2.0975 H   0  0  0  0  0  0  0  0  0  0  0  0
   -0.5962    2.4456    0.2172 H   0  0  0  0  0  0  0  0  0  0  0  0
   -1.7658    1.1258    0.1529 H   0  0  0  0  0  0  0  0  0  0  0  0
    1.9377    1.2676    0.9151 H   0  0  0  0  0  0  0  0  0  0  0  0
    2.3838    0.1842   -0.4171 H   0  0  0  0  0  0  0  0  0  0  0  0
   -1.7263   -2.9629    1.1041 H   0  0  0  0  0  0  0  0  0  0  0  0
   -0.2083   -3.5401    0.3919 H   0  0  0  0  0  0  0  0  0  0  0  0
   -1.7267   -3.6119   -0.5411 H   0  0  0  0  0  0  0  0  0  0  0  0
   -2.7406    5.9512    3.7771 H   0  0  0  0  0  0  0  0  0  0  0  0
   -1.1930    5.9761    4.6591 H   0  0  0  0  0  0  0  0  0  0  0  0
   -1.2133    6.2053    2.8917 H   0  0  0  0  0  0  0  0  0  0  0  0
    3.3338    5.4857   -1.0644 H   0  0  0  0  0  0  0  0  0  0  0  0
    4.1187    3.9164   -1.4663 H   0  0  0  0  0  0  0  0  0  0  0  0
    2.7022    4.4960   -2.4167 H   0  0  0  0  0  0  0  0  0  0  0  0
  1  3  1  0  0  0  0
  1 15  2  0  0  0  0
  1 25  1  0  0  0  0
  2  3  2  0  0  0  0
  2 16  1  0  0  0  0
  2 26  1  0  0  0  0
  3 17  1  0  0  0  0
  4  6  1  0  0  0  0
  4 17  1  0  0  0  0
  4 20  2  0  0  0  0
  5 12  1  0  0  0  0
  5 18  1  0  0  0  0
  5 21  2  0  0  0  0
  6 18  1  0  0  0  0
  6 27  1  0  0  0  0
  6 28  1  0  0  0  0
  7  8  1  0  0  0  0
  7 11  1  0  0  0  0
  7 29  1  0  0  0  0
  7 30  1  0  0  0  0
  8 19  1  0  0  0  0
  8 31  1  0  0  0  0
  8 32  1  0  0  0  0
  9 11  1  0  0  0  0
  9 17  1  0  0  0  0
  9 33  1  0  0  0  0
  9 34  1  0  0  0  0
 10 11  1  0  0  0  0
 10 19  1  0  0  0  0
 10 35  1  0  0  0  0
 10 36  1  0  0  0  0
 11 18  1  0  0  0  0
 12 37  1  0  0  0  0
 12 38  1  0  0  0  0
 12 39  1  0  0  0  0
 13 16  1  0  0  0  0
 13 40  1  0  0  0  0
 13 41  1  0  0  0  0
 13 42  1  0  0  0  0
 14 24  1  0  0  0  0
 14 43  1  0  0  0  0
 14 44  1  0  0  0  0
 14 45  1  0  0  0  0
 15 16  1  0  0  0  0
 19 24  1  0  0  0  0
 22 24  2  0  0  0  0
 23 24  2  0  0  0  0
M  END
$$$$
