
  -OEChem-05262117483D

 29 30  0     1  0  0  0  0  0999 V2000
    1.2380    2.2830   -0.2411 C   0  0  0  0  0  0  0  0  0  0  0  0
    1.7612    1.8266    0.9749 C   0  0  0  0  0  0  0  0  0  0  0  0
    0.3963    1.4606   -0.9954 C   0  0  0  0  0  0  0  0  0  0  0  0
    1.4565    0.5385    1.4316 C   0  0  0  0  0  0  0  0  0  0  0  0
    0.0772    0.1702   -0.5525 C   0  0  0  0  0  0  0  0  0  0  0  0
    0.6311   -0.2776    0.6632 C   0  0  0  0  0  0  0  0  0  0  0  0
   -0.8553   -1.8812   -0.9610 C   0  0  0  0  0  0  0  0  0  0  0  0
    0.0832   -2.4884    0.0685 C   0  0  1  0  0  0  0  0  0  0  0  0
    4.6617   -2.1153   -0.3907 C   0  0  0  0  0  0  0  0  0  0  0  0
    1.4053   -2.9178   -0.5907 C   0  0  0  0  0  0  0  0  0  0  0  0
    2.3856   -3.5129    0.4221 C   0  0  0  0  0  0  0  0  0  0  0  0
   -0.8239   -0.6315   -1.2750 N   0  0  0  0  0  0  0  0  0  0  0  0
   -1.6687   -2.7614   -1.6434 N   0  0  0  0  0  0  0  0  0  0  0  0
    0.3060   -1.5389    1.1236 O   0  0  0  0  0  0  0  0  0  0  0  0
    4.0518   -3.8329   -0.2639 S   0  0  0  0  0  0  0  0  0  0  0  0
    1.4784    3.2812   -0.5967 H   0  0  0  0  0  0  0  0  0  0  0  0
    2.4082    2.4676    1.5675 H   0  0  0  0  0  0  0  0  0  0  0  0
   -0.0368    1.8030   -1.9311 H   0  0  0  0  0  0  0  0  0  0  0  0
    1.8502    0.1599    2.3709 H   0  0  0  0  0  0  0  0  0  0  0  0
   -0.3851   -3.3447    0.5650 H   0  0  0  0  0  0  0  0  0  0  0  0
    5.7071   -2.1722   -0.7035 H   0  0  0  0  0  0  0  0  0  0  0  0
    4.6088   -1.6135    0.5796 H   0  0  0  0  0  0  0  0  0  0  0  0
    4.1061   -1.5355   -1.1316 H   0  0  0  0  0  0  0  0  0  0  0  0
    1.8442   -2.0409   -1.0755 H   0  0  0  0  0  0  0  0  0  0  0  0
    1.1896   -3.6427   -1.3819 H   0  0  0  0  0  0  0  0  0  0  0  0
    2.4845   -2.8591    1.2929 H   0  0  0  0  0  0  0  0  0  0  0  0
    2.0273   -4.4833    0.7817 H   0  0  0  0  0  0  0  0  0  0  0  0
   -2.3666   -2.3143   -2.2295 H   0  0  0  0  0  0  0  0  0  0  0  0
   -2.0037   -3.5699   -1.1342 H   0  0  0  0  0  0  0  0  0  0  0  0
  1  2  1  0  0  0  0
  1  3  2  0  0  0  0
  1 16  1  0  0  0  0
  2  4  2  0  0  0  0
  2 17  1  0  0  0  0
  3  5  1  0  0  0  0
  3 18  1  0  0  0  0
  4  6  1  0  0  0  0
  4 19  1  0  0  0  0
  5  6  2  0  0  0  0
  5 12  1  0  0  0  0
  6 14  1  0  0  0  0
  7  8  1  0  0  0  0
  7 12  2  0  0  0  0
  7 13  1  0  0  0  0
  8 10  1  0  0  0  0
  8 14  1  0  0  0  0
  8 20  1  0  0  0  0
  9 15  1  0  0  0  0
  9 21  1  0  0  0  0
  9 22  1  0  0  0  0
  9 23  1  0  0  0  0
 10 11  1  0  0  0  0
 10 24  1  0  0  0  0
 10 25  1  0  0  0  0
 11 15  1  0  0  0  0
 11 26  1  0  0  0  0
 11 27  1  0  0  0  0
 13 28  1  0  0  0  0
 13 29  1  0  0  0  0
M  END
$$$$
