
  -OEChem-05262117483D

 23 24  0     1  0  0  0  0  0999 V2000
    1.7977   -0.3068   -3.3038 C   0  0  0  0  0  0  0  0  0  0  0  0
    2.8784    0.0578   -5.3523 C   0  0  0  0  0  0  0  0  0  0  0  0
    1.0468   -0.8197   -2.1102 C   0  0  0  0  0  0  0  0  0  0  0  0
   -1.1891   -0.3382    0.2130 C   0  0  0  0  0  0  0  0  0  0  0  0
   -0.4819    0.8451    0.8393 C   0  0  0  0  0  0  0  0  0  0  0  0
    0.3148   -0.2358    0.1503 C   0  0  0  0  0  0  0  0  0  0  0  0
    5.3168   -0.0176   -6.4849 C   0  0  0  0  0  0  0  0  0  0  0  0
    2.3456    0.8819   -3.3723 N   0  0  0  0  0  0  0  0  0  0  0  0
    2.9702    1.0988   -4.5711 N   0  0  0  0  0  0  0  0  0  0  0  0
    0.9344    0.0877   -1.1050 N   0  0  0  0  0  0  0  0  0  0  0  0
    0.5928   -1.9618   -2.1007 O   0  0  0  0  0  0  0  0  0  0  0  0
    3.2386   -1.3866   -7.5507 O   0  0  0  0  0  0  0  0  0  0  0  0
    1.9997   -1.3009   -4.7167 S   0  0  0  0  0  0  0  0  0  0  0  0
    3.5643   -0.0002   -7.0397 S   0  0  1  0  0  0  0  0  0  0  0  0
   -1.6098   -1.1007    0.8603 H   0  0  0  0  0  0  0  0  0  0  0  0
   -1.7285   -0.1721   -0.7133 H   0  0  0  0  0  0  0  0  0  0  0  0
   -0.5655    1.8033    0.3344 H   0  0  0  0  0  0  0  0  0  0  0  0
   -0.4161    0.9052    1.9212 H   0  0  0  0  0  0  0  0  0  0  0  0
    0.8831   -0.9239    0.7721 H   0  0  0  0  0  0  0  0  0  0  0  0
    5.9262   -0.0546   -7.3905 H   0  0  0  0  0  0  0  0  0  0  0  0
    5.4779   -0.9123   -5.8802 H   0  0  0  0  0  0  0  0  0  0  0  0
    5.5193    0.8925   -5.9161 H   0  0  0  0  0  0  0  0  0  0  0  0
    1.4296    0.9665   -1.2161 H   0  0  0  0  0  0  0  0  0  0  0  0
  1  3  1  0  0  0  0
  1  8  2  0  0  0  0
  1 13  1  0  0  0  0
  2  9  2  0  0  0  0
  2 13  1  0  0  0  0
  2 14  1  0  0  0  0
  3 10  1  0  0  0  0
  3 11  2  0  0  0  0
  4  5  1  0  0  0  0
  4  6  1  0  0  0  0
  4 15  1  0  0  0  0
  4 16  1  0  0  0  0
  5  6  1  0  0  0  0
  5 17  1  0  0  0  0
  5 18  1  0  0  0  0
  6 10  1  0  0  0  0
  6 19  1  0  0  0  0
  7 14  1  0  0  0  0
  7 20  1  0  0  0  0
  7 21  1  0  0  0  0
  7 22  1  0  0  0  0
  8  9  1  0  0  0  0
 10 23  1  0  0  0  0
 12 14  2  0  0  0  0
M  END
$$$$
