
  -OEChem-05262117483D

 32 34  0     1  0  0  0  0  0999 V2000
    0.5517    0.1752   -2.5461 C   0  0  0  0  0  0  0  0  0  0  0  0
    0.0521   -0.1974   -1.2916 C   0  0  0  0  0  0  0  0  0  0  0  0
    0.2393   -0.5912   -3.6682 C   0  0  0  0  0  0  0  0  0  0  0  0
   -0.7578   -1.3262   -1.1816 C   0  0  0  0  0  0  0  0  0  0  0  0
   -0.5726   -1.7329   -3.5702 C   0  0  0  0  0  0  0  0  0  0  0  0
   -1.0800   -2.0985   -2.3104 C   0  0  0  0  0  0  0  0  0  0  0  0
   -3.9005   -2.5740   -0.6947 C   0  0  0  0  0  0  0  0  0  0  0  0
   -0.8408   -2.5662   -4.8109 C   0  0  0  0  0  0  0  0  0  0  0  0
   -2.0390   -3.5084   -4.6615 C   0  0  0  0  0  0  0  0  0  0  0  0
   -1.9564   -4.2552   -3.3269 C   0  0  0  0  0  0  0  0  0  0  0  0
   -4.1321   -2.5325    1.5659 C   0  0  0  0  0  0  0  0  0  0  0  0
   -5.5611   -2.1021    1.1580 C   0  0  0  0  0  0  0  0  0  0  0  0
   -2.0204   -3.2856   -2.1422 C   0  0  2  0  0  0  0  0  0  0  0  0
   -3.4036   -3.0170    0.4006 N   0  0  0  0  0  0  0  0  0  0  0  0
   -3.4121   -2.8212   -1.9509 N   0  0  0  0  0  0  0  0  0  0  0  0
   -5.3955   -1.5592   -0.5859 S   0  0  0  0  0  0  0  0  0  0  0  0
    1.1814    1.0558   -2.6463 H   0  0  0  0  0  0  0  0  0  0  0  0
    0.2944    0.3887   -0.4087 H   0  0  0  0  0  0  0  0  0  0  0  0
    0.6313   -0.3039   -4.6423 H   0  0  0  0  0  0  0  0  0  0  0  0
   -1.1556   -1.6242   -0.2151 H   0  0  0  0  0  0  0  0  0  0  0  0
   -0.9732   -1.9072   -5.6763 H   0  0  0  0  0  0  0  0  0  0  0  0
    0.0547   -3.1677   -5.0214 H   0  0  0  0  0  0  0  0  0  0  0  0
   -2.9757   -2.9376   -4.7154 H   0  0  0  0  0  0  0  0  0  0  0  0
   -2.0643   -4.2168   -5.4963 H   0  0  0  0  0  0  0  0  0  0  0  0
   -2.7633   -4.9873   -3.2278 H   0  0  0  0  0  0  0  0  0  0  0  0
   -1.0060   -4.8020   -3.2806 H   0  0  0  0  0  0  0  0  0  0  0  0
   -3.5909   -1.6781    1.9976 H   0  0  0  0  0  0  0  0  0  0  0  0
   -4.1768   -3.3115    2.3343 H   0  0  0  0  0  0  0  0  0  0  0  0
   -6.2634   -2.9387    1.1991 H   0  0  0  0  0  0  0  0  0  0  0  0
   -5.9429   -1.2795    1.7658 H   0  0  0  0  0  0  0  0  0  0  0  0
   -1.7718   -3.8165   -1.2227 H   0  0  0  0  0  0  0  0  0  0  0  0
   -3.7657   -2.2080   -2.6750 H   0  0  0  0  0  0  0  0  0  0  0  0
  1  2  1  0  0  0  0
  1  3  2  0  0  0  0
  1 17  1  0  0  0  0
  2  4  2  0  0  0  0
  2 18  1  0  0  0  0
  3  5  1  0  0  0  0
  3 19  1  0  0  0  0
  4  6  1  0  0  0  0
  4 20  1  0  0  0  0
  5  6  2  0  0  0  0
  5  8  1  0  0  0  0
  6 13  1  0  0  0  0
  7 14  2  0  0  0  0
  7 15  1  0  0  0  0
  7 16  1  0  0  0  0
  8  9  1  0  0  0  0
  8 21  1  0  0  0  0
  8 22  1  0  0  0  0
  9 10  1  0  0  0  0
  9 23  1  0  0  0  0
  9 24  1  0  0  0  0
 10 13  1  0  0  0  0
 10 25  1  0  0  0  0
 10 26  1  0  0  0  0
 11 12  1  0  0  0  0
 11 14  1  0  0  0  0
 11 27  1  0  0  0  0
 11 28  1  0  0  0  0
 12 16  1  0  0  0  0
 12 29  1  0  0  0  0
 12 30  1  0  0  0  0
 13 15  1  0  0  0  0
 13 31  1  0  0  0  0
 15 32  1  0  0  0  0
M  END
$$$$
