33
1 1 C13H17N2S
C                    -1.836339553785    -1.824292395367     1.314538957013
C                    -1.115130600996    -0.628930988458     1.367558825157
C                    -2.451062340517    -2.219155370456     0.121498240886
C                    -1.011640705098     0.173012187108     0.225665801121
C                    -2.356346954203    -1.425129966570    -1.024135970778
C                    -1.629427793011    -0.221482734647    -0.963268097677
C                    -0.987736177668     2.920253885289    -1.730639073007
C                    -2.987408272525    -1.788817746900    -2.344497104800
C                    -1.978387603174    -1.643814496795    -3.505294704223
C                    -1.142573757600    -0.337273809900    -3.432685441880
C                    -0.695528088591     5.241188988484    -1.290708186303
C                    -2.047256127690     4.966325936636    -0.629439877015
C                    -1.575157913044     0.562619718105    -2.258900875896
N                    -0.106248216234     3.909781475985    -1.518363884240
N                    -0.662424709664     1.723284689844    -2.187284540504
S                    -2.631643735568     3.367831435605    -1.348759042733
H                    -1.916607074013    -2.450228865243     2.198686827698
H                    -0.632555116795    -0.322725251974     2.291287997593
H                    -3.006792372426    -3.152696456772     0.081010881914
H                    -0.443864165659     1.098301612091     0.279997473111
H                    -3.380779613476    -2.808068205500    -2.320314092571
H                    -3.849550335363    -1.132786566880    -2.529096526536
H                    -1.299220948964    -2.499532813971    -3.487061437754
H                    -2.516073660594    -1.688273092603    -4.455816378133
H                    -0.084475569158    -0.586697201814    -3.288420605655
H                    -1.217701067366     0.231581795957    -4.364421621150
H                    -0.813763978432     5.764229209331    -2.245615056506
H                    -0.044270483893     5.824340475440    -0.637273991070
H                    -1.960322990773     4.838256918200     0.450687567117
H                    -2.781765224697     5.739233259196    -0.853903996067
H                    -2.567857143227     0.967991062492    -2.490302942105
H                     0.861222014172     3.820109180240    -1.813949748496
H                     0.317642197943     1.533376387702    -2.381285705573
