32
1 1 C11H18NO2
C                     2.629513352786    -2.038137234869    -3.460604148877
C                     0.890343371631    -0.887657162275    -4.668399267573
C                     3.384212735298    -2.156400684259    -4.634897979133
C                     1.623240044510    -0.997859660507    -5.841196859850
C                     1.379053130976    -1.406380826405    -3.451500766239
C                     2.882100933372    -1.634423628054    -5.837784513524
C                    -1.449658981317    -2.363481818784    -0.929180745477
C                     0.550090950215    -1.324384103222    -2.187746258204
C                     5.355047598523    -1.996004468153    -8.519250156474
C                     4.855981565994    -2.189715580610    -7.093957240366
C                    -0.671713457786    -2.257327341001    -2.232575230433
N                    -0.166736076596    -3.646327326046    -2.641464502583
O                     5.473114527373    -0.629730644017    -8.889935310562
O                     3.513820976778    -1.684736765349    -7.029350973693
H                     3.050570568052    -2.419277808784    -2.531406099305
H                    -0.064969525661    -0.366336338729    -4.692775392440
H                     4.353466710954    -2.639572715222    -4.595677115855
H                     1.258874202961    -0.582004225471    -6.775581248260
H                    -0.809136122638    -2.700281136646    -0.106809302830
H                    -1.832167340736    -1.374630283725    -0.664543879180
H                    -2.307889614927    -3.037832748705    -1.011241668439
H                     0.165198049492    -0.311822291104    -2.028274826899
H                     1.159544073864    -1.567674955694    -1.309267785775
H                     4.635629741256    -2.438598402127    -9.213029711267
H                     6.305500643440    -2.536990448200    -8.628254856798
H                     5.489349006850    -1.645170423437    -6.381294182023
H                     4.865480143464    -3.257761755560    -6.835915869486
H                    -1.327195785787    -1.963490359801    -3.056334382106
H                    -0.929470411790    -4.280717989248    -2.903350044267
H                     0.361655369417    -4.085806078449    -1.878385477229
H                     0.481716740715    -3.536126214258    -3.441192796350
H                     6.280283015680    -0.262374723681    -8.497792920183
