
  -OEChem-05262117483D

 40 41  0     0  0  0  0  0  0999 V2000
    2.5251   -3.3216    1.0573 C   0  0  0  0  0  0  0  0  0  0  0  0
    2.0822   -2.8965   -0.1972 C   0  0  0  0  0  0  0  0  0  0  0  0
    2.6661   -2.3853    2.0857 C   0  0  0  0  0  0  0  0  0  0  0  0
    1.7759   -1.5510   -0.4265 C   0  0  0  0  0  0  0  0  0  0  0  0
    4.0017    3.1924    2.6312 C   0  0  0  0  0  0  0  0  0  0  0  0
    3.0341    2.3965    3.1951 C   0  0  0  0  0  0  0  0  0  0  0  0
    4.3537    1.2149    1.8677 C   0  0  0  0  0  0  0  0  0  0  0  0
    2.3722   -1.0318    1.8818 C   0  0  0  0  0  0  0  0  0  0  0  0
    1.9160   -0.6157    0.6075 C   0  0  0  0  0  0  0  0  0  0  0  0
    1.9869   -0.2517    4.2070 C   0  0  0  0  0  0  0  0  0  0  0  0
    2.5191   -0.0556    2.9904 C   0  0  0  0  0  0  0  0  0  0  0  0
    3.0440    3.3382   -0.9654 C   0  0  0  0  0  0  0  0  0  0  0  0
    1.8593    2.7810   -0.6349 C   0  0  0  0  0  0  0  0  0  0  0  0
    4.2296    2.5862   -1.5272 C   0  0  0  0  0  0  0  0  0  0  0  0
    3.3661    4.8004   -0.7575 C   0  0  0  0  0  0  0  0  0  0  0  0
    0.7090    3.5010    0.0322 C   0  0  0  0  0  0  0  0  0  0  0  0
    1.5814    1.3130   -0.8250 C   0  0  0  0  0  0  0  0  0  0  0  0
    4.8248    2.4441    1.8078 N   0  0  0  0  0  0  0  0  0  0  0  0
    3.2663    1.1195    2.7051 N   0  0  0  0  0  0  0  0  0  0  0  0
    1.6080    0.7004    0.4892 O   0  0  0  0  0  0  0  0  0  0  0  0
    2.7684   -4.3656    1.2316 H   0  0  0  0  0  0  0  0  0  0  0  0
    1.9678   -3.6127   -1.0069 H   0  0  0  0  0  0  0  0  0  0  0  0
    3.0350   -2.6943    3.0599 H   0  0  0  0  0  0  0  0  0  0  0  0
    1.4048   -1.2406   -1.3972 H   0  0  0  0  0  0  0  0  0  0  0  0
    4.1463    4.2574    2.7607 H   0  0  0  0  0  0  0  0  0  0  0  0
    2.1973    2.6111    3.8425 H   0  0  0  0  0  0  0  0  0  0  0  0
    4.7468    0.3541    1.3436 H   0  0  0  0  0  0  0  0  0  0  0  0
    2.1663    0.4356    5.0279 H   0  0  0  0  0  0  0  0  0  0  0  0
    1.3495   -1.1093    4.3906 H   0  0  0  0  0  0  0  0  0  0  0  0
    4.4960    2.9733   -2.5193 H   0  0  0  0  0  0  0  0  0  0  0  0
    4.0867    1.5088   -1.6123 H   0  0  0  0  0  0  0  0  0  0  0  0
    5.0906    2.7474   -0.8692 H   0  0  0  0  0  0  0  0  0  0  0  0
    4.0980    4.9003    0.0535 H   0  0  0  0  0  0  0  0  0  0  0  0
    2.5014    5.4185   -0.5163 H   0  0  0  0  0  0  0  0  0  0  0  0
    3.8349    5.2167   -1.6576 H   0  0  0  0  0  0  0  0  0  0  0  0
   -0.1896    3.4744   -0.5987 H   0  0  0  0  0  0  0  0  0  0  0  0
    0.4554    2.9943    0.9704 H   0  0  0  0  0  0  0  0  0  0  0  0
    0.9227    4.5425    0.2697 H   0  0  0  0  0  0  0  0  0  0  0  0
    0.5837    1.1535   -1.2562 H   0  0  0  0  0  0  0  0  0  0  0  0
    2.3129    0.8233   -1.4670 H   0  0  0  0  0  0  0  0  0  0  0  0
  1  2  1  0  0  0  0
  1  3  2  0  0  0  0
  1 21  1  0  0  0  0
  2  4  2  0  0  0  0
  2 22  1  0  0  0  0
  3  8  1  0  0  0  0
  3 23  1  0  0  0  0
  4  9  1  0  0  0  0
  4 24  1  0  0  0  0
  5  6  2  0  0  0  0
  5 18  1  0  0  0  0
  5 25  1  0  0  0  0
  6 19  1  0  0  0  0
  6 26  1  0  0  0  0
  7 18  2  0  0  0  0
  7 19  1  0  0  0  0
  7 27  1  0  0  0  0
  8  9  2  0  0  0  0
  8 11  1  0  0  0  0
  9 20  1  0  0  0  0
 10 11  2  0  0  0  0
 10 28  1  0  0  0  0
 10 29  1  0  0  0  0
 11 19  1  0  0  0  0
 12 13  2  0  0  0  0
 12 14  1  0  0  0  0
 12 15  1  0  0  0  0
 13 16  1  0  0  0  0
 13 17  1  0  0  0  0
 14 30  1  0  0  0  0
 14 31  1  0  0  0  0
 14 32  1  0  0  0  0
 15 33  1  0  0  0  0
 15 34  1  0  0  0  0
 15 35  1  0  0  0  0
 16 36  1  0  0  0  0
 16 37  1  0  0  0  0
 16 38  1  0  0  0  0
 17 20  1  0  0  0  0
 17 39  1  0  0  0  0
 17 40  1  0  0  0  0
M  END
$$$$
