
  -OEChem-05262117483D

 33 35  0     1  0  0  0  0  0999 V2000
    0.0959    0.5225   -2.1350 C   0  0  0  0  0  0  0  0  0  0  0  0
   -0.2061   -0.0975   -0.9159 C   0  0  0  0  0  0  0  0  0  0  0  0
   -0.1798   -0.1293   -3.3360 C   0  0  0  0  0  0  0  0  0  0  0  0
   -0.7859   -1.3639   -0.9220 C   0  0  0  0  0  0  0  0  0  0  0  0
   -0.7641   -1.4056   -3.3588 C   0  0  0  0  0  0  0  0  0  0  0  0
   -1.0677   -2.0201   -2.1314 C   0  0  0  0  0  0  0  0  0  0  0  0
   -3.9644   -4.0452   -1.1258 C   0  0  0  0  0  0  0  0  0  0  0  0
   -1.0050   -2.0994   -4.6851 C   0  0  0  0  0  0  0  0  0  0  0  0
   -1.9986   -3.2592   -4.5872 C   0  0  0  0  0  0  0  0  0  0  0  0
   -1.6476   -4.1572   -3.3984 C   0  0  0  0  0  0  0  0  0  0  0  0
   -4.5753   -6.0796   -0.0490 C   0  0  0  0  0  0  0  0  0  0  0  0
   -5.9398   -5.4228   -0.2713 C   0  0  0  0  0  0  0  0  0  0  0  0
   -1.7376   -3.3797   -2.0780 C   0  0  2  0  0  0  0  0  0  0  0  0
   -3.6414   -5.3255   -0.9027 N   0  3  0  0  0  0  0  0  0  0  0  0
   -3.1690   -3.1572   -1.6920 N   0  0  0  0  0  0  0  0  0  0  0  0
   -5.5718   -3.6360   -0.5629 S   0  0  0  0  0  0  0  0  0  0  0  0
    0.5482    1.5102   -2.1463 H   0  0  0  0  0  0  0  0  0  0  0  0
    0.0139    0.3999    0.0241 H   0  0  0  0  0  0  0  0  0  0  0  0
    0.0619    0.3566   -4.2785 H   0  0  0  0  0  0  0  0  0  0  0  0
   -1.0168   -1.8550    0.0218 H   0  0  0  0  0  0  0  0  0  0  0  0
   -1.3441   -1.3694   -5.4262 H   0  0  0  0  0  0  0  0  0  0  0  0
   -0.0437   -2.4816   -5.0531 H   0  0  0  0  0  0  0  0  0  0  0  0
   -3.0204   -2.8757   -4.4728 H   0  0  0  0  0  0  0  0  0  0  0  0
   -1.9863   -3.8431   -5.5117 H   0  0  0  0  0  0  0  0  0  0  0  0
   -2.3003   -5.0370   -3.3712 H   0  0  0  0  0  0  0  0  0  0  0  0
   -0.6195   -4.5237   -3.4994 H   0  0  0  0  0  0  0  0  0  0  0  0
   -4.2607   -6.0090    0.9974 H   0  0  0  0  0  0  0  0  0  0  0  0
   -4.5859   -7.1282   -0.3521 H   0  0  0  0  0  0  0  0  0  0  0  0
   -6.4502   -5.8173   -1.1512 H   0  0  0  0  0  0  0  0  0  0  0  0
   -6.5854   -5.5077    0.6023 H   0  0  0  0  0  0  0  0  0  0  0  0
   -1.2912   -3.9597   -1.2612 H   0  0  0  0  0  0  0  0  0  0  0  0
   -2.7098   -5.6759   -1.0970 H   0  0  0  0  0  0  0  0  0  0  0  0
   -3.5357   -2.2230   -1.8480 H   0  0  0  0  0  0  0  0  0  0  0  0
  1  2  1  0  0  0  0
  1  3  2  0  0  0  0
  1 17  1  0  0  0  0
  2  4  2  0  0  0  0
  2 18  1  0  0  0  0
  3  5  1  0  0  0  0
  3 19  1  0  0  0  0
  4  6  1  0  0  0  0
  4 20  1  0  0  0  0
  5  6  2  0  0  0  0
  5  8  1  0  0  0  0
  6 13  1  0  0  0  0
  7 14  2  0  0  0  0
  7 15  1  0  0  0  0
  7 16  1  0  0  0  0
  8  9  1  0  0  0  0
  8 21  1  0  0  0  0
  8 22  1  0  0  0  0
  9 10  1  0  0  0  0
  9 23  1  0  0  0  0
  9 24  1  0  0  0  0
 10 13  1  0  0  0  0
 10 25  1  0  0  0  0
 10 26  1  0  0  0  0
 11 12  1  0  0  0  0
 11 14  1  0  0  0  0
 11 27  1  0  0  0  0
 11 28  1  0  0  0  0
 12 16  1  0  0  0  0
 12 29  1  0  0  0  0
 12 30  1  0  0  0  0
 13 15  1  0  0  0  0
 13 31  1  0  0  0  0
 14 32  1  0  0  0  0
 15 33  1  0  0  0  0
M  CHG  1  14   1
M  END
$$$$
