30
-1 1 C13H15O2
C                     1.744687399716    -0.923013566094    -0.192089776984
C                     0.650897727152    -0.333859526786     1.860122645629
C                     0.658077211955    -0.329568444660     0.460605221187
C                     2.798569114728    -1.512059732628     0.517103090673
C                     1.688025601714    -0.913766215505     2.600978217841
C                     2.772203278256    -1.528086002039     1.931441959144
C                     5.039790365227    -1.044291626927     3.000643687786
C                    -0.904706712242     1.705575176519    -0.062661461047
C                    -0.207422522618     1.341608884931    -1.360230869104
C                    -0.473028185385     0.276234583926    -0.316783973051
C                     3.969599763131    -2.105251939106    -0.235943840747
C                     1.651779312330    -0.856848660865     4.112854114306
C                     3.913622344724    -2.128286192279     2.711967824839
O                     5.934980539724    -0.954765876226     2.117933872047
O                     4.895040030078    -0.394186903576     4.070699011020
H                     1.778439131853    -0.908734152989    -1.281116965779
H                    -0.175831352239     0.143518273017     2.385392480568
H                    -0.333937188833     2.269502936020     0.669355571138
H                    -1.965452215516     1.942798975227    -0.095939516080
H                    -0.794077295003     1.331187395946    -2.275822872988
H                     0.822034859482     1.665848287533    -1.481623867227
H                    -1.286356650973    -0.407593634667    -0.562329570240
H                     4.913784312396    -1.727100332705     0.170287887575
H                     3.989620378547    -3.200092144852    -0.141078437986
H                     3.905291978864    -1.865735702387    -1.303253707943
H                     1.491864594568    -1.854997940059     4.544369416452
H                     2.605027709403    -0.483869576486     4.502331758756
H                     0.835394276839    -0.211980627565     4.456827826286
H                     3.555823057890    -2.516978828796     3.668468836097
H                     4.363290234982    -2.952374306964     2.152784170783
