40
0 1 C17H20N2O
C                     2.525082468680    -3.321641731803     1.057281567463
C                     2.082211267015    -2.896522176553    -0.197190706621
C                     2.666104972634    -2.385348463608     2.085697560563
C                     1.775938732491    -1.551028289504    -0.426525150466
C                     4.001689339066     3.192445576492     2.631229283976
C                     3.034100186666     2.396489765893     3.195143967509
C                     4.353657526964     1.214930692374     1.867668125266
C                     2.372157171142    -1.031803076505     1.881826938884
C                     1.915993117322    -0.615748242205     0.607470603563
C                     1.986888528141    -0.251671617169     4.206993570602
C                     2.519055801722    -0.055589378051     2.990447638877
C                     3.043968203914     3.338240512747    -0.965365962519
C                     1.859293927658     2.781042056413    -0.634859609463
C                     4.229589665044     2.586207193815    -1.527213552864
C                     3.366081499487     4.800445846512    -0.757525903206
C                     0.708980561760     3.501021661749     0.032172730842
C                     1.581448824642     1.312981847779    -0.825029700863
N                     4.824781187693     2.444148439172     1.807820124820
N                     3.266322123003     1.119452110812     2.705061718275
O                     1.607955469877     0.700441906458     0.489151029637
H                     2.768416136879    -4.365617895028     1.231553175165
H                     1.967757740079    -3.612725356351    -1.006851815386
H                     3.034964343635    -2.694323162181     3.059889897325
H                     1.404778387851    -1.240636110395    -1.397194627534
H                     4.146266691477     4.257384629241     2.760666865806
H                     2.197279158108     2.611112146637     3.842542817278
H                     4.746836072781     0.354100285213     1.343580959058
H                     2.166320185158     0.435573461631     5.027902632027
H                     1.349532313516    -1.109294686547     4.390550867782
H                     4.495953199537     2.973341070066    -2.519259868330
H                     4.086682078404     1.508849870671    -1.612306962874
H                     5.090619942437     2.747428571821    -0.869209981209
H                     4.097954907685     4.900267792909     0.053533302333
H                     2.501357887961     5.418494258007    -0.516288401190
H                     3.834931777876     5.216679447458    -1.657577977995
H                    -0.189629759134     3.474355739464    -0.598710043089
H                     0.455369398987     2.994292222440     0.970439247939
H                     0.922740997496     4.542516602992     0.269662187094
H                     0.583735830891     1.153529054096    -1.256216532131
H                     2.312892736740     0.823341122843    -1.466991551132
