73
0 1 C33H35NO3S
C                     9.386407051817     2.549571863930     8.035706563733
C                     4.102381972479    -4.677602548284     5.117855449904
C                     9.042653165342     2.606910569544     6.679526265713
C                     8.873776334090     1.520930441338     8.832029517482
C                     3.758081287192    -3.682023038293     6.039209574475
C                     5.404024875576    -4.720045883812     4.607945983649
C                    -7.145543689157     8.683033016768     0.208231179481
C                    -8.363909863484     8.392823386594     0.826668239887
C                     8.195891368252     1.643911436768     6.127903686146
C                     8.033864243858     0.552858081351     8.273877129265
C                     4.702525064497    -2.734880234959     6.436616156245
C                     6.349925075568    -3.775562344131     5.015473635209
C                     4.855046605114     1.197387594698     6.203275306447
C                     5.184506827743    -0.280123136823     4.337055126448
C                     3.736093275574     1.758612195296     5.578923129639
C                     4.082889190163     0.272860142564     3.697433684104
C                    -5.961955422123     8.385309445918     0.883504020772
C                    -8.340959955867     7.812513274337     2.098042333536
C                     7.691811704449     0.591633483254     6.912188265818
C                     5.588429708269     0.159352027759     5.612938788911
C                     6.011281633336    -2.758479998649     5.923842571255
C                     3.342596773630     1.292257670094     4.317560365010
C                    -6.046894767479     7.800083928262     2.154729283331
C                     6.773145244472    -0.417821148453     6.308716204636
C                     7.017557201199    -1.753314459362     6.372356982196
C                     8.110927564324    -3.173079177570     8.189756225258
C                    -4.806050722191     7.439322217443     2.928860037144
C                     8.307444369060    -2.340646345739     6.911236762859
C                    -0.550091151303     4.250746968984     3.746353100921
C                     0.363313937798     3.139257202449     3.217959993291
C                    -1.677797040157     4.587828084294     2.762258779026
C                     1.482191266907     2.805394675229     4.193763627034
C                    -2.579999325997     5.696751944619     3.304397778005
N                    -7.212582403547     7.515669804564     2.755930496933
O                    -3.274052714121     6.615428141457     0.889812855602
O                    -4.784596904384     4.894241644545     2.020405734230
O                     2.270463974752     1.767552342639     3.610193391567
S                    -3.901813697058     6.067863133988     2.109462427543
H                    10.039948781151     3.303228566249     8.467599873036
H                     3.366350855979    -5.413254514604     4.803860552968
H                     9.432342771724     3.405450040249     6.052942082932
H                     9.122118241247     1.474574231927     9.889553924367
H                     2.751371582345    -3.643170746942     6.447916396905
H                     5.683369592722    -5.488245000310     3.890997971052
H                    -7.116376541993     9.130309306498    -0.781806977263
H                    -9.311247732122     8.607149031217     0.340345307892
H                     7.919483055448     1.700628443829     5.078355085806
H                     7.625940291485    -0.235466755741     8.900002790577
H                     4.428411248203    -1.959708727159     7.145969385764
H                     7.354524527533    -3.816405093226     4.602313061578
H                     5.157694439790     1.575706902649     7.176016263581
H                     5.744189326572    -1.066643924136     3.841714490898
H                     3.192677610116     2.551835049024     6.079834831736
H                     3.776374747569    -0.067498251880     2.712534843512
H                    -4.991517761715     8.573070770282     0.435249779806
H                    -9.269922431620     7.572428304410     2.612612887915
H                     7.405554567654    -3.992785022312     8.023354932624
H                     7.717252031146    -2.556599421956     9.004664978041
H                     9.062062623414    -3.603746806617     8.520540973152
H                    -5.084198530447     7.095964033810     3.926555478087
H                    -4.091255936956     8.264593826376     2.984939396249
H                     9.040699723544    -1.551711875333     7.087021642755
H                     8.736917946774    -2.994384923704     6.140890504537
H                    -0.983241976162     3.945563719290     4.708319258614
H                     0.044222191181     5.152823749865     3.944731768046
H                     0.806741823306     3.439540583388     2.261804677630
H                    -0.220476853438     2.231806304196     3.026477865206
H                    -1.253634067966     4.905115267830     1.804352373640
H                    -2.281693617881     3.695462176197     2.569381607519
H                     2.108014995578     3.688823372917     4.383563310262
H                     1.070492989829     2.466815088811     5.154961265956
H                    -3.075797567540     5.399589026440     4.233269558075
H                    -2.028106268082     6.628207125498     3.463597540312
