32
0 1 C13H16N2S
C                    -1.648837393961     1.543123577917    -0.350731447838
C                    -1.083901932881     0.282077160716    -0.130153987229
C                    -3.016700263176     1.645600887931    -0.602019316278
C                    -1.896900218349    -0.849755828830    -0.167135430762
C                    -3.843151498073     0.512057036712    -0.635708774841
C                    -3.273419220206    -0.753530837520    -0.413991487687
C                    -3.716574463031    -2.743479253505     1.853060871004
C                    -5.330177402061     0.678328553927    -0.876175816006
C                    -5.989840013064    -0.607716041245    -1.380653690951
C                    -5.623931524694    -1.773485175894    -0.461010327509
C                    -4.141302839904    -1.755165431285     3.850321346559
C                    -3.039382655838    -2.749216476404     4.287563520898
C                    -4.112102862587    -2.032071752762    -0.491884060594
N                    -4.193782179987    -1.688421717315     2.395499066778
N                    -3.732637065750    -3.039288652798     0.513775629664
S                    -2.996644986653    -3.999559660090     2.946734436796
H                    -1.028356206659     2.435587336173    -0.328680993310
H                    -0.019667310252     0.182875933896     0.068486781368
H                    -3.460102377754     2.624776370067    -0.774242606000
H                    -1.453473798662    -1.825569950865     0.017745550293
H                    -5.805320602922     0.971927405383     0.069899441099
H                    -5.500130421006     1.502616856351    -1.577906115511
H                    -7.077618766984    -0.483188366663    -1.418026730911
H                    -5.657593894676    -0.818322988272    -2.406279718919
H                    -5.920128959052    -1.538720934652     0.564592273783
H                    -6.140678341518    -2.692910253737    -0.755404458228
H                    -5.118571807677    -2.082449322675     4.233140703424
H                    -3.941739509049    -0.761169013130     4.263382561877
H                    -2.061625204582    -2.264568501408     4.350351148375
H                    -3.264653426171    -3.236638287211     5.238093703976
H                    -3.882468549892    -2.508695972466    -1.453456446941
H                    -3.037579188153    -3.713397002595     0.223015988572
