
  -OEChem-05262117483D

 49 49  0     1  0  0  0  0  0999 V2000
   -1.6381   -2.1351   -2.7437 C   0  0  0  0  0  0  0  0  0  0  0  0
   -4.3293   -3.5534   -1.1667 C   0  0  0  0  0  0  0  0  0  0  0  0
   -0.1700   -2.2372   -2.3524 C   0  0  0  0  0  0  0  0  0  0  0  0
   -0.2023   -2.6841   -0.8834 C   0  0  0  0  0  0  0  0  0  0  0  0
   -1.5897   -2.2289   -0.3705 C   0  0  1  0  0  0  0  0  0  0  0  0
   -8.8420   -7.4934    2.4171 C   0  0  0  0  0  0  0  0  0  0  0  0
   -9.2939   -5.5154    0.9681 C   0  0  0  0  0  0  0  0  0  0  0  0
   -5.4557   -6.7844    3.1931 C   0  0  0  0  0  0  0  0  0  0  0  0
   -4.8791   -7.6136    0.8604 C   0  0  0  0  0  0  0  0  0  0  0  0
   -3.8210   -2.1715   -1.6114 C   0  0  0  0  0  0  0  0  0  0  0  0
   -6.3445   -4.9114   -0.7268 C   0  0  0  0  0  0  0  0  0  0  0  0
   -6.3777   -5.0594    0.8026 C   0  0  0  0  0  0  0  0  0  0  0  0
   -8.2669   -6.1648    1.9096 C   0  0  0  0  0  0  0  0  0  0  0  0
   -6.0101   -7.2626    1.8366 C   0  0  0  0  0  0  0  0  0  0  0  0
   -1.5181   -0.9103    0.3996 C   0  0  0  0  0  0  0  0  0  0  0  0
   -2.3820   -2.0888   -1.5795 N   0  0  0  0  0  0  0  0  0  0  0  0
   -5.6829   -3.6745   -1.1461 N   0  0  0  0  0  0  0  0  0  0  0  0
   -6.9768   -6.3348    1.2095 N   0  0  0  0  0  0  0  0  0  0  0  0
   -2.1070   -2.0894   -3.8723 O   0  0  0  0  0  0  0  0  0  0  0  0
   -3.5652   -4.4684   -0.8553 O   0  0  0  0  0  0  0  0  0  0  0  0
   -0.7999   -1.0583    1.5396 F   0  0  0  0  0  0  0  0  0  0  0  0
   -0.9417    0.0837   -0.3176 F   0  0  0  0  0  0  0  0  0  0  0  0
   -2.7547   -0.4740    0.7614 F   0  0  0  0  0  0  0  0  0  0  0  0
    0.3387   -2.9376   -3.0163 H   0  0  0  0  0  0  0  0  0  0  0  0
    0.2913   -1.2533   -2.4822 H   0  0  0  0  0  0  0  0  0  0  0  0
   -0.1643   -3.7734   -0.8181 H   0  0  0  0  0  0  0  0  0  0  0  0
    0.6132   -2.2786   -0.2825 H   0  0  0  0  0  0  0  0  0  0  0  0
   -2.0338   -2.9651    0.3030 H   0  0  0  0  0  0  0  0  0  0  0  0
   -8.8970   -8.2265    1.6047 H   0  0  0  0  0  0  0  0  0  0  0  0
   -8.2606   -7.9248    3.2358 H   0  0  0  0  0  0  0  0  0  0  0  0
   -9.8565   -7.3278    2.7928 H   0  0  0  0  0  0  0  0  0  0  0  0
   -9.4662   -6.1592    0.0988 H   0  0  0  0  0  0  0  0  0  0  0  0
   -8.9719   -4.5346    0.6076 H   0  0  0  0  0  0  0  0  0  0  0  0
  -10.2460   -5.3715    1.4895 H   0  0  0  0  0  0  0  0  0  0  0  0
   -4.8383   -5.8860    3.0865 H   0  0  0  0  0  0  0  0  0  0  0  0
   -6.2620   -6.5558    3.8979 H   0  0  0  0  0  0  0  0  0  0  0  0
   -4.8285   -7.5611    3.6441 H   0  0  0  0  0  0  0  0  0  0  0  0
   -4.2512   -6.7536    0.6088 H   0  0  0  0  0  0  0  0  0  0  0  0
   -5.2932   -8.0153   -0.0696 H   0  0  0  0  0  0  0  0  0  0  0  0
   -4.2314   -8.3772    1.3045 H   0  0  0  0  0  0  0  0  0  0  0  0
   -4.1186   -1.9916   -2.6489 H   0  0  0  0  0  0  0  0  0  0  0  0
   -4.2717   -1.3917   -0.9888 H   0  0  0  0  0  0  0  0  0  0  0  0
   -7.3563   -4.9186   -1.1380 H   0  0  0  0  0  0  0  0  0  0  0  0
   -5.8022   -5.7541   -1.1581 H   0  0  0  0  0  0  0  0  0  0  0  0
   -5.3497   -4.9720    1.1625 H   0  0  0  0  0  0  0  0  0  0  0  0
   -6.9174   -4.2103    1.2408 H   0  0  0  0  0  0  0  0  0  0  0  0
   -8.1473   -5.4970    2.7845 H   0  0  0  0  0  0  0  0  0  0  0  0
   -6.5539   -8.1927    2.0127 H   0  0  0  0  0  0  0  0  0  0  0  0
   -6.2472   -2.8717   -1.3916 H   0  0  0  0  0  0  0  0  0  0  0  0
  1  3  1  0  0  0  0
  1 16  1  0  0  0  0
  1 19  2  0  0  0  0
  2 10  1  0  0  0  0
  2 17  1  0  0  0  0
  2 20  2  0  0  0  0
  3  4  1  0  0  0  0
  3 24  1  0  0  0  0
  3 25  1  0  0  0  0
  4  5  1  0  0  0  0
  4 26  1  0  0  0  0
  4 27  1  0  0  0  0
  5 15  1  0  0  0  0
  5 16  1  0  0  0  0
  5 28  1  0  0  0  0
  6 13  1  0  0  0  0
  6 29  1  0  0  0  0
  6 30  1  0  0  0  0
  6 31  1  0  0  0  0
  7 13  1  0  0  0  0
  7 32  1  0  0  0  0
  7 33  1  0  0  0  0
  7 34  1  0  0  0  0
  8 14  1  0  0  0  0
  8 35  1  0  0  0  0
  8 36  1  0  0  0  0
  8 37  1  0  0  0  0
  9 14  1  0  0  0  0
  9 38  1  0  0  0  0
  9 39  1  0  0  0  0
  9 40  1  0  0  0  0
 10 16  1  0  0  0  0
 10 41  1  0  0  0  0
 10 42  1  0  0  0  0
 11 12  1  0  0  0  0
 11 17  1  0  0  0  0
 11 43  1  0  0  0  0
 11 44  1  0  0  0  0
 12 18  1  0  0  0  0
 12 45  1  0  0  0  0
 12 46  1  0  0  0  0
 13 18  1  0  0  0  0
 13 47  1  0  0  0  0
 14 18  1  0  0  0  0
 14 48  1  0  0  0  0
 15 21  1  0  0  0  0
 15 22  1  0  0  0  0
 15 23  1  0  0  0  0
 17 49  1  0  0  0  0
M  END
$$$$
