41
0 1 C13H21N3O2S2
C                     4.531945859575    -2.386508023170    -6.200328334436
C                     5.457558447789    -0.913508633206    -7.800841942865
C                     3.851105962901    -3.113845768828    -5.066049408446
C                     5.902933583721    -5.645208332724     0.058020227653
C                     4.484758677899    -6.106031400293    -0.305625197334
C                     6.599820975105    -4.993920078082    -1.144337219488
C                     3.651945891539    -4.954344480861    -0.886094454346
C                     5.762997851004    -3.843946978423    -1.723534366236
C                     4.343011444588    -4.301018354197    -2.093582126374
C                     5.392450399410     1.177643310329   -11.340141241265
C                     3.494714578495     0.270281975319    -9.897318827335
C                     3.482206035759    -3.148705275246    -2.630805471240
C                     4.967163782914     0.164140097245   -10.276627252161
N                     5.089043655821    -3.019563678106    -7.200642821564
N                     5.632828935686    -2.162132038583    -8.121202714643
N                     4.013612151424    -2.525458718968    -3.843516154088
O                     3.187142083111    -4.122970141037    -5.265049133821
O                     5.512955030706     1.719850488500    -8.074152875620
S                     4.609569282369    -0.637736417867    -6.306789951963
S                     6.055532691134     0.492117131404    -8.783576612711
H                     6.494509301990    -6.491581602613     0.426076175353
H                     5.847540514540    -4.918798578682     0.880986412566
H                     4.545492653291    -6.914313362120    -1.046765789683
H                     3.982586973113    -6.524327236579     0.574462973960
H                     7.592354885036    -4.627225216501    -0.857714267779
H                     6.757647406132    -5.750128758667    -1.925090716052
H                     2.658694565480    -5.316726029581    -1.177803984406
H                     3.494144400634    -4.194408053749    -0.106332207241
H                     5.697536264622    -3.034393435509    -0.980515708090
H                     6.269824833548    -3.429006919418    -2.603417095061
H                     4.416558049108    -5.050244208106    -2.892418666581
H                     5.191088659804     2.199864363410   -11.005652184102
H                     6.456391820822     1.092975877390   -11.583141744784
H                     4.821550275066     1.002351956975   -12.257442572208
H                     3.298164631391     1.222895581993    -9.396358186929
H                     3.181741782050    -0.544557359999    -9.239709815500
H                     2.881769573187     0.225678898257   -10.803441289702
H                     3.382795387057    -2.362719374967    -1.874048970531
H                     2.480613352829    -3.514506943905    -2.869309254370
H                     5.239560233947    -0.854892234508   -10.571121762504
H                     4.736896976450    -1.825440715206    -3.740718453732
