41
0 1 C13H21N3O2S2
C                     4.455628927689    -2.490629645531    -6.436473151396
C                     5.311055906352    -1.565907932443    -8.415840335671
C                     3.835365920151    -3.318819984288    -5.350901886669
C                     6.063973326941    -5.210858371138     0.006944016820
C                     4.811323607963    -5.987325188331    -0.422205651524
C                     6.682381848820    -4.455838164358    -1.177737710252
C                     3.787476403897    -5.069384029222    -1.105159637614
C                     5.654872558536    -3.540058535402    -1.858260518650
C                     4.401288407856    -4.314310285584    -2.294598334428
C                     8.299548394189    -0.644408718065   -11.083245840677
C                     8.127520042768    -2.498082381571    -9.340267201801
C                     3.349911473794    -3.399413631139    -2.939789721462
C                     7.645613697858    -1.122185893200    -9.785791475746
N                     5.017705244300    -1.323300888055    -6.237863863550
N                     5.510574389438    -0.778914558131    -7.393418459839
N                     3.826650816000    -2.716348904134    -4.138755730069
O                     3.383520878429    -4.438140927944    -5.599016623341
O                     5.493970258513    -2.398526907650   -10.925338863587
S                     4.482349043012    -3.056545544980    -8.080400272976
S                     5.798463461125    -1.151651115303   -10.115906094789
H                     6.800241827046    -5.892634705096     0.448586696548
H                     5.791997778169    -4.490862731733     0.791533032141
H                     5.100922340090    -6.784341946320    -1.120396353459
H                     4.353419365469    -6.480013852289     0.443456164738
H                     7.546432600938    -3.868160032041    -0.846172769936
H                     7.058930334028    -5.180931309625    -1.912156746589
H                     2.922134517594    -5.653539196010    -1.441329414515
H                     3.410594918054    -4.340747095303    -0.372148228532
H                     5.358499686057    -2.745567852454    -1.156577855678
H                     6.112789046191    -3.044802335368    -2.722679080681
H                     4.695873089996    -5.052483712520    -3.052592019705
H                     8.121994363750    -1.357996794048   -11.893546777608
H                     7.923709604413     0.335845169017   -11.393179683529
H                     9.380975889141    -0.560638838468   -10.935986099569
H                     7.802742498693    -3.263609364826   -10.051253429858
H                     7.753325321917    -2.760521553744    -8.347435232806
H                     9.221754811575    -2.506372032536    -9.302051320130
H                     3.026680603579    -2.632204896249    -2.227881169278
H                     2.472844443989    -3.987034241893    -3.223315049700
H                     7.752461995757    -0.375532168625    -8.991879850253
H                     4.282793602189    -1.813710174097    -4.070291920284
