43
0 1 C13H23N5O2
C                     3.478072177474     3.471963038247    -8.317523898439
C                     2.533357122763     4.270555950559    -6.428358769214
C                     1.718466769471     1.976155205610    -5.681393401596
C                    -0.178919730984     1.369941995893    -0.690342734021
C                    -1.208767005561     1.884135262795    -1.706570548269
C                     0.907008024554     0.529153122523    -1.376488690587
C                    -0.538198110456     2.658522720472    -2.850363450786
C                     1.580240866531     1.307533571512    -2.515280175241
C                     0.543545631381     1.812533924285    -3.531966431582
C                     4.233131035357     3.462601470049    -9.599146339581
C                     1.890793021203     6.360682126405    -9.559049899690
C                     3.095967231010     8.229002626628    -8.342654608842
C                     2.528972281019     6.813330109875    -8.247307707737
N                     2.958721946359     2.425731188370    -7.745376424033
N                     3.243563999791     4.618104926652    -7.572903166872
N                     2.366516597169     2.902694795877    -6.577946773630
N                     1.169864394749     2.587022073802    -4.603008019425
N                     3.664323431165     5.912618579739    -7.899546198200
O                     2.180854169544     5.026947266075    -5.518095775637
O                     1.690372079301     0.784353356834    -5.933318447023
H                    -0.679093495460     0.783229850115     0.089053978634
H                     0.291021483267     2.226502953692    -0.187274756502
H                    -1.760502908428     1.031467334732    -2.125078653409
H                    -1.949104386281     2.522610941226    -1.211011817623
H                     1.659716817028     0.208359393827    -0.647289558800
H                     0.455370415007    -0.386125873041    -1.782701781288
H                    -1.280265302684     2.972468075838    -3.592954554912
H                    -0.078731810920     3.573584250662    -2.449307631220
H                     2.119782928349     2.172512627461    -2.105222246973
H                     2.314168239030     0.682260901530    -3.033623985386
H                     0.073736155797     0.945200733555    -4.006059808358
H                     3.707089273745     4.035678772315   -10.367872082656
H                     4.344516863792     2.429790713132    -9.931778027069
H                     5.218910664957     3.917471659131    -9.467376155191
H                     2.619126567243     6.399018686938   -10.376017998507
H                     1.501601105987     5.340456865174    -9.485935415989
H                     1.051011420779     7.015173337241    -9.812108564413
H                     3.869107423293     8.285668038910    -9.116047006984
H                     3.534217154553     8.549428047985    -7.390417517044
H                     2.301107468124     8.936559791652    -8.595021760661
H                     1.775662808909     6.782448608470    -7.449495347687
H                     1.325405515782     3.586332293712    -4.482206583215
H                     4.133420046838     6.280660668288    -7.071182797329
