
  -OEChem-05262117483D

 29 30  0     1  0  0  0  0  0999 V2000
    0.0090    5.5456    2.2532 C   0  0  0  0  0  0  0  0  0  0  0  0
    0.0514    5.4733    3.6469 C   0  0  0  0  0  0  0  0  0  0  0  0
    0.4336    4.4586    1.4856 C   0  0  0  0  0  0  0  0  0  0  0  0
    0.5190    4.3147    4.2732 C   0  0  0  0  0  0  0  0  0  0  0  0
    0.9077    3.2829    2.0856 C   0  0  0  0  0  0  0  0  0  0  0  0
    0.9371    3.2394    3.4918 C   0  0  0  0  0  0  0  0  0  0  0  0
    0.6181   -0.2203    1.8282 C   0  0  0  0  0  0  0  0  0  0  0  0
    0.4374   -2.4530    2.4057 C   0  0  0  0  0  0  0  0  0  0  0  0
    1.8940   -1.9675    2.5036 C   0  0  0  0  0  0  0  0  0  0  0  0
    1.5920    2.3497   -0.2270 C   0  0  0  0  0  0  0  0  0  0  0  0
    1.3640    2.0912    1.2612 C   0  0  2  0  0  0  0  0  0  0  0  0
   -0.2502   -1.1647    2.2109 N   0  0  0  0  0  0  0  0  0  0  0  0
    0.3440    1.0046    1.4307 N   0  3  0  0  0  0  0  0  0  0  0  0
    1.8714   -0.6368    1.8725 O   0  0  0  0  0  0  0  0  0  0  0  0
    1.5278    1.8012    4.3282 Cl  0  0  0  0  0  0  0  0  0  0  0  0
   -0.3471    6.4464    1.7627 H   0  0  0  0  0  0  0  0  0  0  0  0
   -0.2716    6.3152    4.2521 H   0  0  0  0  0  0  0  0  0  0  0  0
    0.4066    4.5371    0.4040 H   0  0  0  0  0  0  0  0  0  0  0  0
    0.5648    4.2471    5.3552 H   0  0  0  0  0  0  0  0  0  0  0  0
    0.2669   -3.1169    1.5535 H   0  0  0  0  0  0  0  0  0  0  0  0
    0.1015   -2.9381    3.3231 H   0  0  0  0  0  0  0  0  0  0  0  0
    2.2279   -1.8225    3.5319 H   0  0  0  0  0  0  0  0  0  0  0  0
    2.6079   -2.5714    1.9477 H   0  0  0  0  0  0  0  0  0  0  0  0
    0.6727    2.6436   -0.7406 H   0  0  0  0  0  0  0  0  0  0  0  0
    1.9720    1.4429   -0.7042 H   0  0  0  0  0  0  0  0  0  0  0  0
    2.3331    3.1417   -0.3597 H   0  0  0  0  0  0  0  0  0  0  0  0
    2.2825    1.6946    1.6950 H   0  0  0  0  0  0  0  0  0  0  0  0
   -1.2565   -1.0611    2.1626 H   0  0  0  0  0  0  0  0  0  0  0  0
   -0.6303    1.2874    1.3973 H   0  0  0  0  0  0  0  0  0  0  0  0
  1  2  1  0  0  0  0
  1  3  2  0  0  0  0
  1 16  1  0  0  0  0
  2  4  2  0  0  0  0
  2 17  1  0  0  0  0
  3  5  1  0  0  0  0
  3 18  1  0  0  0  0
  4  6  1  0  0  0  0
  4 19  1  0  0  0  0
  5  6  2  0  0  0  0
  5 11  1  0  0  0  0
  6 15  1  0  0  0  0
  7 12  1  0  0  0  0
  7 13  2  0  0  0  0
  7 14  1  0  0  0  0
  8  9  1  0  0  0  0
  8 12  1  0  0  0  0
  8 20  1  0  0  0  0
  8 21  1  0  0  0  0
  9 14  1  0  0  0  0
  9 22  1  0  0  0  0
  9 23  1  0  0  0  0
 10 11  1  0  0  0  0
 10 24  1  0  0  0  0
 10 25  1  0  0  0  0
 10 26  1  0  0  0  0
 11 13  1  0  0  0  0
 11 27  1  0  0  0  0
 12 28  1  0  0  0  0
 13 29  1  0  0  0  0
M  CHG  1  13   1
M  END
$$$$
