
  -OEChem-05262117483D

 49 49  0     1  0  0  0  0  0999 V2000
   -6.9754    2.1577    3.0658 C   0  0  0  0  0  0  0  0  0  0  0  0
   -6.2953   -0.9521    2.2893 C   0  0  0  0  0  0  0  0  0  0  0  0
   -7.7890    2.8267    4.1643 C   0  0  0  0  0  0  0  0  0  0  0  0
   -7.1379    2.3406    5.4674 C   0  0  0  0  0  0  0  0  0  0  0  0
   -6.4372    1.0127    5.0798 C   0  0  1  0  0  0  0  0  0  0  0  0
   -9.6022   -6.4718    1.7022 C   0  0  0  0  0  0  0  0  0  0  0  0
   -9.4773   -3.9828    1.5424 C   0  0  0  0  0  0  0  0  0  0  0  0
   -6.6747   -6.9782    3.6438 C   0  0  0  0  0  0  0  0  0  0  0  0
   -5.3533   -6.6295    1.5021 C   0  0  0  0  0  0  0  0  0  0  0  0
   -5.4701    0.2270    2.8395 C   0  0  0  0  0  0  0  0  0  0  0  0
   -6.1833   -3.2045    1.2977 C   0  0  0  0  0  0  0  0  0  0  0  0
   -6.6734   -4.1303    2.4232 C   0  0  0  0  0  0  0  0  0  0  0  0
   -8.8511   -5.2270    2.1920 C   0  0  0  0  0  0  0  0  0  0  0  0
   -6.7411   -6.5807    2.1556 C   0  0  0  0  0  0  0  0  0  0  0  0
   -7.2520   -0.2099    5.5192 C   0  0  0  0  0  0  0  0  0  0  0  0
   -6.2580    1.1262    3.6468 N   0  0  0  0  0  0  0  0  0  0  0  0
   -5.5512   -1.9917    1.8180 N   0  0  0  0  0  0  0  0  0  0  0  0
   -7.4018   -5.2875    1.8912 N   0  0  0  0  0  0  0  0  0  0  0  0
   -6.9235    2.4589    1.8841 O   0  0  0  0  0  0  0  0  0  0  0  0
   -7.5203   -0.9213    2.2466 O   0  0  0  0  0  0  0  0  0  0  0  0
   -7.3160   -0.2443    6.8790 F   0  0  0  0  0  0  0  0  0  0  0  0
   -8.5136   -0.2055    5.0554 F   0  0  0  0  0  0  0  0  0  0  0  0
   -6.6629   -1.3702    5.1303 F   0  0  0  0  0  0  0  0  0  0  0  0
   -7.7759    3.9104    4.0387 H   0  0  0  0  0  0  0  0  0  0  0  0
   -8.8239    2.4851    4.0668 H   0  0  0  0  0  0  0  0  0  0  0  0
   -6.3749    3.0488    5.7997 H   0  0  0  0  0  0  0  0  0  0  0  0
   -7.8444    2.2042    6.2869 H   0  0  0  0  0  0  0  0  0  0  0  0
   -5.4701    0.9021    5.5847 H   0  0  0  0  0  0  0  0  0  0  0  0
   -9.3967   -6.6544    0.6413 H   0  0  0  0  0  0  0  0  0  0  0  0
   -9.3529   -7.3752    2.2656 H   0  0  0  0  0  0  0  0  0  0  0  0
  -10.6786   -6.3085    1.8134 H   0  0  0  0  0  0  0  0  0  0  0  0
   -9.3853   -4.0441    0.4520 H   0  0  0  0  0  0  0  0  0  0  0  0
   -9.0199   -3.0475    1.8724 H   0  0  0  0  0  0  0  0  0  0  0  0
  -10.5420   -3.9318    1.7944 H   0  0  0  0  0  0  0  0  0  0  0  0
   -6.0493   -6.2883    4.2210 H   0  0  0  0  0  0  0  0  0  0  0  0
   -7.6702   -6.9850    4.0987 H   0  0  0  0  0  0  0  0  0  0  0  0
   -6.2490   -7.9818    3.7554 H   0  0  0  0  0  0  0  0  0  0  0  0
   -4.6413   -5.9487    1.9815 H   0  0  0  0  0  0  0  0  0  0  0  0
   -5.4230   -6.3648    0.4426 H   0  0  0  0  0  0  0  0  0  0  0  0
   -4.9368   -7.6394    1.5802 H   0  0  0  0  0  0  0  0  0  0  0  0
   -4.6110   -0.1303    3.4173 H   0  0  0  0  0  0  0  0  0  0  0  0
   -5.0976    0.7991    1.9835 H   0  0  0  0  0  0  0  0  0  0  0  0
   -7.0251   -2.9069    0.6723 H   0  0  0  0  0  0  0  0  0  0  0  0
   -5.4633   -3.7271    0.6628 H   0  0  0  0  0  0  0  0  0  0  0  0
   -5.8080   -4.4458    3.0158 H   0  0  0  0  0  0  0  0  0  0  0  0
   -7.2993   -3.5462    3.1054 H   0  0  0  0  0  0  0  0  0  0  0  0
   -9.0090   -5.1478    3.2844 H   0  0  0  0  0  0  0  0  0  0  0  0
   -7.3369   -7.3364    1.6399 H   0  0  0  0  0  0  0  0  0  0  0  0
   -4.5540   -1.9942    1.9867 H   0  0  0  0  0  0  0  0  0  0  0  0
  1  3  1  0  0  0  0
  1 16  1  0  0  0  0
  1 19  2  0  0  0  0
  2 10  1  0  0  0  0
  2 17  1  0  0  0  0
  2 20  2  0  0  0  0
  3  4  1  0  0  0  0
  3 24  1  0  0  0  0
  3 25  1  0  0  0  0
  4  5  1  0  0  0  0
  4 26  1  0  0  0  0
  4 27  1  0  0  0  0
  5 15  1  0  0  0  0
  5 16  1  0  0  0  0
  5 28  1  0  0  0  0
  6 13  1  0  0  0  0
  6 29  1  0  0  0  0
  6 30  1  0  0  0  0
  6 31  1  0  0  0  0
  7 13  1  0  0  0  0
  7 32  1  0  0  0  0
  7 33  1  0  0  0  0
  7 34  1  0  0  0  0
  8 14  1  0  0  0  0
  8 35  1  0  0  0  0
  8 36  1  0  0  0  0
  8 37  1  0  0  0  0
  9 14  1  0  0  0  0
  9 38  1  0  0  0  0
  9 39  1  0  0  0  0
  9 40  1  0  0  0  0
 10 16  1  0  0  0  0
 10 41  1  0  0  0  0
 10 42  1  0  0  0  0
 11 12  1  0  0  0  0
 11 17  1  0  0  0  0
 11 43  1  0  0  0  0
 11 44  1  0  0  0  0
 12 18  1  0  0  0  0
 12 45  1  0  0  0  0
 12 46  1  0  0  0  0
 13 18  1  0  0  0  0
 13 47  1  0  0  0  0
 14 18  1  0  0  0  0
 14 48  1  0  0  0  0
 15 21  1  0  0  0  0
 15 22  1  0  0  0  0
 15 23  1  0  0  0  0
 17 49  1  0  0  0  0
M  END
$$$$
