
  -OEChem-05262117483D

 43 44  0     0  0  0  0  0  0999 V2000
    3.6901    3.4141   -8.0174 C   0  0  0  0  0  0  0  0  0  0  0  0
    2.5608    4.1935   -6.1981 C   0  0  0  0  0  0  0  0  0  0  0  0
    1.9540    1.8708   -5.3883 C   0  0  0  0  0  0  0  0  0  0  0  0
    0.4354   -3.2599   -4.8769 C   0  0  0  0  0  0  0  0  0  0  0  0
    1.8523   -2.9644   -4.3641 C   0  0  0  0  0  0  0  0  0  0  0  0
   -0.4565   -2.0130   -4.7955 C   0  0  0  0  0  0  0  0  0  0  0  0
    2.4835   -1.7722   -5.0977 C   0  0  0  0  0  0  0  0  0  0  0  0
    0.1737   -0.8257   -5.5366 C   0  0  0  0  0  0  0  0  0  0  0  0
    1.5880   -0.5310   -5.0110 C   0  0  0  0  0  0  0  0  0  0  0  0
    4.5051    3.4269   -9.2620 C   0  0  0  0  0  0  0  0  0  0  0  0
    1.8685    6.0398   -9.4937 C   0  0  0  0  0  0  0  0  0  0  0  0
    2.7919    8.0817   -8.3109 C   0  0  0  0  0  0  0  0  0  0  0  0
    2.3798    6.6167   -8.1752 C   0  0  0  0  0  0  0  0  0  0  0  0
    3.2642    2.3427   -7.4117 N   0  0  0  0  0  0  0  0  0  0  0  0
    3.2896    4.5502   -7.3523 N   0  0  0  0  0  0  0  0  0  0  0  0
    2.5598    2.8005   -6.2911 N   0  0  0  0  0  0  0  0  0  0  0  0
    2.2134    0.5803   -5.7244 N   0  0  0  0  0  0  0  0  0  0  0  0
    3.5870    5.8645   -7.7274 N   0  0  0  0  0  0  0  0  0  0  0  0
    2.1083    4.9664   -5.3737 O   0  0  0  0  0  0  0  0  0  0  0  0
    1.2972    2.2480   -4.4319 O   0  0  0  0  0  0  0  0  0  0  0  0
   -0.0079   -4.0832   -4.3047 H   0  0  0  0  0  0  0  0  0  0  0  0
    0.4918   -3.5967   -5.9214 H   0  0  0  0  0  0  0  0  0  0  0  0
    1.8086   -2.7414   -3.2895 H   0  0  0  0  0  0  0  0  0  0  0  0
    2.4912   -3.8481   -4.4741 H   0  0  0  0  0  0  0  0  0  0  0  0
   -1.4498   -2.2259   -5.2067 H   0  0  0  0  0  0  0  0  0  0  0  0
   -0.6062   -1.7414   -3.7417 H   0  0  0  0  0  0  0  0  0  0  0  0
    3.4715   -1.5415   -4.6839 H   0  0  0  0  0  0  0  0  0  0  0  0
    2.6313   -2.0354   -6.1557 H   0  0  0  0  0  0  0  0  0  0  0  0
    0.2368   -1.0505   -6.6106 H   0  0  0  0  0  0  0  0  0  0  0  0
   -0.4423    0.0725   -5.4276 H   0  0  0  0  0  0  0  0  0  0  0  0
    1.5086   -0.2204   -3.9646 H   0  0  0  0  0  0  0  0  0  0  0  0
    3.9539    3.8927  -10.0836 H   0  0  0  0  0  0  0  0  0  0  0  0
    4.7580    2.4007   -9.5326 H   0  0  0  0  0  0  0  0  0  0  0  0
    5.4201    4.0066   -9.1122 H   0  0  0  0  0  0  0  0  0  0  0  0
    2.6324    6.1227  -10.2744 H   0  0  0  0  0  0  0  0  0  0  0  0
    1.5874    4.9872   -9.3888 H   0  0  0  0  0  0  0  0  0  0  0  0
    0.9781    6.5855   -9.8209 H   0  0  0  0  0  0  0  0  0  0  0  0
    3.5967    8.1923   -9.0453 H   0  0  0  0  0  0  0  0  0  0  0  0
    3.1370    8.4895   -7.3539 H   0  0  0  0  0  0  0  0  0  0  0  0
    1.9393    8.6838   -8.6377 H   0  0  0  0  0  0  0  0  0  0  0  0
    1.5926    6.5348   -7.4153 H   0  0  0  0  0  0  0  0  0  0  0  0
    2.7054    0.4122   -6.5943 H   0  0  0  0  0  0  0  0  0  0  0  0
    3.9593    6.3200   -6.8928 H   0  0  0  0  0  0  0  0  0  0  0  0
  1 10  1  0  0  0  0
  1 14  2  0  0  0  0
  1 15  1  0  0  0  0
  2 15  1  0  0  0  0
  2 16  1  0  0  0  0
  2 19  2  0  0  0  0
  3 16  1  0  0  0  0
  3 17  1  0  0  0  0
  3 20  2  0  0  0  0
  4  5  1  0  0  0  0
  4  6  1  0  0  0  0
  4 21  1  0  0  0  0
  4 22  1  0  0  0  0
  5  7  1  0  0  0  0
  5 23  1  0  0  0  0
  5 24  1  0  0  0  0
  6  8  1  0  0  0  0
  6 25  1  0  0  0  0
  6 26  1  0  0  0  0
  7  9  1  0  0  0  0
  7 27  1  0  0  0  0
  7 28  1  0  0  0  0
  8  9  1  0  0  0  0
  8 29  1  0  0  0  0
  8 30  1  0  0  0  0
  9 17  1  0  0  0  0
  9 31  1  0  0  0  0
 10 32  1  0  0  0  0
 10 33  1  0  0  0  0
 10 34  1  0  0  0  0
 11 13  1  0  0  0  0
 11 35  1  0  0  0  0
 11 36  1  0  0  0  0
 11 37  1  0  0  0  0
 12 13  1  0  0  0  0
 12 38  1  0  0  0  0
 12 39  1  0  0  0  0
 12 40  1  0  0  0  0
 13 18  1  0  0  0  0
 13 41  1  0  0  0  0
 14 16  1  0  0  0  0
 15 18  1  0  0  0  0
 17 42  1  0  0  0  0
 18 43  1  0  0  0  0
M  END
$$$$
