26
0 1 C11FH12NO
C                     1.310361849075     1.494601679021     0.403082795829
C                     1.130511088998     0.126017186719     0.192179811195
C                     3.536323343353    -0.186209067684     0.384751345819
C                     3.726735930210     1.184016112101     0.582809770772
C                     2.592265399735     2.021941803379     0.596711081468
C                     2.253905368942    -0.690184573537     0.193105945398
C                     3.888746269103     4.002515940328     1.305973424801
C                     4.989174321605     3.026883241408     1.675016811885
C                     5.106120204409     1.825579306718     0.712843692984
C                     6.160079904266     0.854863479018     1.267653480432
C                     5.552355978281     2.319192591433    -0.684113328690
N                     2.758158676955     3.407546650941     0.788899618795
O                     3.960077923031     5.216104094244     1.468012117009
F                     2.100458583139    -2.028441877561     0.000106406954
H                     0.446406793363     2.154712021571     0.422133101328
H                     0.144436231432    -0.301205800318     0.040783809337
H                     4.373136894637    -0.875746256405     0.368690055460
H                     5.923989195677     3.589532561686     1.721135404852
H                     4.771641402701     2.665903028027     2.689293634425
H                     7.103617899524     1.385051846794     1.433233024359
H                     6.367854975326     0.037439118318     0.570603382931
H                     5.841717014589     0.420224676635     2.220839704475
H                     6.532178855817     2.805593074349    -0.621109511155
H                     4.843764679277     3.039169995392    -1.104308276150
H                     5.628667290305     1.477849172098    -1.379502333635
H                     1.975784712769     4.029843334126     0.616800807428
