
  -OEChem-05262117483D

 41 42  0     1  0  0  0  0  0999 V2000
    4.5319   -2.3865   -6.2003 C   0  0  0  0  0  0  0  0  0  0  0  0
    5.4576   -0.9135   -7.8008 C   0  0  0  0  0  0  0  0  0  0  0  0
    3.8511   -3.1138   -5.0660 C   0  0  0  0  0  0  0  0  0  0  0  0
    5.9029   -5.6452    0.0580 C   0  0  0  0  0  0  0  0  0  0  0  0
    4.4848   -6.1060   -0.3056 C   0  0  0  0  0  0  0  0  0  0  0  0
    6.5998   -4.9939   -1.1443 C   0  0  0  0  0  0  0  0  0  0  0  0
    3.6519   -4.9543   -0.8861 C   0  0  0  0  0  0  0  0  0  0  0  0
    5.7630   -3.8439   -1.7235 C   0  0  0  0  0  0  0  0  0  0  0  0
    4.3430   -4.3010   -2.0936 C   0  0  0  0  0  0  0  0  0  0  0  0
    5.3925    1.1776  -11.3401 C   0  0  0  0  0  0  0  0  0  0  0  0
    3.4947    0.2703   -9.8973 C   0  0  0  0  0  0  0  0  0  0  0  0
    3.4822   -3.1487   -2.6308 C   0  0  0  0  0  0  0  0  0  0  0  0
    4.9672    0.1641  -10.2766 C   0  0  0  0  0  0  0  0  0  0  0  0
    5.0890   -3.0196   -7.2006 N   0  0  0  0  0  0  0  0  0  0  0  0
    5.6328   -2.1621   -8.1212 N   0  0  0  0  0  0  0  0  0  0  0  0
    4.0136   -2.5255   -3.8435 N   0  0  0  0  0  0  0  0  0  0  0  0
    3.1871   -4.1230   -5.2650 O   0  0  0  0  0  0  0  0  0  0  0  0
    5.5130    1.7199   -8.0742 O   0  0  0  0  0  0  0  0  0  0  0  0
    4.6096   -0.6377   -6.3068 S   0  0  0  0  0  0  0  0  0  0  0  0
    6.0555    0.4921   -8.7836 S   0  0  1  0  0  0  0  0  0  0  0  0
    6.4945   -6.4916    0.4261 H   0  0  0  0  0  0  0  0  0  0  0  0
    5.8475   -4.9188    0.8810 H   0  0  0  0  0  0  0  0  0  0  0  0
    4.5455   -6.9143   -1.0468 H   0  0  0  0  0  0  0  0  0  0  0  0
    3.9826   -6.5243    0.5745 H   0  0  0  0  0  0  0  0  0  0  0  0
    7.5924   -4.6272   -0.8577 H   0  0  0  0  0  0  0  0  0  0  0  0
    6.7576   -5.7501   -1.9251 H   0  0  0  0  0  0  0  0  0  0  0  0
    2.6587   -5.3167   -1.1778 H   0  0  0  0  0  0  0  0  0  0  0  0
    3.4941   -4.1944   -0.1063 H   0  0  0  0  0  0  0  0  0  0  0  0
    5.6975   -3.0344   -0.9805 H   0  0  0  0  0  0  0  0  0  0  0  0
    6.2698   -3.4290   -2.6034 H   0  0  0  0  0  0  0  0  0  0  0  0
    4.4166   -5.0502   -2.8924 H   0  0  0  0  0  0  0  0  0  0  0  0
    5.1911    2.1999  -11.0057 H   0  0  0  0  0  0  0  0  0  0  0  0
    6.4564    1.0930  -11.5831 H   0  0  0  0  0  0  0  0  0  0  0  0
    4.8216    1.0024  -12.2574 H   0  0  0  0  0  0  0  0  0  0  0  0
    3.2982    1.2229   -9.3964 H   0  0  0  0  0  0  0  0  0  0  0  0
    3.1817   -0.5446   -9.2397 H   0  0  0  0  0  0  0  0  0  0  0  0
    2.8818    0.2257  -10.8034 H   0  0  0  0  0  0  0  0  0  0  0  0
    3.3828   -2.3627   -1.8740 H   0  0  0  0  0  0  0  0  0  0  0  0
    2.4806   -3.5145   -2.8693 H   0  0  0  0  0  0  0  0  0  0  0  0
    5.2396   -0.8549  -10.5711 H   0  0  0  0  0  0  0  0  0  0  0  0
    4.7369   -1.8254   -3.7407 H   0  0  0  0  0  0  0  0  0  0  0  0
  1  3  1  0  0  0  0
  1 14  2  0  0  0  0
  1 19  1  0  0  0  0
  2 15  2  0  0  0  0
  2 19  1  0  0  0  0
  2 20  1  0  0  0  0
  3 16  1  0  0  0  0
  3 17  2  0  0  0  0
  4  5  1  0  0  0  0
  4  6  1  0  0  0  0
  4 21  1  0  0  0  0
  4 22  1  0  0  0  0
  5  7  1  0  0  0  0
  5 23  1  0  0  0  0
  5 24  1  0  0  0  0
  6  8  1  0  0  0  0
  6 25  1  0  0  0  0
  6 26  1  0  0  0  0
  7  9  1  0  0  0  0
  7 27  1  0  0  0  0
  7 28  1  0  0  0  0
  8  9  1  0  0  0  0
  8 29  1  0  0  0  0
  8 30  1  0  0  0  0
  9 12  1  0  0  0  0
  9 31  1  0  0  0  0
 10 13  1  0  0  0  0
 10 32  1  0  0  0  0
 10 33  1  0  0  0  0
 10 34  1  0  0  0  0
 11 13  1  0  0  0  0
 11 35  1  0  0  0  0
 11 36  1  0  0  0  0
 11 37  1  0  0  0  0
 12 16  1  0  0  0  0
 12 38  1  0  0  0  0
 12 39  1  0  0  0  0
 13 20  1  0  0  0  0
 13 40  1  0  0  0  0
 14 15  1  0  0  0  0
 16 41  1  0  0  0  0
 18 20  2  0  0  0  0
M  END
$$$$
