15   
torsion grid (-165,)
C       -1.0334179171    1.0716296187   -1.9850999662
C       -1.1304085813    0.0806045330   -0.9573609930
C       -0.5382594108    0.5619334803   -3.1580206279
C       -0.7044509250   -1.1625706158   -1.3592211916
C       -0.6587347830   -2.4240630242   -0.5499037490
N       -1.4852012744   -3.4628896902   -1.1928430691
O       -1.6923960982   -4.5069850939   -0.2100511681
S       -0.1858860400   -1.1299612033   -3.0247495628
H       -1.3199664495    2.1106039019   -1.8588054432
H       -1.4955050979    0.2787312494    0.0460066691
H       -0.3713407558    1.0785318892   -4.0948832345
H        0.3606620090   -2.8157042298   -0.4697860508
H       -1.0111378269   -2.2023165766    0.4669755535
H       -2.4206078997   -3.0707458630   -1.3184805698
H       -1.3610739659   -5.2988457584   -0.6636224099
15   
torsion grid (-150,)
C       -1.1162537464    1.0310051060   -1.9661936450
C       -1.1714985200    0.0116459536   -0.9640401848
C       -0.5357862732    0.5924131616   -3.1290413630
C       -0.6304606924   -1.1839618501   -1.3734910846
C       -0.5470017499   -2.4663124888   -0.6015963637
N       -1.4464576279   -3.4841690128   -1.1929232250
O       -1.8781099181   -4.3521941424   -0.1146802600
S       -0.0510646809   -1.0672848443   -3.0150451472
H       -1.4880300325    2.0411740899   -1.8288300628
H       -1.5901435525    0.1553125253    0.0276309611
H       -0.3689868466    1.1456682824   -4.0447142873
H        0.4701348299   -2.8712290848   -0.5880870964
H       -0.8409790226   -2.2613562816    0.4356968573
H       -2.3086346618   -2.9991476422   -1.4486164102
H       -1.6104523750   -5.2328219610   -0.4237510431
15   
torsion grid (-135,)
C       -1.1895185126    1.0011060140   -1.9432214646
C       -1.2159951724   -0.0477187987   -0.9713107408
C       -0.5376838960    0.6357393035   -3.0938643073
C       -0.5824026689   -1.1942199852   -1.3898936601
C       -0.4657192427   -2.4989998989   -0.6606414317
N       -1.4233002820   -3.5068673757   -1.1924497545
O       -2.0503170033   -4.1596408398   -0.0588309733
S        0.0516349007   -0.9909077560   -3.0026323249
H       -1.6294525135    1.9816811948   -1.7932336095
H       -1.6821758790    0.0390563075    0.0056633706
H       -0.3678696740    1.2270011879   -3.9848312296
H        0.5472778770   -2.9097024573   -0.7221606266
H       -0.6925575465   -2.3204172841    0.3962480878
H       -2.2002374972   -2.9842228726   -1.5995219224
H       -1.8483287298   -5.0972742671   -0.2092873158
15   
torsion grid (-120,)
C       -0.2585932452    0.9899358860   -1.8026072966
C       -0.6935177184    0.0455533705   -0.8193221668
C       -0.5412638616    0.5833666022   -3.0813949383
C       -1.3047491113   -1.0614068738   -1.3581376399
C       -1.8174956836   -2.2724300763   -0.6371505594
N       -0.8413308934   -3.3978626376   -0.6230539228
O       -1.4444448791   -4.5410070711   -1.2805820573
S       -1.3466926646   -0.9517348924   -3.1010006460
H        0.2387826862    1.9262721310   -1.5712232746
H       -0.5600954979    0.1753110420    0.2506018590
H       -0.3326550998    1.0988527887   -4.0104306445
H       -2.0474059143   -1.9940295512    0.3968948397
H       -2.7396361089   -2.6424889604   -1.0946162609
H       -0.0778982825   -3.1529198432   -1.2536447729
H       -1.4121905972   -5.2248621028   -0.5925188950
15   
torsion grid (-105,)
C       -0.2809716345    0.9763957893   -1.8240729080
C       -0.7147376641    0.0614415849   -0.8125576113
C       -0.5310008545    0.5142561312   -3.0906182271
C       -1.2919424274   -1.0788691751   -1.3188136871
C       -1.7961626519   -2.2691497022   -0.5558196926
N       -0.8749846710   -3.4353752194   -0.5634714350
O       -1.4054122340   -4.4390229984   -1.4666361297
S       -1.3024668962   -1.0386237585   -3.0649783392
H        0.1930835439    1.9310443461   -1.6201400701
H       -0.6057717010    0.2367379551    0.2537617269
H       -0.3124346225    0.9965083240   -4.0351328319
H       -1.9481249194   -1.9639928076    0.4856525322
H       -2.7569516006   -2.6206368253   -0.9393355342
H       -0.0076764145   -3.1510817859   -1.0193522871
H       -1.4915528964   -5.2157755761   -0.8911784381
15   
torsion grid (-90,)
C       -0.2934037132    0.9843821844   -1.8747022642
C       -0.7253356137    0.0962680003   -0.8389609805
C       -0.5326658047    0.4819821676   -3.1281032745
C       -1.2880867759   -1.0645736141   -1.3148813219
C       -1.7920269459   -2.2322384049   -0.5146418571
N       -0.9235043286   -3.4300681075   -0.5337237239
O       -1.3296709565   -4.2663895791   -1.6480359823
S       -1.2881393080   -1.0774662652   -3.0606187614
H        0.1716698578    1.9485613368   -1.6964283732
H       -0.6267016391    0.3061420793    0.2222479032
H       -0.3090311197    0.9363540688   -4.0852320130
H       -1.8735706671   -1.9095335279    0.5298784489
H       -2.7840583179   -2.5584772274   -0.8345957777
H        0.0190176504   -3.1370615178   -0.7947291069
H       -1.5390040902   -5.1077708668   -1.2119520072
15   
torsion grid (-75,)
C       -0.3234069301    0.9491050236   -1.8947792786
C       -0.7452069298    0.0746326475   -0.8439166988
C       -0.5553807187    0.4197235805   -3.1386818905
C       -1.2902547323   -1.1033599060   -1.2992809072
C       -1.7990585382   -2.2502454838   -0.4699372697
N       -0.9857036850   -3.4790632513   -0.5064525904
O       -1.2228684058   -4.1262820587   -1.7837349273
S       -1.2861192448   -1.1496138219   -3.0433876468
H        0.1295499499    1.9220384871   -1.7336248797
H       -0.6550433468    0.3079434955    0.2132624841
H       -0.3315351867    0.8570107295   -4.1037771382
H       -1.8207709904   -1.9247641362    0.5767285030
H       -2.8173748223   -2.5383776831   -0.7431966373
H       -0.0028826795   -3.2064805701   -0.5672693333
H       -1.5541885596   -4.9991157919   -1.5178748689
15   
torsion grid (-60,)
C       -0.3397197041    0.9249016092   -1.8980195185
C       -0.7393310497    0.0525772627   -0.8374960848
C       -0.5874829898    0.3863151254   -3.1351111129
C       -1.2788763674   -1.1344729692   -1.2777375626
C       -1.8073243229   -2.2538614355   -0.4209640265
N       -1.0695255107   -3.5272287567   -0.4647879672
O       -1.0909966921   -4.0038242111   -1.8345272603
S       -1.2953334303   -1.1915637356   -3.0201688656
H        0.1086219813    1.9018202135   -1.7485246534
H       -0.6423641290    0.2962795728    0.2168168624
H       -0.3756334536    0.8169174837   -4.1059888770
H       -1.7834977637   -1.9285932075    0.6253287849
H       -2.8491059354   -2.4837328713   -0.6657402513
H       -0.0796133144   -3.3168005873   -0.3207928188
H       -1.5264655622   -4.8677169985   -1.7511842772
15   
torsion grid (-45,)
C       -0.3200262980    0.8921037805   -1.8858352780
C       -0.6933309392    0.0159652756   -0.8192688866
C       -0.6203479522    0.3670501729   -3.1172102311
C       -1.2612811872   -1.1623606681   -1.2482720361
C       -1.8169036258   -2.2550726391   -0.3729595098
N       -1.1563136841   -3.5747030116   -0.4131649813
O       -0.9065918651   -3.9251064152   -1.7963712734
S       -1.3369003791   -1.2051863570   -2.9880623595
H        0.1465348502    1.8617172587   -1.7448788106
H       -0.5615290466    0.2532312453    0.2327562917
H       -0.4337628952    0.8000213581   -4.0922163125
H       -1.7702183287   -1.9308072673    0.6721480106
H       -2.8736268051   -2.4228191541   -0.6101887446
H       -0.2073995528   -3.4467922930   -0.0555245311
H       -1.3878875277   -4.7629637020   -1.8948046236
15   
torsion grid (-30,)
C       -0.1927706355    0.7781441863   -1.9301571164
C       -0.5580114737   -0.1099057378   -0.8707998977
C       -0.7513570305    0.4165081748   -3.1304519114
C       -1.3796387245   -1.1359578697   -1.2757184660
C       -1.9522030960   -2.2412360123   -0.4314755158
N       -1.2171993864   -3.5338725728   -0.4118375445
O       -0.5370385676   -3.7274296580   -1.6737182585
S       -1.7130143659   -1.0151343987   -2.9786719589
H        0.4462969224    1.6465406700   -1.8066277992
H       -0.2320766396    0.0097146222    0.1587652649
H       -0.6461041454    0.9023536939   -4.0923432091
H       -2.0163432387   -1.9154093386    0.6118641413
H       -2.9744868716   -2.4567176846   -0.7617784811
H       -0.4291089898   -3.4126707498    0.2259763101
H       -0.9099773002   -4.5654344136   -1.9925480312
15   
torsion grid (-15,)
C       -0.1554449941    0.7104530860   -1.9672971482
C       -0.5110174831   -0.1728846384   -0.9006373235
C       -0.8132551850    0.4145832033   -3.1346689100
C       -1.4282987317   -1.1281715431   -1.2664166322
C       -2.0037192350   -2.2329689322   -0.4282215927
N       -1.2648546363   -3.5355707123   -0.4371703833
O       -0.3225465673   -3.5800149641   -1.5321832114
S       -1.8662182682   -0.9464217187   -2.9405155183
H        0.5485119468    1.5309156709   -1.8717148317
H       -0.1012860672   -0.1059979177    0.1032486455
H       -0.7436112091    0.9181941432   -4.0905230602
H       -2.0700265244   -1.9091180231    0.6154926878
H       -3.0265424707   -2.4400498459   -0.7621525965
H       -0.6359080397   -3.5234909238    0.3650889805
H       -0.6458108414   -4.3235190686   -2.0663050230
15   
torsion grid (0,)
C       -0.1491162838    0.6751597311   -1.9916027866
C       -0.5054494890   -0.1996070057   -0.9178895081
C       -0.8201272294    0.3835774926   -3.1520671053
C       -1.4385730340   -1.1429739552   -1.2702095573
C       -2.0167411597   -2.2386095995   -0.4269112667
N       -1.3293609086   -3.5740463639   -0.5245526099
O       -0.2155554279   -3.5239921179   -1.4422395140
S       -1.8925693988   -0.9606956671   -2.9415370208
H        0.5666762419    1.4863918409   -1.9057005095
H       -0.0803055630   -0.1395367651    0.0797013735
H       -0.7536937269    0.8834069805   -4.1101129948
H       -2.0078168592   -1.9170957073    0.6200117550
H       -3.0644025995   -2.3986158501   -0.7040672659
H       -0.8550341642   -3.7333817944    0.3624037882
H       -0.4904850873   -4.1293032890   -2.1492283033
15   
torsion grid (15,)
C       -0.1672365849    0.6737655270   -2.0101493313
C       -0.5174688608   -0.1879485587   -0.9232733707
C       -0.8289169485    0.3558189285   -3.1684247535
C       -1.4384144600   -1.1462029497   -1.2634338631
C       -2.0074617742   -2.2291361840   -0.4013763837
N       -1.3954175970   -3.5880193834   -0.6080130349
O       -0.1559714349   -3.5005559865   -1.3421374430
S       -1.8899925325   -0.9960036385   -2.9406575842
H        0.5402297331    1.4932508174   -1.9345955370
H       -0.0942181816   -0.1104852390    0.0736529422
H       -0.7629355601    0.8400753758   -4.1344784936
H       -1.8865355443   -1.9133995470    0.6420357358
H       -3.0817282754   -2.3388324316   -0.5849536179
H       -1.0851677800   -3.9298902762    0.2992996961
H       -0.3702887874   -3.9451620420   -2.1773070465
15   
torsion grid (30,)
C       -0.1919087859    0.6753102179   -2.0249854053
C       -0.5290858110   -0.1768834411   -0.9255913524
C       -0.8374699290    0.3228243415   -3.1817162540
C       -1.4252837083   -1.1607652933   -1.2552947066
C       -1.9818659625   -2.2334313369   -0.3733568844
N       -1.4672872379   -3.6003770403   -0.6943530905
O       -0.1308690735   -3.5326162466   -1.2338179232
S       -1.8710214707   -1.0490254941   -2.9390074636
H        0.4984768193    1.5099994514   -1.9588597024
H       -0.1124532122   -0.0756418585    0.0717851093
H       -0.7724116708    0.7894592751   -4.1564978847
H       -1.7412405361   -1.9439580642    0.6592347642
H       -3.0731690032   -2.2904201990   -0.4531016258
H       -1.3371720558   -4.1077331306    0.1790415616
H       -0.2597717923   -3.8092045351   -2.1546220598
15   
torsion grid (45,)
C       -0.2116710890    0.6997910039   -2.0326242522
C       -0.5302128097   -0.1456721046   -0.9216391727
C       -0.8394425393    0.3100442704   -3.1867576702
C       -1.3958743120   -1.1593159333   -1.2411214558
C       -1.9380524237   -2.2263781441   -0.3420632901
N       -1.5378470457   -3.5880071695   -0.7720572443
O       -0.1344382568   -3.6012797874   -1.1075519784
S       -1.8339932363   -1.0889935448   -2.9301560054
H        0.4565720354    1.5530076242   -1.9762298973
H       -0.1221278428   -0.0179719482    0.0761736032
H       -0.7771291782    0.7593251984   -4.1698807337
H       -1.5857754433   -1.9891014167    0.6732807452
H       -3.0344418065   -2.2266402057   -0.3229464970
H       -1.5963728580   -4.2146948556    0.0295733898
H       -0.1478473529   -3.7260762015   -2.0697469962
15   
torsion grid (60,)
C       -0.2418582518    0.7331548777   -2.0403059100
C       -0.5284458608   -0.1155135053   -0.9225270241
C       -0.8495072929    0.3063554680   -3.1920075331
C       -1.3513027387   -1.1661158339   -1.2364229354
C       -1.8674432589   -2.2401041636   -0.3278464254
N       -1.5832223424   -3.5851383730   -0.8568764741
O       -0.1526153746   -3.7355172659   -0.9892517662
S       -1.7829199958   -1.1334533993   -2.9281619302
H        0.3922770122    1.6124409132   -1.9903430208
H       -0.1308735594    0.0387249828    0.0758985155
H       -0.7984419725    0.7459760896   -4.1801829717
H       -1.4198765776   -2.0752081647    0.6639646149
H       -2.9584646717   -2.1875324030   -0.2189623794
H       -1.8273780114   -4.2735477937   -0.1449348659
H       -0.0287406812   -3.7603208883   -1.9517774827
15   
torsion grid (75,)
C       -0.2713813143    0.8131522673   -2.0568323102
C       -0.5238637005   -0.0419397521   -0.9355769616
C       -0.8388598127    0.3422286745   -3.2119579100
C       -1.2820519670   -1.1400795356   -1.2520741612
C       -1.7721251270   -2.2255475112   -0.3399235637
N       -1.6125979594   -3.5535872855   -0.9459115713
O       -0.2116336066   -3.9074818226   -0.8873799928
S       -1.6892345902   -1.1484464725   -2.9491533463
H        0.3124817290    1.7266622533   -2.0069164504
H       -0.1521551249    0.1451992829    0.0674007775
H       -0.7954495495    0.7734614441   -4.2042391723
H       -1.2472503563   -2.1410073470    0.6223246244
H       -2.8485391434   -2.1141377340   -0.1496343565
H       -2.0460161193   -4.2408470203   -0.3288047560
H        0.0505562719   -3.9085096398   -1.8224309413
15   
torsion grid (90,)
C       -0.3385190904    0.8874595284   -2.0508287379
C       -0.5492254537    0.0156125339   -0.9339627225
C       -0.8531788252    0.3788559695   -3.2149736004
C       -1.2234652246   -1.1327465822   -1.2646463143
C       -1.6743907118   -2.2438550573   -0.3595306585
N       -1.6218914140   -3.5503076339   -1.0296040187
O       -0.3130389101   -4.1233078570   -0.8015597097
S       -1.5986811470   -1.1693406025   -2.9673611483
H        0.1801502665    1.8390358693   -1.9914549031
H       -0.2116386159    0.2298169730    0.0758637203
H       -0.8206956743    0.8118779417   -4.2069164081
H       -1.0826622921   -2.2364758579    0.5648720797
H       -2.7272383234   -2.0872748187   -0.0849441762
H       -2.2309580035   -4.1902601328   -0.5200977821
H        0.0697563153   -4.1568046897   -1.6936020077
15   
torsion grid (105,)
C       -0.4029564488    0.9505155798   -2.0496813634
C       -0.5780775697    0.0701571359   -0.9335832560
C       -0.8525636141    0.4017741687   -3.2227585696
C       -1.1589496703   -1.1257055043   -1.2749913167
C       -1.5628447071   -2.2602469391   -0.3725415327
N       -1.6001558085   -3.5487703637   -1.0865340888
O       -0.4389078509   -4.3236499776   -0.7027279461
S       -1.4888162456   -1.1958509034   -2.9846749827
H        0.0452093578    1.9368736308   -1.9829602493
H       -0.2836734807    0.3140017791    0.0831791719
H       -0.8269619257    0.8320926131   -4.2160602571
H       -0.8974200896   -2.3167038375    0.4961028233
H       -2.5778621707   -2.0690194916    0.0029537334
H       -2.3622625538   -4.1030910911   -0.6990669822
H        0.0391986230   -4.4312419409   -1.5413811018
15   
torsion grid (120,)
C       -0.5643169597    1.0573141929   -2.0437280979
C       -0.7697012914    0.2117558481   -0.9065702306
C       -0.7290460875    0.3885084998   -3.2293672990
C       -1.0872990792   -1.0798121451   -1.2468255732
C       -1.3668102432   -2.2493971128   -0.3354212633
N       -1.6495982064   -3.4768848993   -1.1056504803
O       -0.6737452343   -4.4876731387   -0.7639812901
S       -1.1408805531   -1.2784370825   -2.9762497142
H       -0.3061979280    2.1098221514   -1.9801638436
H       -0.6824125948    0.5493631962    0.1223904472
H       -0.6365159175    0.7776411941   -4.2355836492
H       -0.5140825452   -2.4394584038    0.3238937165
H       -2.2231263643   -2.0065963632    0.3073716034
H       -2.5200397047   -3.8853168881   -0.7715640819
H       -0.2369278631   -4.6622100241   -1.6137477234
15   
torsion grid (135,)
C       -0.7278561191    1.0975964633   -2.0416961227
C       -0.9700324488    0.2352230334   -0.9242511332
C       -0.5871200268    0.4040793126   -3.2159890688
C       -1.0055462099   -1.0937251224   -1.2667385305
C       -1.1425695166   -2.2868420948   -0.3589716911
N       -1.6855136743   -3.4534017595   -1.0853484731
O       -0.9195665181   -4.6294083054   -0.7369605156
S       -0.7600255767   -1.3065010915   -2.9780975469
H       -0.6726733918    2.1795883502   -1.9749367945
H       -1.1077247918    0.5870886498    0.0942463976
H       -0.4223964281    0.7990054027   -4.2106643557
H       -0.1600224118   -2.5874381868    0.0179109024
H       -1.7489813637   -2.0121837862    0.5140611588
H       -2.6207373417   -3.6674302423   -0.7438989923
H       -0.5826873986   -4.9237814845   -1.5986401173
15   
torsion grid (150,)
C       -0.7954257553    1.1100484127   -2.0339145984
C       -1.0190469153    0.2161971128   -0.9376091720
C       -0.5584837073    0.4454199642   -3.2093600287
C       -0.9424489013   -1.1071007057   -1.2956234653
C       -1.0291345735   -2.3151453216   -0.4055090943
N       -1.6531553534   -3.4456363498   -1.1177119949
O       -1.1171655069   -4.6810933351   -0.5918299346
S       -0.6138888734   -1.2763597361   -2.9988373106
H       -0.8211086589    2.1920457338   -1.9525726627
H       -1.2233592896    0.5412279086    0.0784685197
H       -0.3836343380    0.8656614008   -4.1918907834
H       -0.0231138541   -2.6523790043   -0.1373633402
H       -1.5374503571   -2.0479530583    0.5314121066
H       -2.6459248794   -3.4902717390   -0.8905349548
H       -0.7445650978   -5.1005092147   -1.3839972315
15   
torsion grid (165,)
C       -0.8788112532    1.1059446157   -2.0251837464
C       -1.0634281351    0.1801550349   -0.9486805128
C       -0.5636281810    0.4799134099   -3.2035015710
C       -0.8799298977   -1.1284639057   -1.3226440674
C       -0.9158721310   -2.3519157405   -0.4532126230
N       -1.5954650906   -3.4534729939   -1.1539938274
O       -1.2991131557   -4.6822458020   -0.4509445127
S       -0.4947581689   -1.2438012482   -3.0193574860
H       -0.9845381906    2.1817184300   -1.9285659020
H       -1.3166456400    0.4717838330    0.0663862829
H       -0.3930921653    0.9280959836   -4.1743869079
H        0.1013019960   -2.7048720237   -0.2553085241
H       -1.3665756699   -2.1018983544    0.5180196972
H       -2.6048821633   -3.3444237996   -1.0494825561
H       -0.9027190015   -5.2313499550   -1.1463375342
15   
torsion grid (180,)
C       -0.9320206528    1.0966947744   -1.9904784677
C       -1.0798929653    0.1384567900   -0.9374159964
C       -0.5307900531    0.5206661687   -3.1682750295
C       -0.7844349470   -1.1452990978   -1.3268453343
C       -0.7843587682   -2.3869462318   -0.4849174541
N       -1.5301765110   -3.4548315024   -1.1697788282
O       -1.4956314913   -4.6213396624   -0.3136806856
S       -0.3336655820   -1.1950866743   -3.0112062972
H       -1.1207632743    2.1594402774   -1.8782425921
H       -1.3873241879    0.3890207148    0.0735483317
H       -0.3589606243    1.0006769708   -4.1235756700
H        0.2346221754   -2.7605421378   -0.3395104283
H       -1.1930988876   -2.1518886480    0.5082789006
H       -2.5177761022   -3.1938281791   -1.1859633610
H       -1.1117539300   -5.2990619632   -0.8930573727
