
  -OEChem-05262117483D

 16 16  0     0  0  0  0  0  0999 V2000
    1.4034   -0.0564    1.6504 C   0  0  0  0  0  0  0  0  0  0  0  0
    1.6650   -0.6121    2.8954 C   0  0  0  0  0  0  0  0  0  0  0  0
    0.2320   -0.4139    0.9713 C   0  0  0  0  0  0  0  0  0  0  0  0
   -0.6441   -1.3310    1.5814 C   0  0  0  0  0  0  0  0  0  0  0  0
    0.7212   -1.5158    3.4076 C   0  0  0  0  0  0  0  0  0  0  0  0
   -1.9357   -1.7840    0.9344 C   0  0  0  0  0  0  0  0  0  0  0  0
   -0.0519    0.1920   -0.3849 C   0  0  0  0  0  0  0  0  0  0  0  0
   -0.3848   -1.8642    2.7853 N   0  0  0  0  0  0  0  0  0  0  0  0
   -2.6886   -2.5741    1.4618 O   0  0  0  0  0  0  0  0  0  0  0  0
    0.9255    1.0421   -0.7692 F   0  0  0  0  0  0  0  0  0  0  0  0
   -0.1562   -0.7562   -1.3501 F   0  0  0  0  0  0  0  0  0  0  0  0
   -1.2138    0.8931   -0.3918 F   0  0  0  0  0  0  0  0  0  0  0  0
    1.0174   -2.2369    4.9752 Cl  0  0  0  0  0  0  0  0  0  0  0  0
    2.0999    0.6476    1.2084 H   0  0  0  0  0  0  0  0  0  0  0  0
    2.5596   -0.3629    3.4550 H   0  0  0  0  0  0  0  0  0  0  0  0
   -2.1621   -1.3535   -0.0556 H   0  0  0  0  0  0  0  0  0  0  0  0
  1  2  1  0  0  0  0
  1  3  2  0  0  0  0
  1 14  1  0  0  0  0
  2  5  2  0  0  0  0
  2 15  1  0  0  0  0
  3  4  1  0  0  0  0
  3  7  1  0  0  0  0
  4  6  1  0  0  0  0
  4  8  2  0  0  0  0
  5  8  1  0  0  0  0
  5 13  1  0  0  0  0
  6  9  2  0  0  0  0
  6 16  1  0  0  0  0
  7 10  1  0  0  0  0
  7 11  1  0  0  0  0
  7 12  1  0  0  0  0
M  END
$$$$
