14
0 1 C5ClF3H2N2S
C                    -1.121750300979    -1.433002043798     1.254649844789
C                    -0.576212073978    -3.585364539721     0.680729092258
C                     0.036820446658    -0.974179805846     0.605991928975
C                     0.574640264201    -3.102987163592     0.040187257284
C                    -0.685365986400     1.655427015511     1.333243445205
N                    -1.411927640760    -2.737989886628     1.281918542251
N                     0.878977280159    -1.818575953257     0.001499984554
F                    -0.799699035559     1.319800539560     2.637321939333
F                    -1.912879211068     1.524115971727     0.783690371874
F                    -0.333523996684     2.951424201033     1.264928376550
S                     0.605505826789     0.715337260669     0.454255216370
Cl                    1.662467935262    -4.223115240081    -0.743360665377
H                    -1.817817192514    -0.767471804756     1.751362536303
H                    -0.812642334417    -4.645436194027     0.703199194898
