
  -OEChem-05262117483D

 33 34  0     0  0  0  0  0  0999 V2000
    6.1925    0.1616    3.1319 C   0  0  0  0  0  0  0  0  0  0  0  0
    5.5818    1.4093    2.9888 C   0  0  0  0  0  0  0  0  0  0  0  0
    5.9813   -0.8205    2.1604 C   0  0  0  0  0  0  0  0  0  0  0  0
    1.5895   -1.5062   -0.6905 C   0  0  0  0  0  0  0  0  0  0  0  0
    0.3318   -1.0908   -0.2683 C   0  0  0  0  0  0  0  0  0  0  0  0
    4.7771    1.6801    1.8747 C   0  0  0  0  0  0  0  0  0  0  0  0
    2.3739   -1.4236    1.5945 C   0  0  0  0  0  0  0  0  0  0  0  0
    1.1088   -1.0472    2.0421 C   0  0  0  0  0  0  0  0  0  0  0  0
    2.6390   -1.6300    0.2298 C   0  0  0  0  0  0  0  0  0  0  0  0
    5.1281   -0.5884    1.0780 C   0  0  0  0  0  0  0  0  0  0  0  0
    0.0753   -0.8495    1.0937 C   0  0  0  0  0  0  0  0  0  0  0  0
    4.5558    0.6937    0.9078 C   0  0  0  0  0  0  0  0  0  0  0  0
    0.8330   -0.8559    3.5138 C   0  0  0  0  0  0  0  0  0  0  0  0
    2.9281    1.9921   -0.2695 C   0  0  0  0  0  0  0  0  0  0  0  0
    3.8875   -2.0588   -0.3054 N   0  0  0  0  0  0  0  0  0  0  0  0
    4.9987   -1.6431    0.1113 N   0  0  0  0  0  0  0  0  0  0  0  0
   -1.2160   -0.5114    1.5200 N   0  0  0  0  0  0  0  0  0  0  0  0
    3.8153    0.8800   -0.2229 O   0  0  0  0  0  0  0  0  0  0  0  0
    6.8340   -0.0438    3.9842 H   0  0  0  0  0  0  0  0  0  0  0  0
    5.7421    2.1866    3.7313 H   0  0  0  0  0  0  0  0  0  0  0  0
    6.4502   -1.7978    2.2395 H   0  0  0  0  0  0  0  0  0  0  0  0
    1.7877   -1.7102   -1.7387 H   0  0  0  0  0  0  0  0  0  0  0  0
   -0.4716   -0.9716   -0.9927 H   0  0  0  0  0  0  0  0  0  0  0  0
    4.3319    2.6629    1.7644 H   0  0  0  0  0  0  0  0  0  0  0  0
    3.1589   -1.5777    2.3265 H   0  0  0  0  0  0  0  0  0  0  0  0
    0.5501    0.1807    3.7452 H   0  0  0  0  0  0  0  0  0  0  0  0
    0.0142   -1.5009    3.8550 H   0  0  0  0  0  0  0  0  0  0  0  0
    1.7182   -1.0865    4.1108 H   0  0  0  0  0  0  0  0  0  0  0  0
    2.3308    1.8561   -1.1717 H   0  0  0  0  0  0  0  0  0  0  0  0
    3.4739    2.9415   -0.3347 H   0  0  0  0  0  0  0  0  0  0  0  0
    2.2678    2.0015    0.6059 H   0  0  0  0  0  0  0  0  0  0  0  0
   -1.8082   -0.1208    0.7965 H   0  0  0  0  0  0  0  0  0  0  0  0
   -1.2629    0.0332    2.3728 H   0  0  0  0  0  0  0  0  0  0  0  0
  1  2  1  0  0  0  0
  1  3  2  0  0  0  0
  1 19  1  0  0  0  0
  2  6  2  0  0  0  0
  2 20  1  0  0  0  0
  3 10  1  0  0  0  0
  3 21  1  0  0  0  0
  4  5  2  0  0  0  0
  4  9  1  0  0  0  0
  4 22  1  0  0  0  0
  5 11  1  0  0  0  0
  5 23  1  0  0  0  0
  6 12  1  0  0  0  0
  6 24  1  0  0  0  0
  7  8  1  0  0  0  0
  7  9  2  0  0  0  0
  7 25  1  0  0  0  0
  8 11  2  0  0  0  0
  8 13  1  0  0  0  0
  9 15  1  0  0  0  0
 10 12  2  0  0  0  0
 10 16  1  0  0  0  0
 11 17  1  0  0  0  0
 12 18  1  0  0  0  0
 13 26  1  0  0  0  0
 13 27  1  0  0  0  0
 13 28  1  0  0  0  0
 14 18  1  0  0  0  0
 14 29  1  0  0  0  0
 14 30  1  0  0  0  0
 14 31  1  0  0  0  0
 15 16  2  0  0  0  0
 17 32  1  0  0  0  0
 17 33  1  0  0  0  0
M  END
$$$$
