
  -OEChem-05262117483D

 27 28  0     0  0  0  0  0  0999 V2000
    1.4653   -1.7872   -2.4078 C   0  0  0  0  0  0  0  0  0  0  0  0
    1.5649   -1.5789   -1.2169 C   0  0  0  0  0  0  0  0  0  0  0  0
    0.9455   -0.1666    2.1810 C   0  0  0  0  0  0  0  0  0  0  0  0
    0.8246   -0.4008    0.8115 C   0  0  0  0  0  0  0  0  0  0  0  0
    1.9047   -0.8439    2.9319 C   0  0  0  0  0  0  0  0  0  0  0  0
    2.6491   -2.0185    0.9398 C   0  0  0  0  0  0  0  0  0  0  0  0
    5.9202   -3.0072    4.9786 C   0  0  0  0  0  0  0  0  0  0  0  0
    6.0044   -5.1514    3.9154 C   0  0  0  0  0  0  0  0  0  0  0  0
    1.6790   -1.3288    0.1894 C   0  0  0  0  0  0  0  0  0  0  0  0
    5.5049   -3.8425    3.9357 C   0  0  0  0  0  0  0  0  0  0  0  0
    2.7607   -1.7725    2.3142 C   0  0  0  0  0  0  0  0  0  0  0  0
    6.7844   -3.5037    5.9527 C   0  0  0  0  0  0  0  0  0  0  0  0
    7.2049   -4.8426    5.8437 C   0  0  0  0  0  0  0  0  0  0  0  0
    4.5996   -3.4136    2.8152 C   0  0  0  0  0  0  0  0  0  0  0  0
    6.8243   -5.6339    4.8528 N   0  0  0  0  0  0  0  0  0  0  0  0
    3.7170   -2.4084    3.1396 N   0  0  0  0  0  0  0  0  0  0  0  0
    4.6669   -3.9492    1.7125 O   0  0  0  0  0  0  0  0  0  0  0  0
    7.3132   -2.4587    7.2409 Cl  0  0  0  0  0  0  0  0  0  0  0  0
    8.2791   -5.5339    7.0315 Cl  0  0  0  0  0  0  0  0  0  0  0  0
    1.3814   -1.9749   -3.4573 H   0  0  0  0  0  0  0  0  0  0  0  0
    0.2897    0.5480    2.6702 H   0  0  0  0  0  0  0  0  0  0  0  0
    0.0800    0.1229    0.2205 H   0  0  0  0  0  0  0  0  0  0  0  0
    1.9909   -0.6523    3.9999 H   0  0  0  0  0  0  0  0  0  0  0  0
    3.2983   -2.7366    0.4597 H   0  0  0  0  0  0  0  0  0  0  0  0
    5.6195   -1.9649    5.0336 H   0  0  0  0  0  0  0  0  0  0  0  0
    5.7254   -5.8232    3.1087 H   0  0  0  0  0  0  0  0  0  0  0  0
    3.6661   -2.1518    4.1167 H   0  0  0  0  0  0  0  0  0  0  0  0
  1  2  3  0  0  0  0
  1 20  1  0  0  0  0
  2  9  1  0  0  0  0
  3  4  2  0  0  0  0
  3  5  1  0  0  0  0
  3 21  1  0  0  0  0
  4  9  1  0  0  0  0
  4 22  1  0  0  0  0
  5 11  2  0  0  0  0
  5 23  1  0  0  0  0
  6  9  2  0  0  0  0
  6 11  1  0  0  0  0
  6 24  1  0  0  0  0
  7 10  1  0  0  0  0
  7 12  2  0  0  0  0
  7 25  1  0  0  0  0
  8 10  2  0  0  0  0
  8 15  1  0  0  0  0
  8 26  1  0  0  0  0
 10 14  1  0  0  0  0
 11 16  1  0  0  0  0
 12 13  1  0  0  0  0
 12 18  1  0  0  0  0
 13 15  2  0  0  0  0
 13 19  1  0  0  0  0
 14 16  1  0  0  0  0
 14 17  2  0  0  0  0
 16 27  1  0  0  0  0
M  END
$$$$
