
  -OEChem-05262117483D

 44 47  0     1  0  0  0  0  0999 V2000
   -2.2289    2.4344   -2.9373 C   0  0  0  0  0  0  0  0  0  0  0  0
   -2.4429    0.2080   -3.8375 C   0  0  0  0  0  0  0  0  0  0  0  0
   -3.6171    2.5580   -2.8805 C   0  0  0  0  0  0  0  0  0  0  0  0
   -3.8369    0.3148   -3.7990 C   0  0  0  0  0  0  0  0  0  0  0  0
   -1.6214    1.2580   -3.4074 C   0  0  0  0  0  0  0  0  0  0  0  0
   -4.3984    1.4897   -3.3134 C   0  0  0  0  0  0  0  0  0  0  0  0
   -0.7860   -1.7149    1.0101 C   0  0  0  0  0  0  0  0  0  0  0  0
    0.5389    1.4628   -2.0682 C   0  0  0  0  0  0  0  0  0  0  0  0
   -1.9013    1.3370    0.4171 C   0  0  0  0  0  0  0  0  0  0  0  0
   -2.3730   -0.0484   -0.0626 C   0  0  0  0  0  0  0  0  0  0  0  0
   -0.9040    1.3694    1.5851 C   0  0  0  0  0  0  0  0  0  0  0  0
    0.6194    0.2665   -4.3778 C   0  0  0  0  0  0  0  0  0  0  0  0
    0.6134    1.7581   -4.6084 C   0  0  0  0  0  0  0  0  0  0  0  0
   -0.1718   -0.8073   -1.2929 C   0  0  0  0  0  0  0  0  0  0  0  0
    1.1748    0.7142    0.1604 C   0  0  0  0  0  0  0  0  0  0  0  0
   -1.3114   -1.1482   -0.3059 C   0  0  1  0  0  0  0  0  0  0  0  0
    0.3578    0.4946    1.4458 C   0  0  2  0  0  0  0  0  0  0  0  0
   -0.1199    1.1795   -3.4180 C   0  0  0  0  0  0  0  0  0  0  0  0
    0.0903   -0.9272    1.7037 N   0  0  0  0  0  0  0  0  0  0  0  0
    0.4668    0.4904   -1.1008 N   0  0  0  0  0  0  0  0  0  0  0  0
   -1.1169   -2.8290    1.4169 O   0  0  0  0  0  0  0  0  0  0  0  0
    1.0983    2.5445   -1.8647 O   0  0  0  0  0  0  0  0  0  0  0  0
   -5.7509    1.6013   -3.2617 F   0  0  0  0  0  0  0  0  0  0  0  0
   -1.6013    3.2595   -2.6117 H   0  0  0  0  0  0  0  0  0  0  0  0
   -2.0002   -0.7148   -4.2014 H   0  0  0  0  0  0  0  0  0  0  0  0
   -4.0940    3.4612   -2.5123 H   0  0  0  0  0  0  0  0  0  0  0  0
   -4.4797   -0.4956   -4.1288 H   0  0  0  0  0  0  0  0  0  0  0  0
   -1.4820    1.8926   -0.4198 H   0  0  0  0  0  0  0  0  0  0  0  0
   -2.7930    1.8981    0.7212 H   0  0  0  0  0  0  0  0  0  0  0  0
   -3.0842   -0.4604    0.6639 H   0  0  0  0  0  0  0  0  0  0  0  0
   -2.9354    0.0924   -0.9907 H   0  0  0  0  0  0  0  0  0  0  0  0
   -0.5815    2.4081    1.7254 H   0  0  0  0  0  0  0  0  0  0  0  0
   -1.4020    1.0669    2.5144 H   0  0  0  0  0  0  0  0  0  0  0  0
    0.0416   -0.3618   -5.0492 H   0  0  0  0  0  0  0  0  0  0  0  0
    1.5389   -0.1891   -4.0210 H   0  0  0  0  0  0  0  0  0  0  0  0
    1.5147    2.3236   -4.3982 H   0  0  0  0  0  0  0  0  0  0  0  0
    0.0005    2.1405   -5.4185 H   0  0  0  0  0  0  0  0  0  0  0  0
    0.5923   -1.5948   -1.2256 H   0  0  0  0  0  0  0  0  0  0  0  0
   -0.5713   -0.8435   -2.3002 H   0  0  0  0  0  0  0  0  0  0  0  0
    1.5344    1.7426    0.1374 H   0  0  0  0  0  0  0  0  0  0  0  0
    2.0460    0.0463    0.2006 H   0  0  0  0  0  0  0  0  0  0  0  0
   -1.8360   -1.9995   -0.7482 H   0  0  0  0  0  0  0  0  0  0  0  0
    1.0394    0.7922    2.2493 H   0  0  0  0  0  0  0  0  0  0  0  0
    0.3476   -1.3026    2.6097 H   0  0  0  0  0  0  0  0  0  0  0  0
  1  3  1  0  0  0  0
  1  5  2  0  0  0  0
  1 24  1  0  0  0  0
  2  4  2  0  0  0  0
  2  5  1  0  0  0  0
  2 25  1  0  0  0  0
  3  6  2  0  0  0  0
  3 26  1  0  0  0  0
  4  6  1  0  0  0  0
  4 27  1  0  0  0  0
  5 18  1  0  0  0  0
  6 23  1  0  0  0  0
  7 16  1  0  0  0  0
  7 19  1  0  0  0  0
  7 21  2  0  0  0  0
  8 18  1  0  0  0  0
  8 20  1  0  0  0  0
  8 22  2  0  0  0  0
  9 10  1  0  0  0  0
  9 11  1  0  0  0  0
  9 28  1  0  0  0  0
  9 29  1  0  0  0  0
 10 16  1  0  0  0  0
 10 30  1  0  0  0  0
 10 31  1  0  0  0  0
 11 17  1  0  0  0  0
 11 32  1  0  0  0  0
 11 33  1  0  0  0  0
 12 13  1  0  0  0  0
 12 18  1  0  0  0  0
 12 34  1  0  0  0  0
 12 35  1  0  0  0  0
 13 18  1  0  0  0  0
 13 36  1  0  0  0  0
 13 37  1  0  0  0  0
 14 16  1  0  0  0  0
 14 20  1  0  0  0  0
 14 38  1  0  0  0  0
 14 39  1  0  0  0  0
 15 17  1  0  0  0  0
 15 20  1  0  0  0  0
 15 40  1  0  0  0  0
 15 41  1  0  0  0  0
 16 42  1  0  0  0  0
 17 19  1  0  0  0  0
 17 43  1  0  0  0  0
 19 44  1  0  0  0  0
M  END
$$$$
