27
0 1 C14Cl2H8N2O
C                     0.951827503345     2.817217399008     1.958306492219
C                     1.201033165295     1.650070763161     1.740192219231
C                     1.069993727006    -1.792046892075     0.295818284178
C                     0.761871829258    -0.452824554030     0.526034617720
C                     2.094620694859    -2.438231137268     0.992991351879
C                     2.526011571568    -0.368293542976     2.189089103585
C                     6.406973421647    -4.858947334379     3.317942671974
C                     5.675765300330    -3.169289665479     4.847527997096
C                     1.496359208832     0.272203841112     1.483436087502
C                     5.513528944558    -3.824405956312     3.621956794581
C                     2.828014561478    -1.716126668469     1.949271886744
C                     7.428321607502    -5.165729122592     4.208843050245
C                     7.511822368737    -4.420957093968     5.404314462513
C                     4.417834805547    -3.538480947010     2.632112914666
N                     6.653213929058    -3.463600583081     5.711832473811
N                     3.875891358715    -2.278188702586     2.714839934150
O                     4.069525714017    -4.391972428274     1.819350885657
Cl                    8.548406624842    -6.441526936635     3.830134548331
Cl                    8.774671475732    -4.740643016633     6.563720405249
H                     0.729077786161     3.846001217896     2.147663047743
H                     0.504768493778    -2.353030822878    -0.443389155027
H                    -0.035136514813     0.039640691310    -0.021818394446
H                     2.330707259991    -3.475578091195     0.802949167903
H                     3.088325890920     0.197955769866     2.928022423704
H                     6.288295854047    -5.411319937974     2.391458401892
H                     4.983845433009    -2.398639310181     5.182676620734
H                     4.329185218846    -1.631876116045     3.347143993401
