
  -OEChem-05262117483D

 27 28  0     0  0  0  0  0  0999 V2000
   -0.2074   -3.1281   -1.4257 C   0  0  0  0  0  0  0  0  0  0  0  0
    0.4451   -2.4899   -0.6267 C   0  0  0  0  0  0  0  0  0  0  0  0
    1.6816    0.3570    1.4448 C   0  0  0  0  0  0  0  0  0  0  0  0
    0.9274   -0.3701    0.5240 C   0  0  0  0  0  0  0  0  0  0  0  0
    2.7102   -0.2569    2.1574 C   0  0  0  0  0  0  0  0  0  0  0  0
    2.2500   -2.3593    1.0302 C   0  0  0  0  0  0  0  0  0  0  0  0
    5.7802   -3.0880    4.9033 C   0  0  0  0  0  0  0  0  0  0  0  0
    6.6453   -4.6697    3.3273 C   0  0  0  0  0  0  0  0  0  0  0  0
    1.2122   -1.7317    0.3167 C   0  0  0  0  0  0  0  0  0  0  0  0
    5.6823   -3.7051    3.6515 C   0  0  0  0  0  0  0  0  0  0  0  0
    2.9985   -1.6177    1.9531 C   0  0  0  0  0  0  0  0  0  0  0  0
    6.8241   -3.4340    5.7593 C   0  0  0  0  0  0  0  0  0  0  0  0
    7.7477   -4.4009    5.3192 C   0  0  0  0  0  0  0  0  0  0  0  0
    4.5882   -3.4357    2.6568 C   0  0  0  0  0  0  0  0  0  0  0  0
    7.6532   -4.9964    4.1404 N   0  0  0  0  0  0  0  0  0  0  0  0
    4.0472   -2.1717    2.7234 N   0  0  0  0  0  0  0  0  0  0  0  0
    4.2386   -4.2993    1.8572 O   0  0  0  0  0  0  0  0  0  0  0  0
    6.9357   -2.6771    7.3232 Cl  0  0  0  0  0  0  0  0  0  0  0  0
    9.0845   -4.8765    6.3337 Cl  0  0  0  0  0  0  0  0  0  0  0  0
   -0.7791   -3.6953   -2.1294 H   0  0  0  0  0  0  0  0  0  0  0  0
    1.4691    1.4092    1.6112 H   0  0  0  0  0  0  0  0  0  0  0  0
    0.1250    0.1012   -0.0344 H   0  0  0  0  0  0  0  0  0  0  0  0
    3.2914    0.3199    2.8746 H   0  0  0  0  0  0  0  0  0  0  0  0
    2.4709   -3.4036    0.8625 H   0  0  0  0  0  0  0  0  0  0  0  0
    5.0418   -2.3701    5.2485 H   0  0  0  0  0  0  0  0  0  0  0  0
    6.5896   -5.1896    2.3751 H   0  0  0  0  0  0  0  0  0  0  0  0
    4.5178   -1.5121    3.3288 H   0  0  0  0  0  0  0  0  0  0  0  0
  1  2  3  0  0  0  0
  1 20  1  0  0  0  0
  2  9  1  0  0  0  0
  3  4  2  0  0  0  0
  3  5  1  0  0  0  0
  3 21  1  0  0  0  0
  4  9  1  0  0  0  0
  4 22  1  0  0  0  0
  5 11  2  0  0  0  0
  5 23  1  0  0  0  0
  6  9  2  0  0  0  0
  6 11  1  0  0  0  0
  6 24  1  0  0  0  0
  7 10  1  0  0  0  0
  7 12  2  0  0  0  0
  7 25  1  0  0  0  0
  8 10  2  0  0  0  0
  8 15  1  0  0  0  0
  8 26  1  0  0  0  0
 10 14  1  0  0  0  0
 11 16  1  0  0  0  0
 12 13  1  0  0  0  0
 12 18  1  0  0  0  0
 13 15  2  0  0  0  0
 13 19  1  0  0  0  0
 14 16  1  0  0  0  0
 14 17  2  0  0  0  0
 16 27  1  0  0  0  0
M  END
$$$$
