
  -OEChem-05262117483D

 27 28  0     0  0  0  0  0  0999 V2000
   -0.3399   -3.1032   -1.6034 C   0  0  0  0  0  0  0  0  0  0  0  0
    0.2995   -2.4884   -0.7760 C   0  0  0  0  0  0  0  0  0  0  0  0
    1.5153    0.3008    1.3841 C   0  0  0  0  0  0  0  0  0  0  0  0
    0.7754   -0.3986    0.4309 C   0  0  0  0  0  0  0  0  0  0  0  0
    2.5213   -0.3384    2.1066 C   0  0  0  0  0  0  0  0  0  0  0  0
    2.0664   -2.4116    0.9245 C   0  0  0  0  0  0  0  0  0  0  0  0
    6.2771   -4.9229    3.3299 C   0  0  0  0  0  0  0  0  0  0  0  0
    5.5852   -3.1836    4.8215 C   0  0  0  0  0  0  0  0  0  0  0  0
    1.0518   -1.7583    0.2009 C   0  0  0  0  0  0  0  0  0  0  0  0
    5.4154   -3.8540    3.6053 C   0  0  0  0  0  0  0  0  0  0  0  0
    2.8010   -1.6976    1.8797 C   0  0  0  0  0  0  0  0  0  0  0  0
    7.2763   -5.2489    4.2389 C   0  0  0  0  0  0  0  0  0  0  0  0
    7.3708   -4.4866    5.4224 C   0  0  0  0  0  0  0  0  0  0  0  0
    4.3403   -3.5508    2.5977 C   0  0  0  0  0  0  0  0  0  0  0  0
    6.5420   -3.4951    5.7027 N   0  0  0  0  0  0  0  0  0  0  0  0
    3.8287   -2.2765    2.6597 N   0  0  0  0  0  0  0  0  0  0  0  0
    3.9802   -4.4039    1.7903 O   0  0  0  0  0  0  0  0  0  0  0  0
    8.3555   -6.5694    3.8968 Cl  0  0  0  0  0  0  0  0  0  0  0  0
    8.6077   -4.8294    6.6031 Cl  0  0  0  0  0  0  0  0  0  0  0  0
   -0.9004   -3.6494   -2.3323 H   0  0  0  0  0  0  0  0  0  0  0  0
    1.3091    1.3513    1.5687 H   0  0  0  0  0  0  0  0  0  0  0  0
   -0.0095    0.0927   -0.1352 H   0  0  0  0  0  0  0  0  0  0  0  0
    3.0911    0.2168    2.8493 H   0  0  0  0  0  0  0  0  0  0  0  0
    2.2799   -3.4547    0.7407 H   0  0  0  0  0  0  0  0  0  0  0  0
    6.1505   -5.4868    2.4114 H   0  0  0  0  0  0  0  0  0  0  0  0
    4.9158   -2.3846    5.1352 H   0  0  0  0  0  0  0  0  0  0  0  0
    4.2903   -1.6341    3.2898 H   0  0  0  0  0  0  0  0  0  0  0  0
  1  2  3  0  0  0  0
  1 20  1  0  0  0  0
  2  9  1  0  0  0  0
  3  4  2  0  0  0  0
  3  5  1  0  0  0  0
  3 21  1  0  0  0  0
  4  9  1  0  0  0  0
  4 22  1  0  0  0  0
  5 11  2  0  0  0  0
  5 23  1  0  0  0  0
  6  9  2  0  0  0  0
  6 11  1  0  0  0  0
  6 24  1  0  0  0  0
  7 10  1  0  0  0  0
  7 12  2  0  0  0  0
  7 25  1  0  0  0  0
  8 10  2  0  0  0  0
  8 15  1  0  0  0  0
  8 26  1  0  0  0  0
 10 14  1  0  0  0  0
 11 16  1  0  0  0  0
 12 13  1  0  0  0  0
 12 18  1  0  0  0  0
 13 15  2  0  0  0  0
 13 19  1  0  0  0  0
 14 16  1  0  0  0  0
 14 17  2  0  0  0  0
 16 27  1  0  0  0  0
M  END
$$$$
