27
0 1 C14Cl2H8N2O
C                    -0.339850410781    -3.103224922913    -1.603432840971
C                     0.299532684856    -2.488400412446    -0.776022027872
C                     1.515333556235     0.300836979677     1.384119547676
C                     0.775425179479    -0.398580714873     0.430914437299
C                     2.521251432054    -0.338413424773     2.106569436900
C                     2.066425328725    -2.411626647166     0.924534881782
C                     6.277064914434    -4.922897786443     3.329881962909
C                     5.585158244792    -3.183621583547     4.821514672023
C                     1.051762085111    -1.758280665774     0.200935323317
C                     5.415350432074    -3.853967007116     3.605254199653
C                     2.800982670818    -1.697573805423     1.879737599087
C                     7.276297572839    -5.248870673044     4.238851642091
C                     7.370829646876    -4.486620159281     5.422408063241
C                     4.340332712505    -3.550843722592     2.597672252010
N                     6.541979889813    -3.495146910984     5.702748226222
N                     3.828668182405    -2.276489350518     2.659723206601
O                     3.980190774035    -4.403944808660     1.790298464112
Cl                    8.355542164172    -6.569441641705     3.896818666364
Cl                    8.607686902809    -4.829354310688     6.603138360580
H                    -0.900390605325    -3.649394273114    -2.332276577344
H                     1.309073159689     1.351310581781     1.568727018198
H                    -0.009451422489     0.092665835351    -0.135156161816
H                     3.091052143117     0.216834902413     2.849334746164
H                     2.279942427613    -3.454663917724     0.740727056235
H                     6.150490557029    -5.486795578639     2.411400482118
H                     4.915797471842    -2.384558375573     5.135234428560
H                     4.290289704301    -1.634124796392     3.289821353607
