20
0 1 C7F3H7N2O
C                     1.810136799147    -1.225292627755    -0.000069285172
C                     0.684598287853    -0.596249025095     0.522189912446
C                     2.867057102620    -1.624576783187     0.829183440336
C                     1.635308433518    -0.740087826039     2.748684542180
C                     0.581268468061    -0.345499054707     1.906995612460
C                     2.743774989481    -1.372105383457     2.189732815911
C                     3.804198440797    -2.937533309836     3.603744822203
N                    -0.585215368038     0.898026093378     3.668764847245
N                    -0.578392098874     0.248615163685     2.414164395856
O                     3.818141328946    -1.703016530620     3.048850705075
F                     3.823107889906    -3.930231799172     2.683729605935
F                     2.715675367380    -3.150956358058     4.383455188774
F                     4.896707880227    -3.054654853016     4.370514504052
H                     1.872683931457    -1.404004370928    -1.069945180289
H                    -0.125243190964    -0.293394541426    -0.137840228005
H                     3.754019428758    -2.110557871995     0.438191137247
H                     1.602905817512    -0.579894062551     3.820070629680
H                     0.296987289554     1.391804190336     3.825503263468
H                    -0.691002496292     0.196997234141     4.399628643535
H                    -1.111398319421     0.776886888646     1.733818364397
