27
0 1 C9H14O3S
C                     0.160961843043    -0.351226403159    -0.475948248735
C                     0.676039285688     1.819858419519     0.649629739179
C                    -1.150268766842    -0.674284015464     1.605681897034
C                     1.034900546515     0.346573728953     0.583141554300
C                    -1.072165343276    -1.034446835266     0.118677345346
C                    -2.337309470667    -0.694849910953    -0.677694202746
C                     1.707263918584     3.641286526815     3.783413619404
C                     0.859629624693     4.203828244199     2.637197762608
C                     1.475180240377     3.979291167485     1.260392825136
O                     0.458308581509    -0.366194815575    -1.651795685072
O                    -0.446190412802     2.246866983951     0.434911021723
O                     1.732018066484     2.566030931506     1.010348470225
S                     0.587928083881    -0.442122029613     2.181574893029
H                    -1.707953574076     0.252217415836     1.759378671443
H                    -1.598156388545    -1.467123787225     2.207972548926
H                     2.095150332454     0.206200551895     0.373017444435
H                    -0.864684108447    -2.109432259150     0.032071615661
H                    -2.550125600255     0.376119031443    -0.612832877949
H                    -3.198279749948    -1.247987768296    -0.289439793752
H                    -2.200450326627    -0.956582144707    -1.730119870787
H                     1.814024939286     2.556072229160     3.697588230309
H                     2.711855480518     4.080051392702     3.788033754503
H                     1.242644480787     3.857140472265     4.750712576313
H                     0.732067991950     5.287521072705     2.756008143105
H                    -0.143779548973     3.767447887865     2.654071043647
H                     0.830963645390     4.363148844123     0.466514474306
H                     2.463461544658     4.438405003248     1.185414695718
