51
0 1 C22FH26NO
C                     0.337105192873     3.988568062038     1.812529966039
C                    -0.606902695872     4.142490265939    -0.405489472616
C                    -0.311098524850     5.171083819161     2.178687596332
C                    -1.256895413575     5.330083981116    -0.060396397373
C                     0.195569270606     3.459090130543     0.520186294065
C                     0.877564620428     2.184754554843     0.148284979620
C                     0.123579108556     1.039077792039    -0.132397153550
C                     2.288327304017     2.114904443644     0.093188985233
C                    -1.097101739808     5.820288745458     1.231943020016
C                     0.820213595568    -0.142452208483    -0.462457717141
C                     2.885552364726     0.880018753827    -0.218658425913
C                    -1.223032025045    -1.467828127384    -0.372240961547
C                     0.068921495155    -1.385510061341    -0.743264333957
C                    -1.387603798601     1.003713863320    -0.131810079061
C                    -1.957807314064    -0.348175775916     0.338175136275
C                     0.815495049383    -2.534152253856    -1.369461439484
C                    -3.458961312934    -0.406607745773     0.010432559372
C                    -1.760390733442    -0.508204229736     1.863083090491
C                     4.858574576660     0.295907095990    -1.663614154267
C                     4.786732552480    -0.422097709956     0.772134681499
C                     3.125506215124     3.341778189403     0.350025192058
C                     4.391661028653     0.663180215967    -0.244643445297
N                     2.157681917538    -0.209350558618    -0.504168867205
O                     3.578968046685     3.313105219669     1.718798187866
F                    -1.728763833018     6.972369494446     1.579896589130
H                     0.968611067679     3.474215629214     2.530178053628
H                    -0.720097638313     3.744474881663    -1.410270950958
H                    -0.212662731698     5.588156314155     3.176386937311
H                    -1.876151709095     5.869080985115    -0.770906434734
H                    -1.763493193593    -2.403016187809    -0.518704015780
H                    -1.793504637705     1.808979578547     0.486338981940
H                    -1.740124235835     1.188733578764    -1.157121109002
H                     1.641631603759    -2.854465897111    -0.727311784223
H                     1.264483005134    -2.236625314674    -2.323183862919
H                     0.148108308516    -3.382922521882    -1.542616647316
H                    -3.997210287903     0.412043226534     0.501542222035
H                    -3.898530427638    -1.349542791224     0.354910831239
H                    -3.631795595956    -0.328504131703    -1.068528932737
H                    -2.318266182058     0.264096147731     2.406446594952
H                    -0.703632897956    -0.423323459005     2.133679619327
H                    -2.117381649169    -1.486859864055     2.200990240844
H                     4.368334410363    -0.623342046306    -1.997251775881
H                     5.942790480964     0.138649715676    -1.683960488840
H                     4.615949915963     1.088537922130    -2.380669394043
H                     4.306388867873    -1.372326865287     0.522780484797
H                     4.481738240216    -0.136444279690     1.784008764330
H                     5.872730476916    -0.568085615972     0.769925710609
H                     3.983986302870     3.365999979737    -0.332353250314
H                     2.531993422508     4.243692026037     0.166967522833
H                     4.890098652661     1.585592282201     0.059783398493
H                     4.105136271067     4.114369767797     1.873002914188
