42
0 1 C20H20O2
C                    -7.513897415457     2.362965680499    -0.845018126430
C                    -7.239715880356     1.380831309282    -1.833061586721
C                    -6.655602756697     2.533756646265     0.220959388969
C                    -6.113260918802     0.591110597960    -1.736401071983
C                    -4.583993052380     1.871089795694     1.437267751877
C                    -3.457253192400     1.083519877519     1.526384411551
C                    -4.035509202770    -0.047040578422    -0.524509502540
C                    -5.485522727527     1.735551779603     0.346805688492
C                    -5.206966066374     0.746543676882    -0.650873199788
C                    -3.154211755715     0.112917563622     0.529129029085
C                     0.117220361732     2.139925312733    -0.729160210804
C                     0.443095535760    -1.145094704914    -0.059223386126
C                     0.241371420893     3.469535231414    -0.720839936353
C                     0.182423916014     1.250017887871    -1.950490174393
C                    -0.196371905432     1.269738872567     0.476958961332
C                    -0.816083367438     0.117148568260    -1.632464709272
C                    -0.466986817884    -1.265433492073    -2.191787076551
C                    -0.664206528708    -0.082528154688    -0.107884437461
C                     0.100095901439    -1.330529162998    -3.597801585324
C                    -1.891258982904    -0.709908532209     0.617281025163
O                     1.155273751360    -1.422516667249     0.877497891182
O                     0.517636628304    -1.799260895108    -1.253705697394
H                    -8.405149209731     2.978727406140    -0.932862300125
H                    -7.924522357107     1.253913034317    -2.667480166619
H                    -6.865013694435     3.283854039165     0.980303063520
H                    -5.904782804067    -0.162252368674    -2.493029469473
H                    -4.799593125063     2.604230853192     2.211268719687
H                    -2.793540153191     1.187791722706     2.381254203653
H                    -3.842083502042    -0.807196989792    -1.279783772590
H                     0.158477827007     4.043107758882     0.199862712862
H                     0.434027613288     4.028766495545    -1.633573801205
H                    -0.041020086962     1.777553961258    -2.881015707332
H                     1.196983811319     0.838653696242    -2.039573077853
H                     0.677495570788     1.119972964065     1.119700421926
H                    -0.973129389082     1.734277441503     1.086816588040
H                    -1.826627389810     0.419359477188    -1.915745631724
H                    -1.345718358730    -1.919420285901    -2.125573778066
H                     1.015752920035    -0.741110979593    -3.686074546020
H                    -0.635596308809    -0.940713575397    -4.309254796394
H                     0.329216435979    -2.364360919717    -3.870580388059
H                    -1.606614122067    -0.862366227596     1.663356026916
H                    -2.078870444281    -1.705535430019     0.200197057607
