49
0 1 C20H26O3
C                     1.032348541791     0.299287845144     4.807678809965
C                     3.328028890153    -0.251181567321     4.393699906111
C                     1.821048083974     0.083280888103     2.527662705009
C                     2.299108347749     0.003468994746     5.309834020297
C                     0.773796853576     0.341264488707     3.430514211910
C                     3.115658348944    -0.216686298868     3.013883193587
C                     1.723297850481    -1.198343008277     0.267786391468
C                     2.358161587527     1.145334231687     0.209937167432
C                     1.066181772510    -1.065631063079    -2.198544494903
C                     1.730132772127     1.255707929330    -2.270000060967
C                     1.573568031865     0.119267409686     1.039060837202
C                     2.199046371862    -0.907310475789    -1.153282050049
C                     2.614191275364     0.587032647247    -1.188497634521
C                     1.316628455564     0.095443661158    -3.180234198511
C                     2.558256222885    -0.066263654988     6.797101213218
C                    -1.407268716971    -0.675029128727     2.609801909155
C                     5.590389526652    -0.921439036346     2.670820068584
C                    -0.167550829580    -0.470436926295    -4.948962267077
C                    -0.647870447207     0.613236899458     2.978783726471
C                     4.258533430632    -0.490403131711     2.048752566757
O                     1.465327606311    -2.303730964690     0.699811656401
O                     2.692919646632     2.249500476674     0.587018952141
O                     0.192774331207     0.478174280297    -3.953788329084
H                     0.218048252839     0.503190296832     5.500746515573
H                     4.317041967139    -0.479468113286     4.778784395444
H                     1.071159223938    -2.055446616138    -2.658892927557
H                     0.080771545646    -0.917303870993    -1.740497120557
H                     0.820779735807     1.683372292495    -1.832739148463
H                     2.245286336914     2.057595710626    -2.801259001866
H                     0.528043781878     0.401155299589     0.851244340822
H                     3.028421776523    -1.581529450082    -1.382789614218
H                     3.674070679590     0.723080054613    -1.419728162646
H                     2.153177233031    -0.169410765765    -3.849649238583
H                     2.594392766207    -1.107335328548     7.140495592572
H                     3.516183096844     0.395475254288     7.057583419274
H                     1.772710841466     0.441303953396     7.364265468166
H                    -0.896307770307    -1.235854597414     1.821356620746
H                    -2.424382532622    -0.447400175406     2.271863103422
H                    -1.474807419157    -1.338034509835     3.478251330418
H                     6.006605654166    -0.143717899828     3.318805834089
H                     6.322730531709    -1.117848968452     1.881189724854
H                     5.483243545405    -1.836956584997     3.261299342256
H                    -0.975166684301    -0.025032585073    -5.533910390039
H                    -0.524248999182    -1.411654500651    -4.508701327255
H                     0.679457034912    -0.690260298795    -5.615984039713
H                    -1.181937779189     1.120742027889     3.788486878365
H                    -0.664952779703     1.314342738104     2.136034881257
H                     3.948994353979    -1.273129564961     1.345938618160
H                     4.437581714635     0.409933677459     1.449684699330
