27
0 1 C9H14O3S
C                     0.742846998350     1.010310353590    -0.314014587620
C                     0.706544192840    -0.349592356850    -0.267020931341
C                     1.864451675052     1.844324980772    -0.725765284992
C                    -1.614637157678     0.161894967677     0.189207761476
C                    -0.552098505675    -0.941550590866     0.322285177622
C                    -0.977895180209    -2.268571171371    -0.313000609999
C                     6.445966146046     1.499397051154    -2.482894768078
C                     5.157054754503     0.808087542119    -2.022472742749
C                     4.107715284996     1.819790309121    -1.590946756516
O                     1.903250376627     3.060111738996    -0.687823591202
O                     1.676939794243    -1.211601866088    -0.625742854517
O                     2.928111722358     1.083439368498    -1.172982243373
S                    -0.745890947377     1.786673208628     0.305539460042
H                    -2.101291317565     0.099042621827    -0.789752578373
H                    -2.375834381245     0.105099335467     0.969205497731
H                    -0.340856170279    -1.108572333196     1.390087433629
H                    -1.179527302910    -2.141600571363    -1.381696857986
H                    -1.888106716594    -2.643927266862     0.165509417363
H                    -0.194612613461    -3.022779498599    -0.202807531122
H                     6.259726751216     2.161871540518    -3.335313130877
H                     6.882753312652     2.103063457959    -1.679784502757
H                     7.193761543994     0.762431307156    -2.790522694775
H                     5.371823876087     0.134309959830    -1.184517787972
H                     4.750477912679     0.192987579040    -2.833822762916
H                     4.451135260652     2.432596378952    -0.752810918384
H                     3.826993939795     2.490615331288    -2.407772570164
H                     2.441132949296    -0.678981368101    -0.937322459661
