
  -OEChem-05262117483D

 51 53  0     0  0  0  0  0  0999 V2000
    0.3371    3.9886    1.8125 C   0  0  0  0  0  0  0  0  0  0  0  0
   -0.6069    4.1425   -0.4055 C   0  0  0  0  0  0  0  0  0  0  0  0
   -0.3111    5.1711    2.1787 C   0  0  0  0  0  0  0  0  0  0  0  0
   -1.2569    5.3301   -0.0604 C   0  0  0  0  0  0  0  0  0  0  0  0
    0.1956    3.4591    0.5202 C   0  0  0  0  0  0  0  0  0  0  0  0
    0.8776    2.1848    0.1483 C   0  0  0  0  0  0  0  0  0  0  0  0
    0.1236    1.0391   -0.1324 C   0  0  0  0  0  0  0  0  0  0  0  0
    2.2883    2.1149    0.0932 C   0  0  0  0  0  0  0  0  0  0  0  0
   -1.0971    5.8203    1.2319 C   0  0  0  0  0  0  0  0  0  0  0  0
    0.8202   -0.1425   -0.4625 C   0  0  0  0  0  0  0  0  0  0  0  0
    2.8856    0.8800   -0.2187 C   0  0  0  0  0  0  0  0  0  0  0  0
   -1.2230   -1.4678   -0.3722 C   0  0  0  0  0  0  0  0  0  0  0  0
    0.0689   -1.3855   -0.7433 C   0  0  0  0  0  0  0  0  0  0  0  0
   -1.3876    1.0037   -0.1318 C   0  0  0  0  0  0  0  0  0  0  0  0
   -1.9578   -0.3482    0.3382 C   0  0  0  0  0  0  0  0  0  0  0  0
    0.8155   -2.5342   -1.3695 C   0  0  0  0  0  0  0  0  0  0  0  0
   -3.4590   -0.4066    0.0104 C   0  0  0  0  0  0  0  0  0  0  0  0
   -1.7604   -0.5082    1.8631 C   0  0  0  0  0  0  0  0  0  0  0  0
    4.8586    0.2959   -1.6636 C   0  0  0  0  0  0  0  0  0  0  0  0
    4.7867   -0.4221    0.7721 C   0  0  0  0  0  0  0  0  0  0  0  0
    3.1255    3.3418    0.3500 C   0  0  0  0  0  0  0  0  0  0  0  0
    4.3917    0.6632   -0.2446 C   0  0  0  0  0  0  0  0  0  0  0  0
    2.1577   -0.2094   -0.5042 N   0  0  0  0  0  0  0  0  0  0  0  0
    3.5790    3.3131    1.7188 O   0  0  0  0  0  0  0  0  0  0  0  0
   -1.7288    6.9724    1.5799 F   0  0  0  0  0  0  0  0  0  0  0  0
    0.9686    3.4742    2.5302 H   0  0  0  0  0  0  0  0  0  0  0  0
   -0.7201    3.7445   -1.4103 H   0  0  0  0  0  0  0  0  0  0  0  0
   -0.2127    5.5882    3.1764 H   0  0  0  0  0  0  0  0  0  0  0  0
   -1.8762    5.8691   -0.7709 H   0  0  0  0  0  0  0  0  0  0  0  0
   -1.7635   -2.4030   -0.5187 H   0  0  0  0  0  0  0  0  0  0  0  0
   -1.7935    1.8090    0.4863 H   0  0  0  0  0  0  0  0  0  0  0  0
   -1.7401    1.1887   -1.1571 H   0  0  0  0  0  0  0  0  0  0  0  0
    1.6416   -2.8545   -0.7273 H   0  0  0  0  0  0  0  0  0  0  0  0
    1.2645   -2.2366   -2.3232 H   0  0  0  0  0  0  0  0  0  0  0  0
    0.1481   -3.3829   -1.5426 H   0  0  0  0  0  0  0  0  0  0  0  0
   -3.9972    0.4120    0.5015 H   0  0  0  0  0  0  0  0  0  0  0  0
   -3.8985   -1.3495    0.3549 H   0  0  0  0  0  0  0  0  0  0  0  0
   -3.6318   -0.3285   -1.0685 H   0  0  0  0  0  0  0  0  0  0  0  0
   -2.3183    0.2641    2.4064 H   0  0  0  0  0  0  0  0  0  0  0  0
   -0.7036   -0.4233    2.1337 H   0  0  0  0  0  0  0  0  0  0  0  0
   -2.1174   -1.4869    2.2010 H   0  0  0  0  0  0  0  0  0  0  0  0
    4.3683   -0.6233   -1.9973 H   0  0  0  0  0  0  0  0  0  0  0  0
    5.9428    0.1386   -1.6840 H   0  0  0  0  0  0  0  0  0  0  0  0
    4.6160    1.0885   -2.3807 H   0  0  0  0  0  0  0  0  0  0  0  0
    4.3064   -1.3723    0.5228 H   0  0  0  0  0  0  0  0  0  0  0  0
    4.4817   -0.1364    1.7840 H   0  0  0  0  0  0  0  0  0  0  0  0
    5.8727   -0.5681    0.7699 H   0  0  0  0  0  0  0  0  0  0  0  0
    3.9840    3.3660   -0.3324 H   0  0  0  0  0  0  0  0  0  0  0  0
    2.5320    4.2437    0.1670 H   0  0  0  0  0  0  0  0  0  0  0  0
    4.8901    1.5856    0.0598 H   0  0  0  0  0  0  0  0  0  0  0  0
    4.1051    4.1144    1.8730 H   0  0  0  0  0  0  0  0  0  0  0  0
  1  3  1  0  0  0  0
  1  5  2  0  0  0  0
  1 26  1  0  0  0  0
  2  4  2  0  0  0  0
  2  5  1  0  0  0  0
  2 27  1  0  0  0  0
  3  9  2  0  0  0  0
  3 28  1  0  0  0  0
  4  9  1  0  0  0  0
  4 29  1  0  0  0  0
  5  6  1  0  0  0  0
  6  7  1  0  0  0  0
  6  8  2  0  0  0  0
  7 10  2  0  0  0  0
  7 14  1  0  0  0  0
  8 11  1  0  0  0  0
  8 21  1  0  0  0  0
  9 25  1  0  0  0  0
 10 13  1  0  0  0  0
 10 23  1  0  0  0  0
 11 22  1  0  0  0  0
 11 23  2  0  0  0  0
 12 13  2  0  0  0  0
 12 15  1  0  0  0  0
 12 30  1  0  0  0  0
 13 16  1  0  0  0  0
 14 15  1  0  0  0  0
 14 31  1  0  0  0  0
 14 32  1  0  0  0  0
 15 17  1  0  0  0  0
 15 18  1  0  0  0  0
 16 33  1  0  0  0  0
 16 34  1  0  0  0  0
 16 35  1  0  0  0  0
 17 36  1  0  0  0  0
 17 37  1  0  0  0  0
 17 38  1  0  0  0  0
 18 39  1  0  0  0  0
 18 40  1  0  0  0  0
 18 41  1  0  0  0  0
 19 22  1  0  0  0  0
 19 42  1  0  0  0  0
 19 43  1  0  0  0  0
 19 44  1  0  0  0  0
 20 22  1  0  0  0  0
 20 45  1  0  0  0  0
 20 46  1  0  0  0  0
 20 47  1  0  0  0  0
 21 24  1  0  0  0  0
 21 48  1  0  0  0  0
 21 49  1  0  0  0  0
 22 50  1  0  0  0  0
 24 51  1  0  0  0  0
M  END
$$$$
