50
0 1 C22F4H19NO4
C                     5.592538499429     0.451781032446     0.228649894913
C                     1.246717330232     1.788703174742     0.989632251365
C                     6.939968947523     0.543377665243     0.574185489306
C                     0.539030659669     2.794404140823     1.651218892496
C                     8.645633750786    -1.662542041238    -1.735322778165
C                     6.070268810630    -1.132100245204    -1.574853874277
C                     9.648854262192    -1.167880953895    -0.964195464863
C                     7.427080824529    -1.060606271459    -1.238856312807
C                     5.155492252953    -0.380550858832    -0.829781400001
C                     0.578161277066     0.752060042381     0.330455795465
C                    -0.836554296786     0.690684513706     0.305114509575
C                     7.825790616308    -0.227451419658    -0.172095318797
C                    -1.541215544816     1.735790470275     0.928539721371
C                    -0.836953539824     2.742997517031     1.599017762041
C                     3.716672673030    -0.494432228783    -1.206012786349
C                    -0.673129959344    -1.741851232121    -0.130690768717
C                     1.370957873259    -0.237166467650    -0.512102704706
C                    -1.513804329348    -0.479416613760    -0.421050309503
C                     0.804253499767    -1.699069524809    -0.534946565209
C                    -1.617212848375    -0.176410351484    -1.933116323465
C                    -2.930219715652    -0.815933673789     0.097101726821
C                     1.577783695655    -2.624845369484     0.440398314226
N                     2.802065288015    -0.154770157464    -0.244793652248
O                     3.364385206062    -0.880242415867    -2.331059078168
O                     9.183309076492    -0.291084799321    -0.002882301264
O                    -2.908083396830     1.815095983376     0.883295921834
O                     0.919145502939    -2.246653238692    -1.836193474416
F                    -1.590947412695     3.718409464386     2.198631491637
F                     0.936638434615    -3.796370047147     0.635353712808
F                     2.820730273128    -2.934134065939     0.005956672688
F                     1.718959915005    -2.038152332295     1.668040028412
H                     4.876855717792     1.067260426170     0.765152262289
H                     2.327580817530     1.847551998655     0.958680533435
H                     7.284906492291     1.189342794028     1.375269466294
H                     1.035521557139     3.607319080879     2.171473249334
H                     8.753161570433    -2.363767944901    -2.552100277934
H                     5.707634696211    -1.750334376733    -2.389615145372
H                    10.718308953417    -1.325852797528    -0.959155999159
H                    -0.749332313780    -1.933637552434     0.943408711973
H                    -1.109778629690    -2.600950811753    -0.645017123688
H                     1.262956233630     0.086491437991    -1.549809372133
H                    -2.054820361368    -1.032490604705    -2.456852010169
H                    -0.650325543709     0.025448317273    -2.396968830022
H                    -2.261446572828     0.693696024170    -2.093292639981
H                    -3.235167682576    -1.780983151294    -0.321542683786
H                    -3.665401169348    -0.070052489732    -0.199671891560
H                    -2.952477618231    -0.898294132219     1.188044108485
H                     3.098557405286    -0.202134052577     0.721688482594
H                    -3.177160885441     2.608346010354     1.378375863523
H                     1.773344557634    -1.945066388448    -2.217428204833
