
  -OEChem-05262117483D

 37 37  0     1  0  0  0  0  0999 V2000
    1.0883    4.3240    2.7567 C   0  0  0  0  0  0  0  0  0  0  0  0
   -0.5175    3.0073    3.0778 C   0  0  0  0  0  0  0  0  0  0  0  0
   -0.2709    1.7545   -0.1652 C   0  0  0  0  0  0  0  0  0  0  0  0
   -1.2315    1.2537   -0.9621 C   0  0  0  0  0  0  0  0  0  0  0  0
   -1.4296    1.7961   -2.3578 C   0  0  0  0  0  0  0  0  0  0  0  0
   -2.1884    0.1523   -0.5728 C   0  0  0  0  0  0  0  0  0  0  0  0
    2.2180    0.8181    3.6390 C   0  0  0  0  0  0  0  0  0  0  0  0
    2.7588   -1.2840    2.4174 C   0  0  0  0  0  0  0  0  0  0  0  0
    0.4362   -0.9368    3.3076 C   0  0  0  0  0  0  0  0  0  0  0  0
    0.0469    1.3334    1.2523 C   0  0  1  0  0  0  0  0  0  0  0  0
    1.2822    0.3834    1.2941 C   0  0  1  0  0  0  0  0  0  0  0  0
    1.6507   -0.2383    2.6696 C   0  0  0  0  0  0  0  0  0  0  0  0
   -0.0088    4.1401    3.5480 N   0  0  0  0  0  0  0  0  0  0  0  0
    1.2824    3.3807    1.8390 N   0  0  0  0  0  0  0  0  0  0  0  0
    0.2417    2.5339    2.0639 N   0  0  0  0  0  0  0  0  0  0  0  0
    1.0058   -0.7044    0.4051 O   0  0  0  0  0  0  0  0  0  0  0  0
    1.7591    5.1678    2.8547 H   0  0  0  0  0  0  0  0  0  0  0  0
   -1.4053    2.5023    3.4362 H   0  0  0  0  0  0  0  0  0  0  0  0
    0.3690    2.5500   -0.5433 H   0  0  0  0  0  0  0  0  0  0  0  0
   -1.3211    1.0013   -3.1066 H   0  0  0  0  0  0  0  0  0  0  0  0
   -2.4438    2.1988   -2.4728 H   0  0  0  0  0  0  0  0  0  0  0  0
   -0.7170    2.5908   -2.5929 H   0  0  0  0  0  0  0  0  0  0  0  0
   -3.2221    0.5168   -0.6190 H   0  0  0  0  0  0  0  0  0  0  0  0
   -2.0066   -0.2541    0.4225 H   0  0  0  0  0  0  0  0  0  0  0  0
   -2.1184   -0.6800   -1.2835 H   0  0  0  0  0  0  0  0  0  0  0  0
    1.4632    1.5191    3.9991 H   0  0  0  0  0  0  0  0  0  0  0  0
    3.0203    1.3986    3.1734 H   0  0  0  0  0  0  0  0  0  0  0  0
    2.6358    0.3134    4.5169 H   0  0  0  0  0  0  0  0  0  0  0  0
    2.4075   -2.0968    1.7796 H   0  0  0  0  0  0  0  0  0  0  0  0
    3.0941   -1.7061    3.3711 H   0  0  0  0  0  0  0  0  0  0  0  0
    3.6271   -0.8239    1.9314 H   0  0  0  0  0  0  0  0  0  0  0  0
   -0.0221   -1.6450    2.6108 H   0  0  0  0  0  0  0  0  0  0  0  0
    0.7474   -1.4913    4.1992 H   0  0  0  0  0  0  0  0  0  0  0  0
   -0.3277   -0.2199    3.6294 H   0  0  0  0  0  0  0  0  0  0  0  0
   -0.7995    0.8077    1.6934 H   0  0  0  0  0  0  0  0  0  0  0  0
    2.1505    0.9534    0.9354 H   0  0  0  0  0  0  0  0  0  0  0  0
    0.7796   -0.3209   -0.4590 H   0  0  0  0  0  0  0  0  0  0  0  0
  1 13  1  0  0  0  0
  1 14  2  0  0  0  0
  1 17  1  0  0  0  0
  2 13  2  0  0  0  0
  2 15  1  0  0  0  0
  2 18  1  0  0  0  0
  3  4  2  0  0  0  0
  3 10  1  0  0  0  0
  3 19  1  0  0  0  0
  4  5  1  0  0  0  0
  4  6  1  0  0  0  0
  5 20  1  0  0  0  0
  5 21  1  0  0  0  0
  5 22  1  0  0  0  0
  6 23  1  0  0  0  0
  6 24  1  0  0  0  0
  6 25  1  0  0  0  0
  7 12  1  0  0  0  0
  7 26  1  0  0  0  0
  7 27  1  0  0  0  0
  7 28  1  0  0  0  0
  8 12  1  0  0  0  0
  8 29  1  0  0  0  0
  8 30  1  0  0  0  0
  8 31  1  0  0  0  0
  9 12  1  0  0  0  0
  9 32  1  0  0  0  0
  9 33  1  0  0  0  0
  9 34  1  0  0  0  0
 10 11  1  0  0  0  0
 10 15  1  0  0  0  0
 10 35  1  0  0  0  0
 11 12  1  0  0  0  0
 11 16  1  0  0  0  0
 11 36  1  0  0  0  0
 14 15  1  0  0  0  0
 16 37  1  0  0  0  0
M  END
$$$$
