42
0 1 C20H20O2
C                    -7.115728411037     3.689666786139     0.589724095459
C                    -6.443068175845     4.107184213331     1.768131532388
C                    -6.673511335906     2.584632563524    -0.107307576092
C                    -5.342768300647     3.412718474450     2.225552694299
C                    -5.061248818626     0.699075412147    -0.344643433366
C                    -3.958529767475     0.013980189851     0.114778738082
C                    -3.729499198352     1.536049907389     1.972073529489
C                    -5.540667681389     1.850201922330     0.338544803600
C                    -4.861344094385     2.271308557456     1.526581339558
C                    -3.260508090032     0.432685477004     1.284489967779
C                     0.190082343235     2.205127173648     0.112006034710
C                     0.370172249077    -0.838157947156     1.538516719874
C                     0.332671354611     3.505666657593    -0.155488568445
C                     0.434792665948     1.068230095782    -0.855347019986
C                    -0.322125821197     1.617406744197     1.416606096479
C                    -0.614488710484     0.010650807929    -0.452668864803
C                    -0.196342684266    -1.452692738391    -0.627506406365
C                    -0.705221678447     0.158314136620     1.083313673035
C                     0.581929844323    -1.814311700416    -1.879143528875
C                    -2.033449724927    -0.317155725333     1.742651744946
O                     0.922861491147    -0.883102925613     2.612784743506
O                     0.624692379545    -1.738827481789     0.546021630383
H                    -7.982024811318     4.245341704241     0.240423092997
H                    -6.801089346683     4.978942606152     2.309540642532
H                    -7.188611199789     2.261733741425    -1.009308615839
H                    -4.828105415429     3.732606960858     3.128855996827
H                    -5.584402024099     0.358939700765    -1.235638179810
H                    -3.622052258150    -0.877540347069    -0.410116534645
H                    -3.233266158354     1.853205664472     2.887265073228
H                     0.113852736172     4.267256953992     0.589906476384
H                     0.675909981236     3.852437087007    -1.127553321772
H                     0.365877510336     1.371112599384    -1.903047876384
H                     1.445843693005     0.671060347273    -0.692507889038
H                     0.435371580525     1.637400032902     2.207152218414
H                    -1.184200244603     2.183422144836     1.775208621401
H                    -1.562646163493     0.217675913170    -0.952969319596
H                    -1.081359432180    -2.097378163219    -0.553135158539
H                     1.504379614433    -1.234045314072    -1.956707847866
H                    -0.031450869626    -1.614229516598    -2.764069940947
H                     0.843187977630    -2.876113076271    -1.873955787716
H                    -1.907469644114    -0.216094461784     2.824996203461
H                    -2.167851544629    -1.387168931352     1.546134696790
