
  -OEChem-05262117483D

 27 27  0     1  0  0  0  0  0999 V2000
    0.9365    0.5681   -0.0549 C   0  0  0  0  0  0  0  0  0  0  0  0
    0.3017   -0.4044   -0.7702 C   0  0  0  0  0  0  0  0  0  0  0  0
    1.5625    1.6930   -0.7201 C   0  0  0  0  0  0  0  0  0  0  0  0
    0.2742   -1.4054    1.4305 C   0  0  0  0  0  0  0  0  0  0  0  0
   -0.4077   -1.4520    0.0487 C   0  0  1  0  0  0  0  0  0  0  0  0
   -1.9156   -1.1388    0.1034 C   0  0  0  0  0  0  0  0  0  0  0  0
    5.0460    2.9246    0.3428 C   0  0  0  0  0  0  0  0  0  0  0  0
    4.2066    3.3986   -0.8485 C   0  0  0  0  0  0  0  0  0  0  0  0
    2.7673    3.7380   -0.4764 C   0  0  0  0  0  0  0  0  0  0  0  0
    1.5956    1.8064   -1.9565 O   0  0  0  0  0  0  0  0  0  0  0  0
    0.1992   -0.4610   -2.1038 O   0  0  0  0  0  0  0  0  0  0  0  0
    2.0864    2.6001    0.1209 O   0  0  0  0  0  0  0  0  0  0  0  0
    0.8447    0.3335    1.7155 S   0  0  0  0  0  0  0  0  0  0  0  0
   -0.4024   -1.6908    2.2385 H   0  0  0  0  0  0  0  0  0  0  0  0
    1.1521   -2.0569    1.4512 H   0  0  0  0  0  0  0  0  0  0  0  0
   -0.2618   -2.4370   -0.4078 H   0  0  0  0  0  0  0  0  0  0  0  0
   -2.0899   -0.1802    0.6017 H   0  0  0  0  0  0  0  0  0  0  0  0
   -2.4456   -1.9193    0.6586 H   0  0  0  0  0  0  0  0  0  0  0  0
   -2.3353   -1.0882   -0.9050 H   0  0  0  0  0  0  0  0  0  0  0  0
    5.0944    3.6922    1.1239 H   0  0  0  0  0  0  0  0  0  0  0  0
    4.6207    2.0215    0.7904 H   0  0  0  0  0  0  0  0  0  0  0  0
    6.0707    2.6978    0.0316 H   0  0  0  0  0  0  0  0  0  0  0  0
    4.1981    2.6421   -1.6395 H   0  0  0  0  0  0  0  0  0  0  0  0
    4.6475    4.3039   -1.2855 H   0  0  0  0  0  0  0  0  0  0  0  0
    2.7291    4.5032    0.3026 H   0  0  0  0  0  0  0  0  0  0  0  0
    2.1992    4.0720   -1.3469 H   0  0  0  0  0  0  0  0  0  0  0  0
    0.6723    0.3407   -2.4517 H   0  0  0  0  0  0  0  0  0  0  0  0
  1  2  2  0  0  0  0
  1  3  1  0  0  0  0
  1 13  1  0  0  0  0
  2  5  1  0  0  0  0
  2 11  1  0  0  0  0
  3 10  2  0  0  0  0
  3 12  1  0  0  0  0
  4  5  1  0  0  0  0
  4 13  1  0  0  0  0
  4 14  1  0  0  0  0
  4 15  1  0  0  0  0
  5  6  1  0  0  0  0
  5 16  1  0  0  0  0
  6 17  1  0  0  0  0
  6 18  1  0  0  0  0
  6 19  1  0  0  0  0
  7  8  1  0  0  0  0
  7 20  1  0  0  0  0
  7 21  1  0  0  0  0
  7 22  1  0  0  0  0
  8  9  1  0  0  0  0
  8 23  1  0  0  0  0
  8 24  1  0  0  0  0
  9 12  1  0  0  0  0
  9 25  1  0  0  0  0
  9 26  1  0  0  0  0
 11 27  1  0  0  0  0
M  END
$$$$
