16   
torsion grid (-165,)
C       -0.3523655780    0.1830696365    2.6538869304
C        1.8508965622   -1.0901842041   -0.0855456420
C        0.7815479927   -0.4780525271    0.5671154560
C        2.8815077086   -1.6610417319    0.6577660352
C        0.7439086034   -0.4395489516    1.9704193239
C        2.8764200371   -1.6324233604    2.0633687359
C        1.7917871661   -1.0200663371    2.7033546247
C        4.0468217671   -2.2553100197    2.7536787489
N       -1.2548288370    0.6963710318    3.1815756150
O        4.9659706536   -2.7811344689    2.1527522985
O        4.0348089427   -2.1270110834    4.1000267813
F        1.7087934947   -0.9678819282    4.0370469140
H        1.8793871530   -1.1217269699   -1.1700696682
H       -0.0317684203   -0.0272484477    0.0070826305
H        3.7237150557   -2.1423383630    0.1714158742
H        4.9376678142   -2.3460746212    4.4015327190
16   
torsion grid (-150,)
C       -0.3470481392    0.1818498010    2.6636367563
C        1.8566457190   -1.0793664841   -0.0819289352
C        0.7936248027   -0.4601725947    0.5744657120
C        2.8705320489   -1.6801041442    0.6606733144
C        0.7450430869   -0.4456260622    1.9778546096
C        2.8584876124   -1.6727249970    2.0667606024
C        1.7769048322   -1.0566541560    2.7088939493
C        4.0220999937   -2.3119193486    2.7550993484
N       -1.2454928827    0.7002087682    3.1932363679
O        4.9403810476   -2.8306211111    2.1487594263
O        4.0264521635   -2.1660367885    4.1041430778
F        1.6796487312   -1.0314047726    4.0422328871
H        1.8929165846   -1.0933443671   -1.1666224599
H       -0.0076920922    0.0140673658    0.0165278435
H        3.7081982957   -2.1671686200    0.1723353310
H        4.9613898690   -2.1591854103    4.3821746600
16   
torsion grid (-135,)
C       -0.3340240131    0.1807054395    2.6660476349
C        1.8670078131   -1.0730295720   -0.0838346528
C        0.8076904622   -0.4493070333    0.5744453070
C        2.8720425950   -1.6932450880    0.6544175710
C        0.7543591530   -0.4503130472    1.9776063895
C        2.8555611634   -1.6996141063    2.0609054586
C        1.7767518626   -1.0805274266    2.7060419863
C        4.0145424696   -2.3507165109    2.7471385237
N       -1.2292613218    0.7023400871    3.1978506234
O        4.9314448236   -2.8615129954    2.1350377718
O        4.0235626030   -2.2121457977    4.1030734957
F        1.6713763753   -1.0694342060    4.0388141105
H        1.9070352003   -1.0755775805   -1.1684664299
H        0.0136511511    0.0395791397    0.0187062102
H        3.7059822308   -2.1837953386    0.1631494086
H        4.9291783466   -1.9727664445    4.3690520963
16   
torsion grid (-120,)
C       -0.2862349140    0.2038948571    2.7659288497
C        1.7957457839   -1.1253665273   -0.0414342162
C        0.7569869849   -0.4971684713    0.6454257338
C        2.8402711040   -1.7107938381    0.6694967231
C        0.7675777216   -0.4533067525    2.0488106169
C        2.8751104303   -1.6943858223    2.0759218704
C        1.8251769662   -1.0567933923    2.7489482760
C        4.0535068067   -2.3316303377    2.7409622342
N       -1.1544582077    0.7452412764    3.3222420934
O        5.0838708622   -2.5647073402    2.1455070866
O        3.8910736218   -2.5849864971    4.0768389050
F        1.8015015908   -0.9654503469    4.0845670122
H        1.7889898094   -1.1566418330   -1.1263340534
H       -0.0659095702   -0.0323809401    0.1114346417
H        3.6623858988   -2.1975912579    0.1546263899
H        4.5657149305   -2.1039652779    4.5856248897
16   
torsion grid (-105,)
C       -0.2625151054    0.2003442049    2.7961094493
C        1.7741415610   -1.1433069434   -0.0396008951
C        0.7418149970   -0.5204451314    0.6615490989
C        2.8416932907   -1.7079857363    0.6551074445
C        0.7804628503   -0.4577854254    2.0643958494
C        2.8987702396   -1.6803839150    2.0598234827
C        1.8593320022   -1.0421312593    2.7453516297
C        4.0793263406   -2.3146256345    2.7252684813
N       -1.1220872037    0.7410079470    3.3663137575
O        5.1229708019   -2.5058388080    2.1431436003
O        3.8726208634   -2.7002066187    4.0293214799
F        1.8793039667   -0.9265981215    4.0822069572
H        1.7451201463   -1.1862898911   -1.1237435212
H       -0.0971843376   -0.0718017545    0.1390051736
H        3.6588114734   -2.1904870040    0.1281761432
H        4.3080717805   -2.0908307183    4.6483359396
16   
torsion grid (-90,)
C       -0.2392824873    0.1825948628    2.8283535386
C        1.7584231352   -1.1559103863   -0.0386319527
C        0.7326339368   -0.5400035139    0.6778919497
C        2.8452827303   -1.7075573016    0.6377294471
C        0.7950659083   -0.4701899180    2.0801163240
C        2.9225227696   -1.6760842840    2.0405706061
C        1.8915497924   -1.0426990906    2.7398500819
C        4.1078736273   -2.3133589190    2.6990274770
N       -1.0915368944    0.7184701738    3.4138102099
O        5.1377696055   -2.5235642033    2.1024459759
O        3.8985245382   -2.7651702886    3.9833025595
F        1.9444270312   -0.9239857074    4.0793212291
H        1.7102072771   -1.2032927119   -1.1219190291
H       -0.1193570476   -0.1013925689    0.1680861580
H        3.6575657066   -2.1842066468    0.0982005793
H        4.0951106290   -2.0818579545    4.6454995602
16   
torsion grid (-75,)
C       -0.2268455525    0.1842434284    2.8366939399
C        1.7630212182   -1.1614539128   -0.0336701442
C        0.7367916113   -0.5467724776    0.6831847107
C        2.8582171173   -1.7014617332    0.6395789396
C        0.8059941528   -0.4665294495    2.0848000550
C        2.9417172449   -1.6611199870    2.0412552942
C        1.9104697540   -1.0285500336    2.7379308144
C        4.1304625394   -2.2977968827    2.7014060387
N       -1.0774745876    0.7181825278    3.4262211255
O        5.1441520031   -2.5422074582    2.0910988183
O        3.9312807783   -2.7639849324    3.9790613070
F        1.9739124137   -0.9051665897    4.0805903982
H        1.7093759454   -1.2165951399   -1.1163517737
H       -0.1203430917   -0.1170349042    0.1745448891
H        3.6709291922   -2.1761134487    0.0991394181
H        3.8938870332   -2.0416973272    4.6286328028
16   
torsion grid (-60,)
C       -0.2213427178    0.1545270318    2.8708507408
C        1.7648081163   -1.1553357470   -0.0190741091
C        0.7349736217   -0.5562709655    0.7057234891
C        2.8739630057   -1.6811413251    0.6429002331
C        0.8138496449   -0.4781265481    2.1069418328
C        2.9681647863   -1.6419034031    2.0436492868
C        1.9321355201   -1.0263346756    2.7465377111
C        4.1746922376   -2.2675770835    2.6897383322
N       -1.0735573479    0.6734882693    3.4713102835
O        5.1718466707   -2.5203908564    2.0553832470
O        4.0143756161   -2.7294889278    3.9681908618
F        2.0040363518   -0.9102332282    4.0934218451
H        1.7035780396   -1.2092178326   -1.1014020931
H       -0.1319743296   -0.1378242266    0.2044088639
H        3.6896063424   -2.1423059427    0.0953669535
H        3.7536863981   -2.0172785980    4.5775220744
16   
torsion grid (-45,)
C       -0.2175765924    0.1585834674    2.8704063997
C        1.7668712795   -1.1573230889   -0.0173301063
C        0.7392977611   -0.5520513071    0.7054946462
C        2.8705412544   -1.6911603886    0.6470691775
C        0.8160409791   -0.4768840439    2.1068631483
C        2.9660702681   -1.6525748044    2.0480409193
C        1.9304848576   -1.0322435022    2.7463198479
C        4.1768483063   -2.2862565062    2.6861998630
N       -1.0682840034    0.6794523963    3.4712967333
O        5.1477273510   -2.5880630528    2.0309922716
O        4.0623913158   -2.6794950272    3.9842956576
F        1.9951790324   -0.9223107530    4.0977286284
H        1.7080081013   -1.2099603746   -1.0998628384
H       -0.1240109887   -0.1274594861    0.2030791385
H        3.6844829153   -2.1577590650    0.1017606838
H        3.6271442386   -1.9983636999    4.5265110111
16   
torsion grid (-30,)
C       -0.2197024297    0.1382844200    2.8826996495
C        1.7820596413   -1.1440374373   -0.0069967503
C        0.7498015143   -0.5465577098    0.7156868154
C        2.8834236749   -1.6807119686    0.6581531485
C        0.8212659050   -0.4831048697    2.1175914931
C        2.9783650390   -1.6491037288    2.0598554706
C        1.9362465236   -1.0380013007    2.7565670949
C        4.1991023565   -2.2820270007    2.6853948863
N       -1.0766406998    0.6474306597    3.4847372127
O        5.1355875501   -2.6388473756    2.0066348010
O        4.1575870579   -2.5685574264    4.0096256794
F        1.9876466430   -0.9432492580    4.1118475295
H        1.7280334117   -1.1891492791   -1.0901108389
H       -0.1132064155   -0.1212019815    0.2133883012
H        3.7000772496   -2.1435447975    0.1137516790
H        3.5816547966   -1.9492856287    4.4918546142
16   
torsion grid (-15,)
C       -0.2118894488    0.1165291859    2.9001519819
C        1.7924940986   -1.1344108563   -0.0018234995
C        0.7622383309   -0.5389378819    0.7254447393
C        2.8870990244   -1.6881290959    0.6597674231
C        0.8297057031   -0.4951463952    2.1280383887
C        2.9834197219   -1.6700213051    2.0620716064
C        1.9411403362   -1.0625956700    2.7622162130
C        4.2071411307   -2.3150381942    2.6729872149
N       -1.0695751817    0.6177010977    3.5077636663
O        5.0951922558   -2.7522814539    1.9754339441
O        4.2560299249   -2.4613120549    4.0159590766
F        1.9809940667   -0.9923536530    4.1204847914
H        1.7413455439   -1.1659158292   -1.0855563192
H       -0.0971258047   -0.1024296155    0.2264987357
H        3.7003542998   -2.1538385544    0.1127388557
H        3.5832345072   -1.9175226932    4.4623106676
16   
torsion grid (0,)
C       -0.2113927237    0.1084793892    2.9104472381
C        1.7955896173   -1.1301621077    0.0044982355
C        0.7692965103   -0.5289214000    0.7326907281
C        2.8798593591   -1.7041475325    0.6655868352
C        0.8290571105   -0.5021684831    2.1359587828
C        2.9729863080   -1.6959393969    2.0683687092
C        1.9317222948   -1.0874205414    2.7692003140
C        4.1959314638   -2.3476639739    2.6750477692
N       -1.0678172270    0.6093048267    3.5201098249
O        5.0471420413   -2.8492631465    1.9745667503
O        4.3239241281   -2.3596581181    4.0194062410
F        1.9571160990   -1.0440847991    4.1294029977
H        1.7491535808   -1.1506831901   -1.0797113226
H       -0.0823104712   -0.0771267413    0.2340670286
H        3.6888711119   -2.1767255245    0.1181238732
H        3.5722831633   -1.9234870418    4.4579348215
16   
torsion grid (15,)
C       -0.2118772302    0.1214061155    2.9022727813
C        1.8424705403   -1.0369288509   -0.0032661394
C        0.8002331010   -0.4636792639    0.7247870133
C        2.9326172696   -1.5988202214    0.6587899190
C        0.8485944255   -0.4551457149    2.1288258481
C        3.0183404554   -1.6000980789    2.0618989269
C        1.9585683374   -1.0251743034    2.7632419167
C        4.2543369924   -2.2220688150    2.6720155554
N       -1.0839863342    0.5957427108    3.5108952216
O        5.0871514495   -2.7626594023    1.9787777124
O        4.4483893696   -2.0969338397    4.0039442460
F        1.9681437298   -1.0111212702    4.1238046037
H        1.8036754811   -1.0456077644   -1.0879342192
H       -0.0564222312   -0.0222395152    0.2255235001
H        3.7526468127   -2.0520172964    0.1113640792
H        3.6380474515   -1.8100179266    4.4606861603
16   
torsion grid (30,)
C       -0.2349329026    0.1147321711    2.8858734293
C        1.8445128225   -1.0232290991   -0.0093923537
C        0.7993062470   -0.4497232458    0.7141016994
C        2.9243432224   -1.5999576326    0.6575413606
C        0.8335422304   -0.4554779478    2.1188309167
C        2.9980796330   -1.6076412422    2.0608528851
C        1.9352035573   -1.0350973071    2.7589617199
C        4.2228201604   -2.2329330138    2.6862540906
N       -1.1134633249    0.5836996236    3.4894264355
O        5.0162198552   -2.8572170536    2.0185503626
O        4.4826938058   -1.9561695775    3.9875137563
F        1.9306931124   -1.0444050208    4.1184840109
H        1.8154880401   -1.0219356836   -1.0944018823
H       -0.0502072957    0.0007077246    0.2106600436
H        3.7439506640   -2.0574015543    0.1130252549
H        3.6646364952   -1.7890193697    4.4880967854
16   
torsion grid (45,)
C       -0.2509563974    0.1010155767    2.8750370876
C        1.8467906203   -1.0040021473   -0.0210653195
C        0.7977424526   -0.4386522635    0.7032393978
C        2.9255172820   -1.5842589815    0.6453786330
C        0.8251251615   -0.4552472492    2.1083543621
C        2.9937251138   -1.5962943827    2.0484229395
C        1.9268829379   -1.0341543082    2.7489005458
C        4.2139815119   -2.2120564928    2.6860576051
N       -1.1357548341    0.5582942920    3.4784469669
O        4.9816320696   -2.8936352503    2.0464091461
O        4.5210545901   -1.8174998620    3.9520832411
F        1.9170653811   -1.0630969362    4.1059698636
H        1.8213379018   -0.9945179794   -1.1061341766
H       -0.0512951423    0.0124532329    0.1996139622
H        3.7467216108   -2.0374442060    0.0996477508
H        3.7316471714   -1.7977737416    4.5211411045
16   
torsion grid (60,)
C       -0.2496830047    0.1064301446    2.8750665097
C        1.8439015361   -1.0034900189   -0.0227427144
C        0.7988233041   -0.4326990616    0.7030551065
C        2.9189243081   -1.5928828822    0.6419763011
C        0.8249503209   -0.4527222268    2.1082807785
C        2.9859039328   -1.6041912508    2.0447959814
C        1.9229141613   -1.0387547151    2.7495499980
C        4.1974495750   -2.2203313770    2.6906702647
N       -1.1337850020    0.5659583614    3.4778450606
O        4.9397155115   -2.9494687431    2.0758197629
O        4.5354408460   -1.7510184641    3.9312399957
F        1.9117775312   -1.0773905799    4.1027389087
H        1.8181699723   -0.9913530233   -1.1077672029
H       -0.0471016301    0.0248872774    0.2000252468
H        3.7364773674   -2.0506191518    0.0944139509
H        3.8193630299   -1.8893660013    4.5751191461
16   
torsion grid (75,)
C       -0.2785514411    0.0923815082    2.8428486085
C        1.8475366556   -0.9995419868   -0.0377590651
C        0.7912003476   -0.4408849414    0.6812205884
C        2.9269990560   -1.5688102770    0.6367989373
C        0.8101437467   -0.4539941703    2.0866454401
C        2.9870946461   -1.5717780782    2.0402472452
C        1.9123973624   -1.0200894860    2.7399910731
C        4.1983369460   -2.1661989922    2.6989102030
N       -1.1745215030    0.5415764918    3.4358626352
O        4.9435187331   -2.9123078781    2.1091610103
O        4.5183410001   -1.6621788031    3.9370473774
F        1.8903922045   -1.0559860672    4.0891361550
H        1.8270569797   -0.9930073965   -1.1229572396
H       -0.0588881813    0.0018548196    0.1719100584
H        3.7543720745   -2.0162157274    0.0953621111
H        3.9191822341   -1.9890011405    4.6293182782
16   
torsion grid (90,)
C       -0.2843411103    0.1030963341    2.8340406306
C        1.8402232475   -0.9991313387   -0.0425369284
C        0.7831167006   -0.4415371425    0.6762265195
C        2.9248440055   -1.5548299652    0.6341021303
C        0.8069643880   -0.4431832500    2.0813711819
C        2.9888548117   -1.5475781444    2.0379420923
C        1.9137270811   -0.9964150325    2.7403613876
C        4.1986710725   -2.1389015164    2.6947689836
N       -1.1829251121    0.5523454364    3.4230918519
O        4.9248667143   -2.9165697241    2.1214863103
O        4.5011992294   -1.6340420228    3.9401365255
F        1.8896394218   -1.0211570842    4.0856707467
H        1.8162731366   -1.0014447980   -1.1276645405
H       -0.0715335156   -0.0080619895    0.1664848703
H        3.7536750551   -2.0007181514    0.0934426802
H        4.0647486402   -2.1330924153    4.6504380678
16   
torsion grid (105,)
C       -0.3130477723    0.1104602438    2.8025836339
C        1.8385158141   -1.0191698992   -0.0422078441
C        0.7714081094   -0.4609225650    0.6613170509
C        2.9238315092   -1.5506039117    0.6512268058
C        0.7877801840   -0.4388827151    2.0658296890
C        2.9798679710   -1.5244736355    2.0560005644
C        1.8953517741   -0.9697980020    2.7443787562
C        4.1846231436   -2.1129768904    2.7201016979
N       -1.2199751028    0.5620915722    3.3768902361
O        4.9030703242   -2.9119016899    2.1631722363
O        4.4342729679   -1.6451139607    3.9892684827
F        1.8554829690   -0.9657413209    4.0857472889
H        1.8216296419   -1.0398381484   -1.1272629530
H       -0.0846919080   -0.0444961574    0.1398566071
H        3.7606352405   -1.9964763116    0.1229286806
H        4.1902847465   -2.3041836841    4.6602635837
16   
torsion grid (120,)
C       -0.3306322382    0.1257551459    2.7716654228
C        1.8358061820   -1.0468708315   -0.0420983192
C        0.7602870296   -0.4871651975    0.6474745512
C        2.9256277732   -1.5474110862    0.6656388131
C        0.7763366417   -0.4320501713    2.0504027571
C        2.9781349151   -1.4971164514    2.0707361974
C        1.8882429022   -0.9340100468    2.7465410464
C        4.1837660816   -2.0829425997    2.7341156485
N       -1.2435922584    0.5834994988    3.3314223664
O        4.9269956251   -2.8513038890    2.1615314118
O        4.3515959851   -1.7197428312    4.0436557692
F        1.8439031262   -0.8811133058    4.0837168224
H        1.8217806764   -1.0919830974   -1.1264448252
H       -0.1004309435   -0.0932546417    0.1161336320
H        3.7692166368   -1.9944442568    0.1494469317
H        4.3423651709   -2.5122660438    4.6068385766
16   
torsion grid (135,)
C       -0.3290370191    0.2177569664    2.7842584362
C        1.8049428050   -1.0959016703    0.0090738299
C        0.7297750220   -0.5177144163    0.6832208175
C        2.9126160190   -1.5414109184    0.7261381216
C        0.7667366628   -0.3827050059    2.0803314455
C        2.9744374606   -1.4343250476    2.1274094540
C        1.8919760652   -0.8379381806    2.7873476320
C        4.1903002444   -1.9950860162    2.7944528418
N       -1.2349597668    0.7069483026    3.3286506555
O        5.0993919410   -2.5072864741    2.1720421723
O        4.1374598889   -2.0046196814    4.1568202526
F        1.8875425106   -0.6701298661    4.1136544592
H        1.7782310500   -1.1971853409   -1.0712348399
H       -0.1431618461   -0.1633339242    0.1440164284
H        3.7601684242   -1.9949893658    0.2227922836
H        4.4563550988   -2.8740866536    4.4577742084
16   
torsion grid (150,)
C       -0.3468955790    0.1825514986    2.6654611609
C        1.8288735431   -1.1285213865   -0.0776477134
C        0.7467019408   -0.5439160349    0.5791944494
C        2.9163918913   -1.5944925355    0.6575780965
C        0.7564121801   -0.4233324031    1.9782446275
C        2.9511623788   -1.4997569981    2.0600785364
C        1.8614571217   -0.8989752973    2.7029597027
C        4.1506365415   -2.0719854468    2.7458518833
N       -1.2575453607    0.6776118302    3.1965038015
O        5.0715927971   -2.5864403673    2.1399380023
O        4.0760690719   -2.0727373218    4.1007866441
F        1.8324566834   -0.7478493179    4.0311938881
H        1.8234374746   -1.2193398467   -1.1591911398
H       -0.1106370231   -0.1739777509    0.0255980942
H        3.7686990870   -2.0535106280    0.1673798451
H        4.5978133991   -2.8366553367    4.4101398683
16   
torsion grid (165,)
C       -0.3512425813    0.1863746948    2.6565600899
C        1.8340927304   -1.1177014131   -0.0820921794
C        0.7547981297   -0.5243720934    0.5715112872
C        2.9053745738   -1.6131563170    0.6578114505
C        0.7505252186   -0.4256376781    1.9723618989
C        2.9275406379   -1.5362250682    2.0613947296
C        1.8391156888   -0.9309120621    2.7017165616
C        4.1178749537   -2.1228142022    2.7494504091
N       -1.2600656181    0.6875117876    3.1850249502
O        5.0450399377   -2.6321881416    2.1466592338
O        4.0495111376   -2.1021850848    4.1000360572
F        1.7954530499   -0.8058095106    4.0324096930
H        1.8389877326   -1.1926731508   -1.1648434695
H       -0.0900059884   -0.1318034786    0.0142395389
H        3.7555912368   -2.0789562524    0.1703196583
H        4.7429537471   -2.7133067983    4.4157066148
16   
torsion grid (180,)
C       -0.3526168653    0.1837444480    2.6350537667
C        1.8494406218   -1.1080434067   -0.0967904713
C        0.7733437767   -0.5045092051    0.5528223754
C        2.8984687299   -1.6406311592    0.6490355817
C        0.7483600199   -0.4344735357    1.9551466810
C        2.9029716360   -1.5863552353    2.0538850733
C        1.8147521654   -0.9769060364    2.6904814630
C        4.0815352551   -2.1903169782    2.7463050407
N       -1.2613109658    0.6927121198    3.1561993765
O        5.0066240363   -2.7107464735    2.1490166862
O        4.0381083531   -2.1112114579    4.0941831478
F        1.7476281574   -0.8873354085    4.0231432192
H        1.8688850311   -1.1622896376   -1.1806188565
H       -0.0543118651   -0.0831180350   -0.0090896148
H        3.7462462355   -2.1149000392    0.1654128212
H        4.8571867725   -2.5376333810    4.4140171472
