31
0 1 C12ClH14NO2S
C                    -1.665018871048     1.310298596523     3.686155240253
C                    -3.104079126058    -0.155215200789     2.380220191384
C                    -2.049557133080     0.652534694519     4.856919162176
C                    -3.490268061147    -0.815270815831     3.549453664020
C                    -2.179791412368     0.890119699008     2.459132102476
C                    -2.954976800486    -0.408166887047     4.774417424014
C                    -0.921440311663    -0.588339916045    -0.172612330224
C                     2.057883270814     0.781129529890    -0.551468954131
C                     2.139795923613    -0.669728916244    -1.044289287963
C                     0.649697373318     1.392711279452    -0.500199519531
C                     1.362768194453    -1.676668098787    -0.184008722383
C                    -0.295436445778     0.647470309860     0.453342549727
N                    -0.088849822066    -1.644884561908    -0.380440446007
O                    -2.113702412318    -0.625875127653    -0.491261044388
O                    -0.900552877517     3.036524495638     1.511195633869
S                    -1.664811677003     1.832021023238     0.979294435881
Cl                   -3.442770691665    -1.238747069464     6.242807749267
H                    -0.984803869158     2.157761145950     3.710035753621
H                    -3.503663716559    -0.462337562163     1.419620797882
H                    -1.659960026874     0.963511222855     5.821268363602
H                    -4.202727301596    -1.633221226305     3.510395236978
H                     2.500345884172     0.841280299078     0.451874686229
H                     2.680662595366     1.409560938019    -1.198075011770
H                     1.782921172868    -0.742816676496    -2.078962108357
H                     3.193137142314    -0.975058292933    -1.049213758168
H                     0.733349114102     2.423135394231    -0.140266574309
H                     0.205673417308     1.428486421198    -1.502122641879
H                     1.680347049883    -2.692936712597    -0.429356571341
H                     1.596612387030    -1.525923810415     0.877414926779
H                     0.233082050391     0.401941688675     1.380875993005
H                    -0.530166375171    -2.423632513886    -0.856954914357
