
  -OEChem-05262117483D

 31 32  0     1  0  0  0  0  0999 V2000
   -1.6650    1.3103    3.6862 C   0  0  0  0  0  0  0  0  0  0  0  0
   -3.1041   -0.1552    2.3802 C   0  0  0  0  0  0  0  0  0  0  0  0
   -2.0496    0.6525    4.8569 C   0  0  0  0  0  0  0  0  0  0  0  0
   -3.4903   -0.8153    3.5495 C   0  0  0  0  0  0  0  0  0  0  0  0
   -2.1798    0.8901    2.4591 C   0  0  0  0  0  0  0  0  0  0  0  0
   -2.9550   -0.4082    4.7744 C   0  0  0  0  0  0  0  0  0  0  0  0
   -0.9214   -0.5883   -0.1726 C   0  0  0  0  0  0  0  0  0  0  0  0
    2.0579    0.7811   -0.5515 C   0  0  0  0  0  0  0  0  0  0  0  0
    2.1398   -0.6697   -1.0443 C   0  0  0  0  0  0  0  0  0  0  0  0
    0.6497    1.3927   -0.5002 C   0  0  0  0  0  0  0  0  0  0  0  0
    1.3628   -1.6767   -0.1840 C   0  0  0  0  0  0  0  0  0  0  0  0
   -0.2954    0.6475    0.4533 C   0  0  1  0  0  0  0  0  0  0  0  0
   -0.0888   -1.6449   -0.3804 N   0  0  0  0  0  0  0  0  0  0  0  0
   -2.1137   -0.6259   -0.4913 O   0  0  0  0  0  0  0  0  0  0  0  0
   -0.9006    3.0365    1.5112 O   0  0  0  0  0  0  0  0  0  0  0  0
   -1.6648    1.8320    0.9793 S   0  0  2  0  0  0  0  0  0  0  0  0
   -3.4428   -1.2387    6.2428 Cl  0  0  0  0  0  0  0  0  0  0  0  0
   -0.9848    2.1578    3.7100 H   0  0  0  0  0  0  0  0  0  0  0  0
   -3.5037   -0.4623    1.4196 H   0  0  0  0  0  0  0  0  0  0  0  0
   -1.6600    0.9635    5.8213 H   0  0  0  0  0  0  0  0  0  0  0  0
   -4.2027   -1.6332    3.5104 H   0  0  0  0  0  0  0  0  0  0  0  0
    2.5003    0.8413    0.4519 H   0  0  0  0  0  0  0  0  0  0  0  0
    2.6807    1.4096   -1.1981 H   0  0  0  0  0  0  0  0  0  0  0  0
    1.7829   -0.7428   -2.0790 H   0  0  0  0  0  0  0  0  0  0  0  0
    3.1931   -0.9751   -1.0492 H   0  0  0  0  0  0  0  0  0  0  0  0
    0.7333    2.4231   -0.1403 H   0  0  0  0  0  0  0  0  0  0  0  0
    0.2057    1.4285   -1.5021 H   0  0  0  0  0  0  0  0  0  0  0  0
    1.6803   -2.6929   -0.4294 H   0  0  0  0  0  0  0  0  0  0  0  0
    1.5966   -1.5259    0.8774 H   0  0  0  0  0  0  0  0  0  0  0  0
    0.2331    0.4019    1.3809 H   0  0  0  0  0  0  0  0  0  0  0  0
   -0.5302   -2.4236   -0.8570 H   0  0  0  0  0  0  0  0  0  0  0  0
  1  3  1  0  0  0  0
  1  5  2  0  0  0  0
  1 18  1  0  0  0  0
  2  4  2  0  0  0  0
  2  5  1  0  0  0  0
  2 19  1  0  0  0  0
  3  6  2  0  0  0  0
  3 20  1  0  0  0  0
  4  6  1  0  0  0  0
  4 21  1  0  0  0  0
  5 16  1  0  0  0  0
  6 17  1  0  0  0  0
  7 12  1  0  0  0  0
  7 13  1  0  0  0  0
  7 14  2  0  0  0  0
  8  9  1  0  0  0  0
  8 10  1  0  0  0  0
  8 22  1  0  0  0  0
  8 23  1  0  0  0  0
  9 11  1  0  0  0  0
  9 24  1  0  0  0  0
  9 25  1  0  0  0  0
 10 12  1  0  0  0  0
 10 26  1  0  0  0  0
 10 27  1  0  0  0  0
 11 13  1  0  0  0  0
 11 28  1  0  0  0  0
 11 29  1  0  0  0  0
 12 16  1  0  0  0  0
 12 30  1  0  0  0  0
 13 31  1  0  0  0  0
 15 16  2  0  0  0  0
M  END
$$$$
