33
0 1 C13H17NO2
C                    -1.363996753432     1.230834584264     3.221012742534
C                     0.023837237255     1.347332931317     3.059947445347
C                    -1.916686445303     0.113560042965     3.860395256076
C                     0.876272824772     0.344866492144     3.538884402299
C                    -1.066035248633    -0.883755602202     4.340816655648
C                     0.321326456686    -0.761134759489     4.183089704644
C                     2.596832818201    -3.601036472071     3.711729501703
C                    -1.405411262628    -2.180243430249     5.044209455320
C                     1.032023156016    -1.976494207114     4.742427227559
C                    -0.053742946468    -2.616389387537     5.663018670183
C                     0.091105895019    -4.116576574352     5.899499673424
C                     1.001238721585    -5.481619368251     1.715596956789
C                     2.956389179753    -4.326969543282     2.409028831571
N                     1.475602021073    -2.837871280792     3.643421910321
O                     3.317290857944    -3.698949464598     4.705946078745
O                     1.897171506337    -4.401212783141     1.463671943113
H                    -2.015895175856     2.016969220382     2.848162983774
H                     0.438105061282     2.221732230634     2.564675306495
H                    -2.994520779369     0.030273037574     3.981824201206
H                     1.953468717117     0.430124788481     3.414554491824
H                    -2.190732225283    -2.067099929125     5.798619494317
H                    -1.763553996055    -2.926474876702     4.321134560185
H                     1.928478101088    -1.732499988170     5.316959962950
H                     0.043344143311    -2.098554121984     6.625322956239
H                    -0.029635574830    -4.674809053539     4.965069765190
H                    -0.672489157492    -4.471426047493     6.600409626542
H                     1.075882749680    -4.359507618070     6.308380822704
H                     0.218467758073    -5.427943198655     0.955948698419
H                     0.544611172029    -5.407627328814     2.712109850711
H                     1.519243599019    -6.446991421600     1.633668211711
H                     3.768106956914    -3.768193345094     1.932903906440
H                     3.339423239688    -5.320048537491     2.673067743494
H                     1.002455855629    -2.791568322485     2.747736923382
