37
0 1 C11H19N3O2S2
C                     8.640406686468    -2.198775824721    -1.534575519136
C                     7.553350751576    -0.924965340984     0.107297902732
C                     9.267623945114    -3.249325220877    -2.402004136393
C                     0.402365744833     1.954534093720     1.064194839087
C                    12.819184178941    -2.544726077084    -4.060371673245
C                     1.708704286034     1.613846831514     1.789472492571
C                    12.001439803615    -3.839564951901    -4.096766492089
C                     2.787071263421     1.066839476282     0.846362104251
C                     4.094585615217     0.724093582433     1.573583478547
C                    10.532094392873    -3.621769619310    -4.482936281546
C                     5.147621583336     0.180072935128     0.612264753296
N                     8.650026217974    -0.917991743158    -1.811813999857
N                     8.021844814326    -0.172232714368    -0.850442102879
N                     9.810639542017    -2.765081574312    -3.544244401224
O                     9.252317616006    -4.433188908774    -2.061432499408
O                     6.330500747616    -1.494228291582     2.393652322981
S                     7.848731998880    -2.631529380373    -0.048021604177
S                     6.671414947468    -0.275436277770     1.559110248998
H                     0.565171341821     2.715063527397     0.291813910265
H                    -0.020245245850     1.069799698890     0.574343094154
H                    -0.349627716471     2.341453584407     1.759806415966
H                    12.807708436658    -2.038611165979    -5.033402720035
H                    12.427254073291    -1.846512874533    -3.312866237949
H                    13.863944392287    -2.746529198109    -3.803949484086
H                     1.510903475131     0.875848276479     2.577282016895
H                     2.091701483485     2.508901949404     2.296595750852
H                    12.034211118551    -4.337511467708    -3.121971142020
H                    12.437049333964    -4.537567758885    -4.822349507282
H                     2.987272427444     1.802795486661     0.055984207751
H                     2.406386485713     0.168616296143     0.342131730778
H                     3.899654278323    -0.021957060042     2.351704800040
H                     4.480532763947     1.619888860487     2.076483479345
H                    10.460349197538    -3.157674056369    -5.472175809336
H                    10.009314770635    -4.580398584426    -4.520312422484
H                     5.460262606837     0.914743208930    -0.136412137467
H                     4.810867557751    -0.733585989697     0.112697944496
H                     9.794953544136    -1.759392758141    -3.671008553326
