21   
torsion grid (-165,)
C        2.3855790729   -1.3183868504   -2.1636996422
C        1.2607888296   -0.4992486455   -2.0747227513
C        1.5158703184   -0.4305969415    0.3389130735
C        2.6408901849   -1.2729588704    0.2701119051
C        3.0517587678   -1.6929159237   -1.0003758044
C        0.8374789147   -0.0613776954   -0.8155204514
C        3.3139649224   -1.6221074171    1.5731116889
C        4.5313171551   -3.3477472849    3.0446884752
C        5.5708133835   -2.6401563186    2.2373553829
C        4.1604776410   -2.8410398918    1.6603546541
O        3.1456970187   -0.8863476631    2.5424526293
F        4.1558345487   -2.4689111607   -1.1457130731
Br      -0.7028559955    1.0716507275   -0.6895653209
H        2.7563104830   -1.6649340036   -3.1232726067
H        0.7268242125   -0.2022941806   -2.9712836036
H        1.2024261052   -0.0821686869    1.3169667444
H        4.6057756363   -4.4249876331    3.1571456865
H        4.0913354752   -2.8102113717    3.8777959651
H        5.8250753302   -1.6246249860    2.5232738795
H        6.3677018354   -3.2131278810    1.7739141236
H        4.0719205408   -3.5663395330    0.8624541455
21   
torsion grid (-150,)
C        2.1515550353   -1.3543251596   -2.1918346312
C        0.9936638260   -0.5890379245   -2.0580111616
C        1.3835519122   -0.4382754186    0.3337731510
C        2.5425510393   -1.2281469483    0.2212373134
C        2.9007983667   -1.6622867013   -1.0601191487
C        0.6220054470   -0.1359954207   -0.7880349123
C        3.3015144987   -1.5109675410    1.4929916440
C        4.3072817100   -3.3426431049    2.9831151424
C        5.4549325399   -2.5999554804    2.3847238467
C        4.1490951787   -2.7273031962    1.5931417064
O        3.1675253680   -0.7451127030    2.4445871720
F        4.0349794852   -2.3843078626   -1.2498546481
Br      -0.9635473621    0.9241473994   -0.6012862795
H        2.4844044622   -1.7087732148   -3.1623420353
H        0.3949012076   -0.3442686735   -2.9290187112
H        1.1098761356   -0.0767120320    1.3189210926
H        4.3483881081   -4.4266706393    3.0243157969
H        3.7550919396   -2.8540738084    3.7788827904
H        5.6699810614   -1.6109336037    2.7758209393
H        6.3052748519   -3.1559124814    2.0026325366
H        4.1552722426   -3.4047432064    0.7506265021
21   
torsion grid (-135,)
C        1.7851754328   -2.1279919613   -2.2282911273
C        0.8826439227   -1.0654503176   -2.2601248433
C        1.4369942078   -0.5392211202    0.0447342078
C        2.3677030331   -1.5933113033    0.0875943162
C        2.5108669083   -2.3722737549   -1.0661206304
C        0.7177172471   -0.2793614283   -1.1150436692
C        3.1050295693   -1.8037757392    1.3851338539
C        4.6675856581   -3.5471737414    2.4413841969
C        5.3497346200   -2.2240834497    2.5678017059
C        4.4345337251   -2.4679371375    1.3751774231
O        2.5962171017   -1.4002828649    2.4280260543
F        3.3559066191   -3.4346523216   -1.0768867716
Br      -0.5288165170    1.1756615191   -1.1521392788
H        1.9279670277   -2.7726684293   -3.0898699524
H        0.3128292769   -0.8574192637   -3.1596413493
H        1.3010077740    0.0555046306    0.9414288480
H        5.2421750312   -4.4143604627    2.1316947335
H        3.8291684021   -3.7454086442    3.1011651736
H        4.9738641697   -1.5360101879    3.3174719310
H        6.4119273042   -2.1635273986    2.3518602578
H        4.8989864099   -2.6358326182    0.4126905491
21   
torsion grid (-120,)
C        1.7464323106   -1.9369239733   -2.0214368592
C        0.8453860946   -0.8729667976   -2.0089122244
C        1.5386148409   -0.3272789933    0.2523417062
C        2.4667460558   -1.3847491538    0.2519248226
C        2.5399086911   -2.1732571370   -0.9023922068
C        0.7510408233   -0.0754668465   -0.8635932209
C        3.2768183726   -1.5865100591    1.5070634959
C        4.6286381627   -3.6127601721    2.3050820164
C        5.4319804031   -2.4014132376    2.6703357358
C        4.5536054681   -2.3466160520    1.4382508995
O        2.8541197845   -1.1304086047    2.5660446845
F        3.3832167366   -3.2347348297   -0.9587117749
Br      -0.4909545906    1.3837071777   -0.8393760226
H        1.8376104450   -2.5885388414   -2.8848303205
H        0.2233130760   -0.6717423917   -2.8747354684
H        1.4596379489    0.2768985449    1.1495565533
H        5.1265533881   -4.4710712338    1.8655322840
H        3.7530015490   -3.8351277119    2.9066994783
H        5.0960900111   -1.8156665887    3.5192065558
H        6.5039043860   -2.4207242706    2.4991513030
H        5.0304902569   -2.4159320356    0.4685119482
21   
torsion grid (-105,)
C        1.8002364284   -2.0274893930   -1.9936855560
C        0.8393366700   -1.0178112457   -1.9972690503
C        1.5704178069   -0.3330113497    0.2136502928
C        2.5542538335   -1.3397009789    0.2314493127
C        2.6402132463   -2.1710585309   -0.8924225238
C        0.7361295023   -0.1759714957   -0.8846891111
C        3.4064179847   -1.4355801394    1.4727824316
C        4.5312665665   -3.6177795582    2.1974271706
C        5.3939734785   -2.5064602965    2.7357112533
C        4.6334629237   -2.2807351733    1.4549147136
O        3.0383000916   -0.8555331179    2.4900611582
F        3.5466757118   -3.1787543942   -0.9429766652
Br      -0.5820727276    1.2148854105   -0.8835496389
H        1.9060686120   -2.7077325982   -2.8329754914
H        0.1809420955   -0.8904545793   -2.8502049972
H        1.4881428932    0.3071265338    1.0852611917
H        4.9975321445   -4.4750193419    1.7224566072
H        3.5967939311   -3.8230834568    2.7106284263
H        5.0375703867   -1.9688463398    3.6076667238
H        6.4715969452   -2.6082894644    2.6527434963
H        5.1765564055   -2.3187810857    0.5176202025
21   
torsion grid (-90,)
C        1.9679872567   -1.8751883741   -2.0043734391
C        0.9919119269   -0.8806589659   -1.9895702317
C        1.7838944700   -0.1573740785    0.1873740621
C        2.7770440125   -1.1556704853    0.1925248726
C        2.8420401610   -1.9959246647   -0.9268138464
C        0.9131601125   -0.0253535797   -0.8851505771
C        3.6640935609   -1.2242500167    1.4128905130
C        4.3421580620   -3.5993139046    2.1024560410
C        5.3013390533   -2.6686402694    2.8120966859
C        4.7380124567   -2.2611298861    1.4815049440
O        3.4249456698   -0.4843140468    2.3613971484
F        3.7710678185   -2.9800633596   -1.0068319749
Br      -0.4188205539    1.3524814609   -0.8615635482
H        2.0631629281   -2.5590891431   -2.8419854981
H        0.3058520902   -0.7729811488   -2.8232229943
H        1.7257643704    0.4972173270    1.0500773460
H        4.7236778225   -4.4960354007    1.6247985343
H        3.3366123887   -3.6845574027    2.5043119567
H        4.9350657810   -2.1321416142    3.6808601528
H        6.3513305676   -2.9430406075    2.8441299723
H        5.3708151304   -2.3387424423    0.6036459113
21   
torsion grid (-75,)
C        3.0506074273   -0.1852253884   -2.1595987142
C        2.6353831219    1.1449074015   -2.1181150586
C        3.4645644812    1.3188680062    0.1565364986
C        3.8797215880   -0.0260310650    0.1385907943
C        3.6632884314   -0.7469714778   -1.0426181341
C        2.8518142926    1.8870995457   -0.9520524638
C        4.5142218394   -0.5635821132    1.3983573343
C        3.4681054472   -2.8815684926    1.8548418646
C        4.5608148448   -2.6919940559    2.8925379715
C        4.6987751074   -2.0451108971    1.5464727194
O        4.7702196024    0.2108575783    2.3124098342
F        4.0647052647   -2.0370898207   -1.1499030765
Br       2.2963026436    3.7206329980   -0.8915326973
H        2.9107746422   -0.7919116284   -3.0488571757
H        2.1555427255    1.5962911308   -2.9802392788
H        3.6384384740    1.8880104186    1.0631576143
H        3.3752027113   -3.8381837497    1.3505430518
H        2.5292731164   -2.3587734634    2.0166105424
H        4.3532548523   -2.0371521731    3.7324934209
H        5.2085148453   -3.5342811313    3.1157909797
H        5.3841274080   -2.4877009291    0.8291038935
21   
torsion grid (-60,)
C        3.3630725171    0.3241976525   -1.9605248359
C        3.0773001865    1.6811622599   -1.8101502224
C        4.0032937150    1.6183596678    0.4335766655
C        4.2786736567    0.2448505899    0.3067064660
C        3.9545540264   -0.3691690060   -0.9087035092
C        3.4051118053    2.3167146437   -0.6077789913
C        4.9029890565   -0.4503703006    1.4890532294
C        3.3565286894   -2.5379048414    1.7313969074
C        4.2960298511   -2.5388708445    2.9275252982
C        4.7421581765   -1.9416811067    1.6236641359
O        5.4512693183    0.2179365160    2.3552558324
F        4.2419891461   -1.6774365613   -1.1119257865
Br       3.0256961512    4.1840874462   -0.4000733003
H        3.1399472753   -0.1998655990   -2.8846530396
H        2.6124767437    2.2352804677   -2.6189259506
H        4.2689740702    2.1066215428    1.3648873394
H        3.1644066791   -3.4702793887    1.2099360470
H        2.5119235572   -1.8543948539    1.7625238842
H        4.0831220011   -1.8521111415    3.7408146865
H        4.7418794534   -3.4801590852    3.2341448296
H        5.4518255681   -2.5072066519    1.0236118289
21   
torsion grid (-45,)
C        3.3456172814    0.3891600653   -1.8868454188
C        3.0679567467    1.7418836449   -1.6863903255
C        4.1057461134    1.6231415247    0.5064019492
C        4.3679303871    0.2532031268    0.3309924878
C        3.9858554099   -0.3298370085   -0.8822418219
C        3.4558058004    2.3470370515   -0.4864046285
C        5.0588780755   -0.4784873695    1.4502911102
C        3.3927730526   -2.5140175266    1.6051281943
C        4.1279372942   -2.4100647789    2.9274373972
C        4.7900435084   -1.9490072795    1.6501221991
O        5.7882790486    0.1413576781    2.2119309602
F        4.2724991223   -1.6300137773   -1.1288587727
Br       3.0886703379    4.2082543304   -0.2129727199
H        3.0803292472   -0.1095261676   -2.8139046946
H        2.5646334786    2.3166460128   -2.4567947951
H        4.4213615004    2.0907139191    1.4328734407
H        3.2541628758   -3.4917567630    1.1544968932
H        2.5718775324   -1.8216040936    1.4374647385
H        3.8078239608   -1.6453264171    3.6287948773
H        4.5026678566   -3.3173519083    3.3911231492
H        5.5875390365   -2.5775758985    1.2593596472
21   
torsion grid (-30,)
C        9.2542067378    0.0854427669    0.4781029496
C        9.7437956695   -1.1893530981    0.7660365083
C        9.1515793230   -0.8818253525    3.1017783313
C        8.6840029475    0.4155769629    2.8315964647
C        8.7368850805    0.8646635935    1.5082823494
C        9.6844163774   -1.6615761400    2.0811742152
C        8.1179913893    1.2139621090    3.9753775920
C        9.5754981550    3.3736854717    3.4838344256
C        9.4457942403    3.1959107581    4.9770789572
C        8.3497837683    2.6988958187    4.0444009202
O        7.4991401979    0.6362666512    4.8588657748
F        8.2340703581    2.0803309672    1.1872910006
Br      10.3409070759   -3.4178703879    2.4783678590
H        9.2602078750    0.4759157394   -0.5348228672
H       10.1562191104   -1.8079154958   -0.0241853478
H        9.0860069369   -1.2523495860    4.1192195643
H        9.4524077616    4.3655024562    3.0600540390
H       10.3069954139    2.7554408111    2.9715598431
H       10.0732484174    2.4500893918    5.4564112000
H        9.2180341629    4.0576430025    5.5966386912
H        7.4227025825    3.2658112964    4.0672155623
21   
torsion grid (-15,)
C        9.2879624664    0.0100140893    0.5396418390
C        9.7994983808   -1.2391607690    0.8959065203
C        9.1130215174   -0.8562741846    3.1947379827
C        8.6251017851    0.4157533994    2.8557149522
C        8.7148523899    0.8141264389    1.5194414583
C        9.7041968386   -1.6609792885    2.2253790408
C        7.9741979013    1.2414555807    3.9356001021
C        9.5102529949    3.3617710048    3.4491137917
C        9.5779547729    2.9970211092    4.9034106075
C        8.3160078931    2.6904659508    4.0859242910
O        7.1944720333    0.7012961876    4.7090486388
F        8.1934555303    2.0053822355    1.1386527794
Br      10.3879586595   -3.3825014741    2.7171396793
H        9.3198185228    0.3599302795   -0.4875436112
H       10.2550160905   -1.8772975801    0.1460229368
H        9.0164591504   -1.1940304268    4.2211844371
H        9.3959466043    4.4058994893    3.1748050384
H       10.1176618247    2.7832027363    2.7612350401
H       10.2063156722    2.1570937768    5.1856997487
H        9.4937902657    3.7727351769    5.6578185327
H        7.4528549076    3.3018498232    4.3309090680
21   
torsion grid (0,)
C        9.3429307938    0.2316061406    0.4149959800
C        9.9353510853   -0.9853901959    0.7576319286
C        9.1945181704   -0.6911818283    3.0540913045
C        8.6242684799    0.5483135517    2.7273972713
C        8.7031930518    0.9753453640    1.4010215265
C        9.8525847266   -1.4355466355    2.0782547394
C        7.8933880157    1.3136764637    3.8049928969
C        9.4084505858    3.4774731984    3.4423887443
C        9.6713831732    2.8789163281    4.7887564991
C        8.2925999571    2.7130130052    4.1231580835
O        7.0184733208    0.7480871270    4.4472669936
F        8.1073148996    2.1388775529    1.0396386091
Br      10.6458559711   -3.1147151148    2.5512126523
H        9.3642039202    0.6017454306   -0.6053738127
H       10.4434772519   -1.5774019144    0.0037862452
H        9.1102408697   -1.0567614260    4.0721776301
H        9.2730872692    4.5519434700    3.3670175124
H        9.8970910672    3.0276989492    2.5860579724
H       10.3089431494    2.0008146529    4.8348337922
H        9.7097922077    3.5166616720    5.6660015174
H        7.4897326141    3.2816844802    4.5813348846
21   
torsion grid (15,)
C        9.4966233532    0.4464979617    0.2548211746
C       10.1903080662   -0.7245848305    0.5662850458
C        9.4066534659   -0.5682211634    2.8631306269
C        8.7302220079    0.6235244543    2.5662490943
C        8.7839928021    1.0975000413    1.2561974376
C       10.1355140554   -1.2211818992    1.8712816454
C        7.9160993724    1.2895540153    3.6549285896
C        9.2979648577    3.5565207982    3.4571147724
C        9.7667053385    2.7910976133    4.6523221563
C        8.3186018421    2.6291507101    4.1556332857
O        6.9840546572    0.6769095525    4.1578179657
F        8.0941330831    2.2200049199    0.9291573740
Br      11.0668801388   -2.8394627372    2.3023587468
H        9.4964762178    0.8511301953   -0.7525913563
H       10.7552895887   -1.2457215772   -0.1992518320
H        9.3502325963   -0.9736121338    3.8680989791
H        9.0976706098    4.6179827580    3.5643234999
H        9.6790333537    3.2688404836    2.4850351436
H       10.4435982691    1.9587056719    4.4857059781
H        9.8921459549    3.3007162014    5.6022410883
H        7.5549581358    3.0825544730    4.7794416464
21   
torsion grid (30,)
C        9.2405462595    0.2423206998    0.3090021400
C        9.8381667873   -0.9634409197    0.6816775405
C        9.0474419793   -0.6418450585    2.9600678735
C        8.4598976322    0.5774480446    2.5973903175
C        8.5667801365    0.9875901924    1.2706050977
C        9.7332923747   -1.3931245716    2.0068680304
C        7.6766904187    1.3606134514    3.6340448620
C        9.2964079451    3.4470524012    3.5067066193
C        9.7852266485    2.5560746825    4.6018028900
C        8.2931362414    2.5650539638    4.2423500654
O        6.5848464461    0.9450500255    3.9945114966
F        7.9796754122    2.1527233001    0.8926791280
Br      10.5380777819   -3.0535059980    2.5235357969
H        9.2873267380    0.6029240592   -0.7139050862
H       10.3704700493   -1.5601730425   -0.0513153192
H        8.9590037197   -0.9953819376    3.9823642189
H        9.2109297838    4.5121249761    3.6971669092
H        9.5472421984    3.1913467829    2.4844594466
H       10.3597119222    1.6783073664    4.3237126041
H       10.0440798857    2.9883259147    5.5631155143
H        7.6291301660    3.0551844907    4.9472454419
21   
torsion grid (45,)
C        0.3868395893   -2.4213823172    1.4722932381
C       -0.3887087147   -2.3448272183    2.6306284056
C        1.2098678375   -3.7692689115    3.7849849698
C        2.0051671920   -3.8333050968    2.6323174072
C        1.5656024150   -3.1595344690    1.4951723076
C        0.0329093396   -3.0231673230    3.7773270068
C        3.2583662269   -4.6860437405    2.6497355206
C        4.8105420362   -2.8374379968    3.6177585767
C        4.8342016111   -2.6140651518    2.1404281712
C        4.5854513485   -4.0214731093    2.6656238635
O        3.1498075839   -5.9017056745    2.7244586690
F        2.3004906189   -3.2385335656    0.3557472582
Br      -1.0343725400   -2.9373802733    5.3664601471
H        0.0842829511   -1.9232861294    0.5563554772
H       -1.3102833302   -1.7726171587    2.6358743906
H        1.5172425455   -4.3083556802    4.6752870580
H        5.7438712732   -2.8436269796    4.1716868508
H        3.9511303204   -2.4737006168    4.1721953608
H        4.0071435871   -2.0804841789    1.6885809537
H        5.7912101015   -2.4595146812    1.6522604422
H        5.4011436517   -4.7330158669    2.5854229195
21   
torsion grid (60,)
C        1.2733724210   -1.3047892304    0.9441891686
C        0.6241469490   -0.6740080357    2.0073351287
C        1.7463025966   -2.1642636663    3.5668521466
C        2.4249060011   -2.7846768747    2.5079386614
C        2.1600577558   -2.3423329891    1.2121283503
C        0.8679024932   -1.1136331429    3.3112789559
C        3.3444749641   -3.9456774600    2.8143883123
C        5.5819516109   -2.7119293282    3.1816795357
C        5.4311489179   -2.7248105865    1.6916180777
C        4.7932086732   -3.8400131897    2.4962338672
O        2.8910771993   -4.9295464536    3.3830473406
F        2.7616372862   -2.9605112566    0.1644741296
Br      -0.0350283897   -0.2669608213    4.7741995249
H        1.0925155206   -1.0068074534   -0.0839677201
H       -0.0679548070    0.1400683111    1.8198613134
H        1.9118070447   -2.5165710933    4.5797099018
H        6.5292125885   -2.9932009643    3.6302932212
H        5.0124054883   -1.9742752247    3.7391267587
H        4.7872212876   -1.9784489712    1.2423124046
H        6.2841529222   -3.0075756954    1.0827960864
H        5.2832934565   -4.8085320446    2.4892032478
21   
torsion grid (75,)
C        1.3775722923   -1.2242540787    0.7567993108
C        0.6918806484   -0.5329101686    1.7574674746
C        1.7251008223   -1.9532514780    3.4374506088
C        2.4434806998   -2.6337368404    2.4424926263
C        2.2400915332   -2.2553275091    1.1140293295
C        0.8731913067   -0.9075741807    3.0918481387
C        3.3376735931   -3.7774008799    2.8539778217
C        5.7205058280   -2.8430955020    3.1316009415
C        5.4653557779   -2.7005323587    1.6581448442
C        4.7633377973   -3.8044180345    2.4138288105
O        2.8918509783   -4.6487788371    3.5884631424
F        2.8714839380   -2.9324101804    0.1235963811
Br      -0.0791006904    0.0254105684    4.4685633355
H        1.2430116267   -0.9784627008   -0.2920476671
H        0.0190979774    0.2779048273    1.4987682410
H        1.8439683104   -2.2586845799    4.4717361322
H        6.6588332632   -3.2636532355    3.4785363688
H        5.2816301255   -2.1015974276    3.7930134770
H        4.8818187470   -1.8466065361    1.3328135974
H        6.2388838857   -3.0073025777    0.9610977689
H        5.1388241125   -4.8166569164    2.2989344604
21   
torsion grid (90,)
C        1.5509934310   -1.1900902854    0.4333472056
C        0.8080542034   -0.4201273683    1.3299415672
C        1.6957840015   -1.7245726811    3.1767008578
C        2.4735687766   -2.4851179987    2.2884979559
C        2.3695760384   -2.2024313594    0.9235846200
C        0.8877608813   -0.6981542763    2.6979210420
C        3.3218333883   -3.5930870760    2.8556276594
C        5.8344029595   -3.0492496737    3.0859917595
C        5.5383056683   -2.7605630280    1.6362939977
C        4.7208418654   -3.8010522152    2.3578969948
O        2.8667549036   -4.2963094355    3.7477289014
F        3.0491264940   -2.9574895011    0.0274028502
Br      -0.1427721257    0.3459604273    3.9312407527
H        1.4937593144   -1.0206053487   -0.6374298458
H        0.1689441128    0.3773873557    0.9658497797
H        1.7407539857   -1.9567609368    4.2354752928
H        6.7207998651   -3.6175540055    3.3491275823
H        5.5400821623   -2.3042835836    3.8196913926
H        5.0689284969   -1.8094107745    1.4059133715
H        6.2308102212   -3.1134474395    0.8784581556
H        4.9352499970   -4.8464561451    2.1548743907
21   
torsion grid (105,)
C        1.5732592659   -1.2306403966    0.3503366747
C        0.7842344551   -0.4545269499    1.2005554743
C        1.6693977497   -1.6613062352    3.1134986084
C        2.4921020500   -2.4295495586    2.2721659776
C        2.4109913504   -2.1989200855    0.8948405405
C        0.8398511687   -0.6815363705    2.5795024833
C        3.3731846772   -3.4713353244    2.9075477847
C        5.9516549724   -3.2356601989    3.0468607782
C        5.5898606868   -2.7108213698    1.6760268532
C        4.7283435882   -3.7663567126    2.3197376943
O        2.9906368713   -4.0422988295    3.9197418733
F        3.1321999397   -2.9604650439    0.0385040537
Br      -0.2532331502    0.3721346381    3.7492966661
H        1.5380155132   -1.0998998425   -0.7267833422
H        0.1295817475    0.3088144137    0.7932440536
H        1.7023172678   -1.8529308329    4.1807137627
H        6.8006593167   -3.9042776325    3.1496519158
H        5.7852304628   -2.5860414146    3.9011956759
H        5.1958299623   -1.6999061342    1.6190532203
H        6.1948920273   -3.0040564048    0.8237603914
H        4.8066788587   -4.7820122259    1.9396492432
21   
torsion grid (120,)
C        1.4739000860   -1.2837991029    0.4231795941
C        0.6580982432   -0.5280769002    1.2659026114
C        1.6228426677   -1.6463448616    3.1931453480
C        2.4704880817   -2.3970272309    2.3594496196
C        2.3620444817   -2.1998822322    0.9783394786
C        0.7405260794   -0.7206702584    2.6489966484
C        3.4185029198   -3.3664859857    3.0141148867
C        6.0171167125   -3.4117962058    3.0226008920
C        5.6151676980   -2.6168967187    1.7979202967
C        4.7139325117   -3.7110063780    2.3215226219
O        3.1532315703   -3.8064853134    4.1242877065
F        3.1102180878   -2.9401679492    0.1261747488
Br      -0.3881448747    0.3066069996    3.8087865207
H        1.4227259852   -1.1771386604   -0.6559377335
H       -0.0364183902    0.1944320894    0.8501888718
H        1.6827929524   -1.8098431935    4.2637233524
H        6.8186335097   -4.1385974237    2.9317326711
H        5.9612794239   -2.9232153449    3.9906496846
H        5.3017275972   -1.5875272485    1.9519701128
H        6.1356602342   -2.7919278389    0.8615178673
H        4.6581053153   -4.6247232951    1.7338831513
21   
torsion grid (135,)
C        1.7517349976   -1.3181303937   -0.0660911616
C        0.8959758132   -0.4814366408    0.6496731626
C        1.7390515797   -1.4138575037    2.7266495489
C        2.6224345581   -2.2520050353    2.0217593175
C        2.5941996926   -2.1855750239    0.6234466682
C        0.8978390930   -0.5422722244    2.0473759855
C        3.5211232502   -3.1490650657    2.8355243321
C        6.0554939753   -3.7044992575    2.9388186109
C        5.8462392541   -2.7569345466    1.7784793564
C        4.7510456993   -3.7274388442    2.1891456873
O        3.2873832223   -3.3037588964    4.0271983604
F        3.3833574360   -2.9987511464   -0.1193556562
Br      -0.2870762773    0.5939344151    3.0369815916
H        1.7686893882   -1.3118187370   -1.1514943808
H        0.2349575615    0.2020557284    0.1270532847
H        1.7421994721   -1.4710687305    3.8096649259
H        6.7307543600   -4.5441267112    2.8036278805
H        6.0389551571   -3.2943780180    3.9435818537
H        5.6997646599   -1.7050510473    2.0100084465
H        6.3604600718   -2.9451267429    0.8411584470
H        4.5603600886   -4.5455395662    1.4997179115
21   
torsion grid (150,)
C        1.8709201403   -1.2312633097   -0.2171317720
C        0.9804817838   -0.3951527957    0.4541784323
C        1.8383866694   -1.2106219341    2.5715234690
C        2.7506616447   -2.0569055503    1.9124699827
C        2.7328722872   -2.0469381268    0.5117090403
C        0.9729018629   -0.3974488223    1.8532399404
C        3.6632348191   -2.8864562000    2.7844249066
C        6.0217092715   -3.9469675756    2.9131974339
C        6.0287070945   -2.9094834170    1.8183258497
C        4.7544468663   -3.6893528391    2.1453305948
O        3.5583165827   -2.8002835845    4.0027446694
F        3.5615352150   -2.8485215656   -0.2013202696
Br      -0.2583609682    0.7373336036    2.7864491215
H        1.9037308747   -1.2637073033   -1.3016626872
H        0.3027939828    0.2441334858   -0.1019691431
H        1.8415872225   -1.2171941949    3.6559478819
H        6.5333453193   -4.8872391555    2.7305901044
H        6.0464637870   -3.6036399204    3.9420191704
H        6.0648996862   -1.8641693747    2.1124898053
H        6.5177965761   -3.1345875095    0.8758171163
H        4.4400151054   -4.4003004456    1.3883570886
21   
torsion grid (165,)
C        1.8483525130   -1.1400338736   -0.2209223894
C        0.8990434458   -0.3799137475    0.4597558773
C        1.8496356251   -1.1061700204    2.5711620170
C        2.8136081542   -1.8855038634    1.9034897504
C        2.7802083284   -1.8796204199    0.5030002252
C        0.9103827155   -0.3736084558    1.8587387308
C        3.7971450087   -2.6369720612    2.7678702301
C        5.9295511855   -4.0913681786    2.9236531005
C        6.1450185041   -3.0453828301    1.8668432953
C        4.7400682851   -3.6043878818    2.1351727169
O        3.8530849771   -2.3736195227    3.9651101642
F        3.6791215019   -2.5952911164   -0.2170887365
Br      -0.3968314167    0.6642810109    2.8004204969
H        1.8768765341   -1.1676212197   -1.3057416720
H        0.1634818494    0.1981377929   -0.0897887982
H        1.8723234326   -1.0984979585    3.6554074642
H        6.2714832231   -5.1018898810    2.7215929754
H        5.9782872750   -3.7802509837    3.9614948008
H        6.3407812125   -2.0281447878    2.1928629296
H        6.6087147618   -3.3239537384    0.9258758914
H        4.3368661652   -4.2332721664    1.3498242866
21   
torsion grid (180,)
C        1.7696891138   -1.0763543863   -0.1906255635
C        0.7918049989   -0.3856956856    0.5235738988
C        1.8657109209   -1.0389431685    2.6006559291
C        2.8527768554   -1.7544111291    1.8974473891
C        2.7747728915   -1.7486032779    0.4994943236
C        0.8526690780   -0.3754960985    1.9211271465
C        3.9158894156   -2.4386581008    2.7189630889
C        5.8098677559   -4.1757527495    2.9392785811
C        6.2386962391   -3.1501280584    1.9352474515
C        4.7492833541   -3.5028227127    2.0964638397
O        4.0964725645   -2.0734129391    3.8774780494
F        3.7094820291   -2.3878646131   -0.2475711990
Br      -0.4867586404    0.5753073599    2.9078817248
H        1.7659105976   -1.0971967758   -1.2759381153
H       -0.0011686169    0.1387882912    0.0007963357
H        1.9276464764   -1.0229312727    3.6833271570
H        6.0079335091   -5.2213879086    2.7243540194
H        5.8339325192   -3.8956637216    3.9868464233
H        6.5469270879   -2.1777174356    2.3062273764
H        6.7135961004   -3.4699247051    1.0131932297
H        4.3109292765   -4.0554083871    1.2747663334
