23   
torsion grid (-165,)
C       -0.1835961569    5.4154258442    0.5078874442
C       -0.2724410520    4.9063987304   -0.7915153278
C       -0.4011331389    4.5709361584    1.6023154138
C       -0.5774486827    3.5584660136   -1.0005704893
C       -0.6947344075    3.2212240118    1.3994494209
C       -0.7775701272    2.7134613059    0.0983557275
C       -0.3283118618    0.6328174212   -1.1453872211
C       -2.8728913127   -0.7520840582    0.1156245651
N       -1.0734947096    1.3030802463   -0.0596993448
O       -3.2697897927    1.2959112327   -1.5169478512
O       -3.3789902085    1.7091527335    0.9913126407
S       -2.7790702292    1.0294103172   -0.1565117452
H        0.0498150691    6.4649519293    0.6665899170
H       -0.1162740466    5.5603680850   -1.6453467554
H       -0.3397818984    4.9622614513    2.6142677983
H       -0.6729533512    3.1751010094   -2.0113756582
H       -0.8714538016    2.5521287812    2.2350790253
H       -0.3844374254   -0.4499606189   -1.0138465766
H       -0.6901798636    0.8891733501   -2.1474967094
H        0.7182199420    0.9272048664   -1.0517252730
H       -3.9349598688   -0.9623313599    0.2538224602
H       -2.4995634310   -1.2841227127   -0.7580342471
H       -2.3134110434   -0.9995446568    1.0178447639
23   
torsion grid (-150,)
C       -0.1961621540    5.3725153502    0.5746855573
C       -0.2434164492    4.9206329436   -0.7474490386
C       -0.4640843621    4.4839926012    1.6223040062
C       -0.5595166651    3.5875536402   -1.0254868158
C       -0.7664296174    3.1489909480    1.3501575692
C       -0.8125219337    2.6980442416    0.0261539206
C       -0.3667921074    0.6686750440   -1.3160652711
C       -2.8466804344   -0.7291325331    0.3399893349
N       -1.1112315566    1.3027678023   -0.2103560876
O       -3.2713059972    0.9528977785   -1.6637302363
O       -3.4483278224    1.8252483209    0.7240335581
S       -2.8048125476    0.9671845413   -0.2700944946
H        0.0454084384    6.4105089008    0.7875077423
H       -0.0453714335    5.6074121701   -1.5661275095
H       -0.4330717418    4.8295301770    2.6521739012
H       -0.6178884095    3.2495339840   -2.0553296942
H       -0.9775456685    2.4486852562    2.1517202165
H       -0.4613783774   -0.4174929537   -1.2461850699
H       -0.7090088113    0.9831857292   -2.3073565994
H        0.6866411859    0.9244795021   -1.1901538722
H       -3.9013364876   -1.0089454886    0.3638593067
H       -2.3032130317   -1.3842006722   -0.3401712050
H       -2.4181264176   -0.7434829964    1.3416635336
23   
torsion grid (-135,)
C       -0.1857646583    5.3259204283    0.6363896953
C       -0.1545218606    4.9226966630   -0.7014487956
C       -0.5444512514    4.4058118312    1.6283199072
C       -0.4861176521    3.6100702303   -1.0502834927
C       -0.8581301437    3.0900442789    1.2869145168
C       -0.8318496437    2.6881469903   -0.0542090028
C       -0.3915207879    0.7042575342   -1.4867180233
C       -2.7726664357   -0.6599604630    0.5376984763
N       -1.1377468310    1.3168658366   -0.3732554738
O       -3.2457273124    0.6104071040   -1.7365194563
O       -3.5082097076    1.8840177639    0.4593664641
S       -2.8081894797    0.9000965503   -0.3650778700
H        0.0663306213    6.3483814841    0.9046123615
H        0.1162884984    5.6321649701   -1.4789358098
H       -0.5722020049    4.7112436737    2.6708891592
H       -0.4813224711    3.3116640228   -2.0939890729
H       -1.1324936119    2.3693145808    2.0505477280
H       -0.5103308511   -0.3814030542   -1.4533978273
H       -0.7194397675    1.0512768589   -2.4716374781
H        0.6650614292    0.9370858174   -1.3421875415
H       -3.7965230524   -1.0380686655    0.5424496490
H       -2.1141012031   -1.3616627628    0.0252339173
H       -2.4256102087   -0.4585598727    1.5507368775
23   
torsion grid (-120,)
C       -0.1643566148    5.2712474000    0.7096795454
C       -0.0483778556    4.9007630121   -0.6323521904
C       -0.6358582145    4.3404078119    1.6427379734
C       -0.4095565984    3.6144931487   -1.0446757078
C       -0.9757289677    3.0490317656    1.2409808987
C       -0.8694082955    2.6800764684   -0.1072291753
C       -0.4642878927    0.7475371932   -1.6348280787
C       -2.6949568752   -0.5515206872    0.7687778278
N       -1.1953583565    1.3396924810   -0.5024617659
O       -3.2452535009    0.2947549666   -1.6728297522
O       -3.5876313756    1.8938902369    0.2905288046
S       -2.8288644137    0.8361502008   -0.3745561757
H        0.1095702621    6.2737854303    1.0267647273
H        0.3118152279    5.6163006035   -1.3668685420
H       -0.7291474303    4.6171412271    2.6895239128
H       -0.3370812805    3.3459564202   -2.0937709134
H       -1.3317477817    2.3264443223    1.9681907525
H       -0.5935936252   -0.3365689350   -1.6273651231
H       -0.8000329153    1.1204540532   -2.6076847772
H        0.5954644960    0.9703492762   -1.4962890043
H       -3.6925840332   -0.9858512002    0.8569544560
H       -1.9966383597   -1.2821867214    0.3589584421
H       -2.3487855418   -0.1721197371    1.7299854695
23   
torsion grid (-105,)
C       -0.3286881292    5.2145426868    0.7626034230
C       -0.7621982385    4.9699840397   -0.5459818827
C       -0.1559062728    4.1500983062    1.6526128411
C       -1.0206684275    3.6646503962   -0.9682792514
C       -0.4173254897    2.8418164512    1.2330388433
C       -0.8471922427    2.5996403143   -0.0753505661
C       -0.0397410826    0.6633929945   -1.3774107583
C       -3.0652373904   -0.2044025591    0.6793749776
N       -1.0651795640    1.2318409523   -0.4793195035
O       -2.6692897628   -0.1442143587   -1.9345481997
O       -3.5388178157    1.9567605811   -0.7679743590
S       -2.6812549089    0.7698078591   -0.7864850247
H       -0.1296960491    6.2324893382    1.0873249915
H       -0.9063249496    5.7977724590   -1.2351263531
H        0.1791698671    4.3365070646    2.6695274423
H       -1.3765121266    3.4709279247   -1.9756924053
H       -0.2866063799    2.0002683271    1.9081074455
H       -0.2275690284   -0.3996578889   -1.5274855371
H       -0.0162884560    1.1588044596   -2.3548319310
H        0.9274515075    0.7915490756   -0.8858197646
H       -4.0913992636   -0.5601689072    0.5684839133
H       -2.3670070445   -1.0401117758    0.7286634843
H       -2.9729298296    0.4424106282    1.5524497454
23   
torsion grid (-90,)
C       -0.4179448396    5.2098033475    0.8886019342
C       -1.2032592953    5.0945489049   -0.2641376688
C        0.0909146257    4.0576440509    1.4944188254
C       -1.4746716515    3.8422586870   -0.8173486040
C       -0.1953560400    2.7982891251    0.9597147639
C       -0.9779131805    2.6855010127   -0.1994575990
C       -0.1689308410    0.3856542399   -0.7809891926
C       -3.1018709749   -0.0597356966    0.6581469413
N       -1.2317411008    1.3975503103   -0.7716419600
O       -2.8246571307   -0.1814634143   -1.9573824941
O       -3.7111732728    1.9817973033   -0.9305798281
S       -2.8197524177    0.8250845431   -0.8934696124
H       -0.2004422942    6.1888027427    1.3070081874
H       -1.5969115059    5.9856626124   -0.7457654632
H        0.7042472899    4.1351761246    2.3883815551
H       -2.0725149059    3.7514585721   -1.7163830027
H        0.1945577831    1.9065865696    1.4422777517
H       -0.4191150840   -0.3811596511   -1.5147308335
H        0.7596530726    0.8721916136   -1.0864575066
H       -0.0128347488   -0.0879996753    0.1978841949
H       -4.1166174777   -0.4596238385    0.6166441967
H       -2.3795266452   -0.8731251946    0.7349098723
H       -3.0008548480    0.6462158626    1.4840970809
23   
torsion grid (-75,)
C       -0.5031463038    5.1220740976    0.9673534672
C       -1.2684486960    5.0459301198   -0.2021302661
C        0.0344985465    3.9548614339    1.5165186553
C       -1.4922408600    3.8177658856   -0.8260414443
C       -0.2016440512    2.7179803386    0.9091538039
C       -0.9659395388    2.6445574488   -0.2654377067
C       -0.1199130937    0.3746231709   -0.8802431730
C       -3.0663494431    0.1747457877    0.7299464835
N       -1.1865526307    1.3850701847   -0.9170117819
O       -2.7508204400   -0.3863087819   -1.8370515337
O       -3.6788624727    1.9000873247   -1.1852784451
S       -2.7736307401    0.7780352321   -0.9494443688
H       -0.3225251737    6.0828206175    1.4418510445
H       -1.6837162455    5.9493992775   -0.6406287548
H        0.6340885055    4.0024517617    2.4218157510
H       -2.0763859978    3.7543745118   -1.7363483024
H        0.2149014916    1.8163831093    1.3484013813
H       -0.3364960752   -0.3897839710   -1.6255727436
H        0.8173244359    0.8703638824   -1.1406921989
H       -0.0039081680   -0.1054024495    0.1014016590
H       -4.0831793409   -0.2210313455    0.7529867533
H       -2.3479344851   -0.6161128193    0.9494909233
H       -2.9648715611    1.0123932732    1.4215711933
23   
torsion grid (-60,)
C       -0.5720115568    5.0363539334    1.0607884521
C       -1.3747088426    4.9703119163   -0.0838915679
C        0.0574573321    3.8790477495    1.5266184672
C       -1.5456691649    3.7635701759   -0.7640108344
C       -0.1239584234    2.6616719646    0.8635442236
C       -0.9280018424    2.5972531013   -0.2852931640
C       -0.0294722141    0.3616568398   -0.9259852002
C       -3.0694175911    0.4435554944    0.7563406721
N       -1.1082166206    1.3607557704   -0.9939635113
O       -2.5977297692   -0.5922229128   -1.6485654047
O       -3.6008866736    1.7447429190   -1.4792532287
S       -2.6885613445    0.7126197058   -0.9907931372
H       -0.4327592772    5.9812174036    1.5789831428
H       -1.8604128994    5.8664477403   -0.4608138896
H        0.6881276027    3.9179933951    2.4109777828
H       -2.1591174418    3.7090188665   -1.6553842396
H        0.3651709652    1.7699808802    1.2424660672
H       -0.2077118804   -0.3974750352   -1.6853220580
H        0.9085537733    0.8755896629   -1.1451118000
H        0.0547797451   -0.1308134044    0.0526654998
H       -4.0754158394    0.0224144671    0.7956141900
H       -2.3460352270   -0.2598869280    1.1715210911
H       -3.0338760715    1.4036163642    1.2717283852
23   
torsion grid (-45,)
C       -0.5930145606    4.9577330647    1.1435179039
C       -1.4686110924    4.8962530051    0.0530586138
C        0.1348722302    3.8216437937    1.5059311689
C       -1.6146083230    3.7139788796   -0.6735818593
C       -0.0207385268    2.6261498863    0.7975276499
C       -0.8999987841    2.5642305492   -0.2950982075
C        0.0027032893    0.3540973212   -0.9947589879
C       -3.1668600623    0.7769687975    0.7273144931
N       -1.0776461401    1.3539723977   -1.0452564149
O       -2.5335438352   -0.7140513274   -1.3955886258
O       -3.5457709651    1.5955383600   -1.7476917979
S       -2.6637845645    0.6924062009   -1.0086115065
H       -0.4732372760    5.8839762800    1.6986478220
H       -2.0298460362    5.7774556099   -0.2464107082
H        0.8231112118    3.8584515359    2.3463957759
H       -2.2823109042    3.6633581329   -1.5262100520
H        0.5443034313    1.7513442384    1.1009845887
H       -0.1813403877   -0.4008133235   -1.7562753042
H        0.9362578975    0.8725715900   -1.2229969970
H        0.0963293071   -0.1471892433   -0.0221615075
H       -4.1532267306    0.3124314351    0.7756353425
H       -2.4510921063    0.2186290397    1.3327281381
H       -3.2164563811    1.8213484148    1.0320796863
23   
torsion grid (-30,)
C       -0.5713906983    4.9421285478    1.2202831896
C       -1.4807485297    4.9130489251    0.1558454499
C        0.1791686219    3.8004780312    1.5132197239
C       -1.6355465877    3.7574450966   -0.6101119981
C        0.0138666787    2.6296099327    0.7661181578
C       -0.8999537463    2.6008045819   -0.2980190000
C       -0.0170727291    0.4368950013   -1.1361703737
C       -3.2883997138    1.1202502990    0.6772102687
N       -1.1074536351    1.4273908234   -1.0912640798
O       -2.5138436751   -0.7170758697   -1.1076016423
O       -3.5564922045    1.4598090546   -1.9150274282
S       -2.6879416764    0.7332548435   -0.9870631021
H       -0.4427800331    5.8472508312    1.8073292166
H       -2.0591483395    5.7991965887   -0.0919476808
H        0.8933767716    3.8136191587    2.3324283085
H       -2.3245110225    3.7304346953   -1.4488051821
H        0.5953991350    1.7488978666    1.0173779770
H       -0.2229754928   -0.2825906439   -1.9264888197
H        0.8985069462    0.9796600596   -1.3808195998
H        0.1220166905   -0.1127683172   -0.1970037653
H       -4.2417797206    0.5950574243    0.7589495285
H       -2.5792016153    0.7433281744    1.4154440942
H       -3.4288702348    2.1945040132    0.7733081181
23   
torsion grid (-15,)
C       -0.5964104832    4.8426315953    1.2535294162
C       -1.4974318017    4.8110842411    0.1822424061
C        0.1604903920    3.7054096810    1.5511548981
C       -1.6368904089    3.6547424984   -0.5862577184
C        0.0082559243    2.5350334684    0.8011583827
C       -0.8966558738    2.5037145606   -0.2704334401
C        0.0560909702    0.4223651476   -1.2316173219
C       -3.3426649093    1.1546500150    0.6318302442
N       -1.0899963565    1.3354256320   -1.0702898428
O       -2.2878729820   -0.9110412194   -0.6918505082
O       -3.4811100773    0.9189795997   -1.9876036687
S       -2.6040718912    0.5087976120   -0.8890402765
H       -0.4781638056    5.7474641915    1.8432464352
H       -2.0783556090    5.6948312926   -0.0681976150
H        0.8669912358    3.7230323245    2.3769204203
H       -2.3118942620    3.6248792515   -1.4372662832
H        0.5895792384    1.6536783097    1.0530638545
H       -0.1493154223   -0.2694879805   -2.0481779521
H        0.9165328791    1.0378966249   -1.5024098009
H        0.2839655566   -0.1643175041   -0.3345137068
H       -4.2290023404    0.5342208327    0.7780322018
H       -2.6458142465    1.0315225244    1.4611126415
H       -3.6205642345    2.1970728824    0.4969355060
23   
torsion grid (0,)
C       -0.5576817738    4.8110210952    1.2869774203
C       -1.4346318075    4.8228417798    0.1959783026
C        0.1464712544    3.6427778564    1.5974856977
C       -1.6033367724    3.6750301172   -0.5809602669
C       -0.0358936036    2.4846054874    0.8363059229
C       -0.9164938247    2.4961272535   -0.2559055842
C        0.0368600456    0.4940497757   -1.3757500392
C       -3.4120568948    1.2324395099    0.5774167664
N       -1.1318974179    1.3381967925   -1.0676728960
O       -2.1218140477   -0.9231398926   -0.2960598093
O       -3.4119870034    0.4818102866   -1.9633365940
S       -2.5574379351    0.3962865789   -0.7770567210
H       -0.4173749630    5.7074583629    1.8847728054
H       -1.9733400137    5.7310607499   -0.0611252363
H        0.8319983688    3.6287544631    2.4407899999
H       -2.2573102992    3.6753382164   -1.4488211891
H        0.4988093837    1.5750197352    1.0933357541
H       -0.2144262366   -0.1773728025   -2.1986544276
H        0.8354611609    1.1621988957   -1.7041995562
H        0.3761217200   -0.1111171039   -0.5280764944
H       -4.2600933628    0.5775989173    0.7872455407
H       -2.7552643724    1.3030999812    1.4436552420
H       -3.7569367294    2.2126713160    0.2556596294
23   
torsion grid (15,)
C       -0.3414140070    5.1859585521    0.4491816972
C       -1.6179042603    4.6388807094    0.6275726019
C        0.6699925438    4.4055292601   -0.1188610151
C       -1.8788795861    3.3225405400    0.2451868993
C        0.4093263664    3.0937469614   -0.5272759867
C       -0.8705921209    2.5472447271   -0.3504954462
C       -0.1067409592    0.2134017689   -0.7169725003
C       -2.2822439556    2.6562004774   -2.9218563310
N       -1.1905049872    1.2123465599   -0.7477306730
O       -3.5986593864    0.7868066615   -1.6145048100
O       -1.6053489088    0.0743370085   -3.0184266954
S       -2.2449021837    1.0371715611   -2.1135886008
H       -0.1348295639    6.2065031080    0.7594603674
H       -2.4066454794    5.2314138967    1.0836452981
H        1.6654581045    4.8200685120   -0.2550775634
H       -2.8568906933    2.8760959186    0.4030750117
H        1.1986570111    2.5038991668   -0.9824526008
H       -0.5373476271   -0.7846941897   -0.7944842969
H        0.6280038827    0.3330742240   -1.5211475008
H        0.3846904015    0.3082149358    0.2536179979
H       -2.8522514287    2.4804274786   -3.8362218959
H       -2.7884574148    3.3779696730   -2.2855626969
H       -1.2664564791    2.9746482033   -3.1569013370
23   
torsion grid (30,)
C       -0.3553626471    5.2313089269    0.5461446852
C       -1.6358671638    4.6917311538    0.7192738652
C        0.6488734195    4.4459642363   -0.0259239975
C       -1.9089924520    3.3805733526    0.3289633314
C        0.3785799537    3.1382859217   -0.4422620933
C       -0.9056539993    2.5999717709   -0.2712781453
C       -0.1270821933    0.3017263407   -0.7968286910
C       -2.2070345412    2.6498966559   -2.9456489119
N       -1.2335528587    1.2685066273   -0.6822964601
O       -3.7336823120    1.2419623796   -1.3352379934
O       -2.0342596087   -0.0136459429   -2.7541532261
S       -2.4068348523    1.1519830999   -1.9474219090
H       -0.1412169492    6.2482899518    0.8628490323
H       -2.4214292201    5.2870467759    1.1772027029
H        1.6484751342    4.8516639664   -0.1584927108
H       -2.8934846046    2.9468973152    0.4756052496
H        1.1674303936    2.5485488557   -0.8971175889
H       -0.5399053345   -0.6991355294   -0.9086507570
H        0.5446010708    0.4942626882   -1.6425694561
H        0.4378299126    0.3497923123    0.1366060888
H       -2.8857786023    2.5151546858   -3.7898029804
H       -2.4891024081    3.5201903371   -2.3574160511
H       -1.1748909894    2.7201107414   -3.2917260084
23   
torsion grid (45,)
C       -0.4414187931    5.1877691428    0.5709185007
C       -1.6945478378    4.5880323804    0.7421106893
C        0.5868568441    4.4633284759   -0.0372369323
C       -1.9206784490    3.2782806733    0.3167318308
C        0.3652554474    3.1580629375   -0.4870441957
C       -0.8924035488    2.5583135346   -0.3156859872
C        0.0064806091    0.3202738641   -0.9267042066
C       -1.9958390910    2.3678561812   -3.1690831702
N       -1.1485034380    1.2190627303   -0.7611705314
O       -3.6479548007    1.3888824374   -1.3668335503
O       -2.1350017032   -0.2397870351   -2.6077798339
S       -2.3571792286    1.0604917834   -1.9718480989
H       -0.2668960360    6.2033830202    0.9152559082
H       -2.4990951891    5.1356412834    1.2258191420
H        1.5668651357    4.9139943856   -0.1708400012
H       -2.8860178679    2.8056990539    0.4586957667
H        1.1731653403    2.6169153502   -0.9678248325
H       -0.3555737184   -0.6966788249   -1.0623007093
H        0.6487679608    0.5784905488   -1.7792131469
H        0.5926192335    0.3715181465   -0.0068002805
H       -2.7424252774    2.2657922874   -3.9584902409
H       -2.0853899658    3.3347973024   -2.6760120067
H       -0.9922570699    2.2158481219   -3.5695401180
23   
torsion grid (60,)
C       -0.4564465842    5.1947464887    0.6942444327
C       -1.6730914419    4.5483080530    0.9409453361
C        0.5321606670    4.5394815725   -0.0446404718
C       -1.9029524735    3.2577530735    0.4616874331
C        0.3037503421    3.2545565636   -0.5459610966
C       -0.9163875040    2.6070652283   -0.2960191913
C       -0.0065396433    0.3864566879   -0.9710407447
C       -1.8334097897    2.1542537322   -3.3390112716
N       -1.1622794277    1.2781309986   -0.7828161853
O       -3.6067180447    1.7288838609   -1.4285193323
O       -2.3647243462   -0.2760981366   -2.3954239827
S       -2.3887330901    1.1222312268   -1.9618509085
H       -0.2786361807    6.1947576813    1.0803253219
H       -2.4449286821    5.0445278140    1.5232332250
H        1.4835475032    5.0280426429   -0.2383243902
H       -2.8398202231    2.7498286132    0.6571203644
H        1.0785187147    2.7621017849   -1.1249587622
H       -0.3684847864   -0.6306602851   -1.1095286389
H        0.6242741544    0.6565717164   -1.8292745478
H        0.5955644688    0.4327786446   -0.0614537468
H       -2.5955040035    2.0746019861   -4.1160625573
H       -1.7455974400    3.1833741711   -2.9900413644
H       -0.8782469716    1.7725220959   -3.7029076878
23   
torsion grid (75,)
C       -0.4647978245    5.1881126946    0.8255666649
C       -1.6572479209    4.5078803680    1.0986661468
C        0.4887130521    4.5983931195   -0.0086847241
C       -1.8981086907    3.2465940718    0.5519725978
C        0.2468572076    3.3439621166   -0.5766004080
C       -0.9477452508    2.6622163017   -0.2982229368
C       -0.0568623661    0.4424211866   -1.0267702482
C       -1.7905884900    1.9257662324   -3.4997409971
N       -1.1919535828    1.3591418045   -0.8479132402
O       -3.5630931398    2.0353652515   -1.5341117483
O       -2.6148800064   -0.2348889219   -2.2125890639
S       -2.4494763008    1.2011017332   -1.9796017915
H       -0.2784978972    6.1647893762    1.2639948119
H       -2.4010196405    4.9551693228    1.7526551951
H        1.4203899126    5.1148073634   -0.2246174708
H       -2.8158597031    2.7125605446    0.7675416657
H        0.9916227388    2.8983230249   -1.2292908035
H       -0.4422161747   -0.5632069017   -1.1910086371
H        0.5997250850    0.7152298714   -1.8645729090
H        0.5284464311    0.4532819340   -0.1052296160
H       -2.5768490339    1.8534302048   -4.2532064055
H       -1.5417059046    2.9699997682   -3.3050888630
H       -0.9143644417    1.3556421150   -3.8111332370
23   
torsion grid (90,)
C       -0.4409073890    5.1720553951    0.9831640614
C       -1.6390150905    4.4844777846    1.2082444984
C        0.5084272463    4.6351495420    0.1091860962
C       -1.8894072640    3.2660112759    0.5754005993
C        0.2556655834    3.4266725342   -0.5462469976
C       -0.9436580631    2.7363389280   -0.3144033597
C       -0.0747678752    0.5253593117   -1.1130623529
C       -1.8210919967    1.7348313499   -3.6326408008
N       -1.1811177995    1.4759283275   -0.9514096880
O       -3.4984059018    2.2892219700   -1.6468366777
O       -2.8017209963   -0.1328853985   -2.0569285238
S       -2.4894391317    1.2973118168   -2.0102440407
H       -0.2473201897    6.1142949470    1.4886553609
H       -2.3795516293    4.8911169514    1.8918049571
H        1.4436029199    5.1588650702   -0.0711393847
H       -2.8110325193    2.7261713591    0.7573418895
H        0.9936595778    3.0210694234   -1.2324599707
H       -0.4870037832   -0.4648270908   -1.3094971837
H        0.6150711870    0.7970088765   -1.9237616373
H        0.4832728140    0.4920835458   -0.1751094275
H       -2.6331846276    1.6199988414   -4.3528318062
H       -1.4801876631    2.7709251505   -3.6003232011
H       -1.0059267614    1.0513151778   -3.8725385037
23   
torsion grid (105,)
C       -0.4329571406    5.0977705031    1.0826457589
C       -1.3734725842    4.1465138684    1.4957440959
C        0.3245561705    4.8753400141   -0.0713595642
C       -1.5565203594    2.9737999440    0.7606750004
C        0.1410392808    3.7026057476   -0.8110096670
C       -0.7966078658    2.7525272039   -0.3947912022
C       -0.3639233893    0.3252082955   -0.5369063948
C       -1.8358508344    1.6658608172   -3.7252974295
N       -0.9263689271    1.5384078395   -1.1633139912
O       -3.3243038387    2.3881335901   -1.6611817670
O       -2.7470097112   -0.0827816284   -1.9641421629
S       -2.3788546266    1.3358755125   -2.0394736585
H       -0.2944712258    6.0100468504    1.6569698983
H       -1.9702400931    4.3227822479    2.3866546559
H        1.0546108488    5.6120214919   -0.3960726011
H       -2.2991683068    2.2423923087    1.0650082858
H        0.7223644483    3.5096911553   -1.7086917406
H       -0.4084338636   -0.5078716971   -1.2383013965
H        0.6806353971    0.5385257801   -0.2981875400
H       -0.8931662149    0.0421273856    0.3802474792
H       -2.7094845217    1.5568054635   -4.3708406194
H       -1.4502519702    2.6850598803   -3.7672305799
H       -1.0661675596    0.9391090068   -3.9855381077
23   
torsion grid (120,)
C       -0.3042158974    5.0869950365    1.2374098116
C       -0.7669424138    3.9153996750    1.8415651406
C       -0.1161185201    5.1189448358   -0.1492994064
C       -1.0506785692    2.7855702746    1.0682899734
C       -0.3756524696    3.9877495142   -0.9223569463
C       -0.8499023302    2.8151209660   -0.3181399960
C       -0.8799253032    0.3261261178   -0.5107324428
C       -1.4633464794    1.4186227121   -3.8134059328
N       -1.0857147335    1.6497828491   -1.1216516568
O       -2.8834125702    3.0698500408   -2.3091399703
O       -3.2292340575    0.5513705981   -2.0502118602
S       -2.3542829293    1.7076882769   -2.2728328249
H       -0.0916502837    5.9663867109    1.8391917164
H       -0.9214891529    3.8800768008    2.9167962660
H        0.2444775925    6.0244804045   -0.6299534583
H       -1.4317718689    1.8888360266    1.5463756801
H       -0.2195869289    4.0122854858   -1.9960141188
H       -0.8009396559   -0.4303084525   -1.2940606233
H        0.0646833154    0.3580627309    0.0356996291
H       -1.6909034778    0.0308408219    0.1625673982
H       -2.2117343435    1.3683441015   -4.6065426677
H       -0.7786066160    2.2507643179   -3.9757834759
H       -0.9241809241    0.4735280796   -3.7386636753
23   
torsion grid (135,)
C       -0.3728308456    5.0799974369    1.3127944450
C       -0.8986908456    3.9003383099    1.8468444365
C       -0.0617372157    5.1447170951   -0.0503841650
C       -1.1204470529    2.7915172209    1.0246509544
C       -0.2639559656    4.0347095299   -0.8708217297
C       -0.7959062931    2.8547188359   -0.3363528193
C       -0.7364867775    0.3851263208   -0.6192760986
C       -1.6146843098    1.2302731935   -3.8033138913
N       -0.9707229059    1.7176519635   -1.2036784064
O       -2.7341626540    3.1718535215   -2.3900303357
O       -3.3104422295    0.7501699612   -1.8277015926
S       -2.3407822951    1.7712447389   -2.2444341433
H       -0.2071175322    5.9425754733    1.9526434206
H       -1.1493064050    3.8436471490    2.9028524830
H        0.3466790843    6.0584447861   -0.4738510418
H       -1.5504349050    1.8869292547    1.4432299024
H       -0.0208032228    4.0749112962   -1.9277496694
H       -0.6344703433   -0.3524005327   -1.4189588469
H        0.2064050735    0.4274614353   -0.0710005908
H       -1.5411233002    0.0555265053    0.0454992931
H       -2.4324883367    1.1803461909   -4.5244119496
H       -0.8705953956    1.9664007807   -4.1061233479
H       -1.1671449615    0.2446405546   -3.6729279377
23   
torsion grid (150,)
C       -0.4103473076    5.0817968379    1.3690376989
C       -0.9942231778    3.8989559222    1.8321246459
C        0.0028262257    5.1760712017    0.0351899328
C       -1.1685835348    2.8138813236    0.9681001887
C       -0.1564489224    4.0906652506   -0.8275124666
C       -0.7403551937    2.9071241247   -0.3619823210
C       -0.6342180534    0.4605324997   -0.7107754921
C       -1.7634717703    1.0455438788   -3.7486663688
N       -0.8694094699    1.8002871703   -1.2840584750
O       -2.5447772612    3.2803953108   -2.5529513110
O       -3.3617842678    1.0481625709   -1.6346019485
S       -2.3061185704    1.8718135587   -2.2406031640
H       -0.2802412790    5.9252402157    2.0419157315
H       -1.3256890679    3.8219466633    2.8642667004
H        0.4537293920    6.0939004530   -0.3325834327
H       -1.6444792977    1.9072692930    1.3284076427
H        0.1579934690    4.1493988361   -1.8644235633
H       -0.4958909834   -0.2639235432   -1.5167638892
H        0.2930066080    0.5083900420   -0.1372199009
H       -1.4500946074    0.1129372530   -0.0687404019
H       -2.6171704573    1.0788865382   -4.4278158405
H       -0.9193281321    1.5995862019   -4.1581576062
H       -1.4996695406    0.0106404164   -3.5330991526
23   
torsion grid (165,)
C       -0.4381455540    5.0665753629    1.4424852736
C       -1.0364984826    3.8654485652    1.8358332425
C        0.0323065186    5.2134514579    0.1327792191
C       -1.1662334894    2.8122103114    0.9261471481
C       -0.0843564387    4.1604735875   -0.7764608995
C       -0.6785994662    2.9579019789   -0.3787056036
C       -0.5160490208    0.5372886183   -0.8177670400
C       -1.8871534086    0.8881086743   -3.6430757248
N       -0.7658169961    1.8906443317   -1.3561884411
O       -2.3378159443    3.3566561984   -2.7580744903
O       -3.3508109933    1.3944332802   -1.4941254917
S       -2.2406483793    1.9864483636   -2.2556075492
H       -0.3426335748    5.8847983774    2.1513956998
H       -1.4143507160    3.7502327789    2.8482774132
H        0.4923840204    6.1467888996   -0.1805278030
H       -1.6567742326    1.8925775553    1.2285565081
H        0.2698618335    4.2570866308   -1.7974234841
H       -0.3135255714   -0.1522337016   -1.6401912855
H        0.3814806163    0.5935620198   -0.1998085529
H       -1.3459484709    0.1446210204   -0.2195215158
H       -2.7076103550    1.0452624682   -4.3455234014
H       -0.9379461452    1.1823349299   -4.0910393274
H       -1.8791372869   -0.1477700445   -3.3074598007
23   
torsion grid (180,)
C       -0.4908543839    5.0353420619    1.5003480961
C       -1.0629437312    3.8048654756    1.8389989823
C       -0.0017481123    5.2427549303    0.2060479694
C       -1.1483490036    2.7823420051    0.8904067814
C       -0.0724651106    4.2202735631   -0.7423871907
C       -0.6397098297    2.9879005102   -0.3984604194
C       -0.4484150086    0.5917728142   -0.9149366252
C       -1.9958192701    0.7522821607   -3.5182910735
N       -0.6814126679    1.9609553603   -1.4234297747
O       -2.0999240099    3.3772905388   -3.0351570383
O       -3.3142423745    1.7814875797   -1.4747727006
S       -2.1583438743    2.0987573519   -2.3269269824
H       -0.4306520374    5.8292991404    2.2400701289
H       -1.4565550351    3.6434091558    2.8390496174
H        0.4381454772    6.1987652140   -0.0650000548
H       -1.6228525492    1.8419236091    1.1502114087
H        0.2977584491    4.3616645802   -1.7523179090
H       -0.1769543529   -0.0655274717   -1.7431594800
H        0.4034754244    0.6398191773   -0.2349503001
H       -1.3063448322    0.1658172162   -0.3802129890
H       -2.7969197848    0.9243882810   -4.2394864637
H       -1.0246175993    0.8192458016   -4.0098866839
H       -2.1419935668   -0.2038819882   -3.0190816653
