45   
torsion grid (-165,)
C       -2.8448043754   -1.0817348670   -0.8985714304
C       -1.8471432763   -0.0765960172   -0.6045788745
C       -0.7123856433   -0.6307600582   -0.0680230752
C       -4.1673300721   -0.8758718165   -1.4611261982
C       -2.4301800552   -2.3628470044   -0.5828976024
C       -4.5094676512   -3.3446659108   -1.2935373457
C       -7.2922890091   -1.8417464722   -1.0625461135
C       -7.9017808642   -0.7340219544   -0.6047006735
C       -2.0688122862    1.3893404539   -0.8655261044
C       -8.6139635482   -0.7484004037    0.7275728149
C       -7.8665627692    0.6156295615   -1.2770904032
C       -0.5312858878   -5.5962812697   -3.1574139690
C        0.5662259488    0.0178028599    0.3695943513
C       -6.2911476542   -1.9302295843   -2.1857235683
C       -2.8020615854   -4.8231323383   -0.3639711451
C       -2.2536498335   -5.6213303310   -1.5368005764
N       -4.9139496077   -2.0627941793   -1.6481655633
N       -3.2290334936   -3.4711132406   -0.7482203333
O       -4.6415291010    0.2146609431   -1.7778112598
O       -5.2297838107   -4.3300435283   -1.4431662350
O        1.7074960296   -0.4114138359   -0.3875069383
O       -1.0673273989   -4.9912169162   -1.9904773889
S       -0.8179886664   -2.3928057517    0.0525797950
H       -7.3885523498   -2.7619649535   -0.4872744202
H       -2.9126947967    1.7619731260   -0.2781756951
H       -1.1849313788    1.9818557159   -0.6216346333
H       -2.3299162278    1.5569565856   -1.9135431415
H       -8.0884559260   -0.0900340528    1.4312473001
H       -9.6398422171   -0.3663884738    0.6461883556
H       -8.6525683710   -1.7510569593    1.1622322884
H       -8.8876439043    0.9399004242   -1.5168097097
H       -7.4450720730    1.3667812657   -0.5984662372
H       -7.2707552907    0.6316211511   -2.1885047734
H        0.3681471916   -5.0368380527   -3.4226356718
H       -1.2448838661   -5.5532493704   -3.9932977458
H       -0.2618195812   -6.6474921068   -2.9764262111
H        0.4517933879    1.1071733391    0.3236172307
H        0.8062951319   -0.2414063945    1.4047568186
H       -6.2907678201   -1.0458871574   -2.8174743352
H       -6.4699411004   -2.8125934312   -2.8013404591
H       -3.6689550794   -5.3403525292    0.0489724357
H       -2.0439286126   -4.7305830879    0.4171125772
H       -3.0053427280   -5.6696662794   -2.3366530847
H       -2.0462703342   -6.6502031364   -1.2000031803
H        1.4854606322   -0.3171095427   -1.3280603773
45   
torsion grid (-150,)
C       -2.9309136845   -1.1401184490   -0.8819856068
C       -1.9559701119   -0.1232173015   -0.5541327861
C       -0.8220838990   -0.6675008879   -0.0058479945
C       -4.2468214558   -0.9470954936   -1.4639033001
C       -2.5006509695   -2.4192924151   -0.5792653769
C       -4.5494072463   -3.4249883262   -1.3443522851
C       -7.3296468637   -1.9005564143   -1.1261658643
C       -7.8734773134   -0.7660396822   -0.6482646731
C       -2.1969977415    1.3428991831   -0.7963894464
C       -8.2849477318   -0.6582942721    0.8009655455
C       -7.9197750779    0.5387387869   -1.4044344866
C       -0.4835766975   -5.5919867580   -3.1417701727
C        0.4372526070   -0.0047128436    0.4651571527
C       -6.3334090438   -2.0220741415   -2.2529789578
C       -2.8369641994   -4.8878600033   -0.3987798432
C       -2.2473028263   -5.6621152952   -1.5675737481
N       -4.9664129752   -2.1441786381   -1.6907463219
N       -3.2772697130   -3.5381560948   -0.7766422684
O       -4.7383966053    0.1400222960   -1.7642282640
O       -5.2504050978   -4.4195911126   -1.5200696827
O        1.5999466271   -0.4077478617   -0.2733688670
O       -1.0598870981   -5.0082037765   -1.9831678906
S       -0.8998557882   -2.4327771719    0.0849428045
H       -7.3540432636   -2.7844171552   -0.4877976290
H       -3.0534704599    1.6941615827   -0.2140359986
H       -1.3253675489    1.9450854589   -0.5328167100
H       -2.4478499232    1.5220840686   -1.8449620299
H       -7.5564472606   -0.0214645757    1.3189088063
H       -9.2674887214   -0.1863700159    0.9295487053
H       -8.2989427739   -1.6316814958    1.2997076889
H       -8.9477607270    0.9234053988   -1.4165968882
H       -7.2961934263    1.2930965612   -0.9110907092
H       -7.5764359111    0.4510126769   -2.4352836958
H        0.4134949969   -5.0156317707   -3.3770675178
H       -1.1754356737   -5.5510436487   -3.9958222175
H       -0.2022515021   -6.6407335336   -2.9646459792
H        0.3069805053    1.0832864275    0.4294137094
H        0.6603253505   -0.2725125813    1.5019434329
H       -6.3241306710   -1.1471663874   -2.8985909412
H       -6.5027325352   -2.9150801666   -2.8552547196
H       -3.7047635798   -5.4243004500   -0.0132544049
H       -2.0993009976   -4.7927205747    0.4013923472
H       -2.9779545145   -5.7112556314   -2.3867027728
H       -2.0324974179   -6.6921038061   -1.2389816167
H        1.3960050905   -0.3049234361   -1.2171271872
45   
torsion grid (-135,)
C       -2.9869345332   -1.1746478123   -0.8750974293
C       -2.0259599418   -0.1533618276   -0.5206779053
C       -0.8953396860   -0.6954176358    0.0363910805
C       -4.2963011114   -0.9848320013   -1.4720005912
C       -2.5495471596   -2.4539379939   -0.5831862576
C       -4.5780865957   -3.4674201464   -1.3926456363
C       -7.3522961269   -1.9263565788   -1.1733124239
C       -7.8220187939   -0.7752255044   -0.6518181241
C       -2.2760689185    1.3136553124   -0.7479415022
C       -7.9168214870   -0.5734499203    0.8415173673
C       -7.9575650377    0.4975218152   -1.4524357865
C       -0.4649954537   -5.5716727948   -3.1558350354
C        0.3511492127   -0.0273807530    0.5336003493
C       -6.3611759548   -2.0661135916   -2.3058912931
C       -2.8670666812   -4.9272209159   -0.4405228584
C       -2.2519973997   -5.6798204832   -1.6103379371
N       -5.0015549962   -2.1848401941   -1.7278444993
N       -3.3137298970   -3.5763256898   -0.8068611875
O       -4.7942993908    0.1024029364   -1.7609966925
O       -5.2665089335   -4.4658801154   -1.5922555982
O        1.5285324653   -0.4154640419   -0.1892828219
O       -1.0649613514   -5.0087916869   -1.9988398010
S       -0.9583998558   -2.4624097179    0.1036587894
H       -7.3094983980   -2.7864327252   -0.5012931037
H       -3.1412593694    1.6515406237   -0.1704984459
H       -1.4120449048    1.9193446267   -0.4678682314
H       -2.5171932415    1.5035398306   -1.7969028708
H       -7.0409502188    0.0150031015    1.1425243954
H       -8.8060114413   -0.0094070041    1.1507161925
H       -7.8936872093   -1.5189957599    1.3917044950
H       -8.9705728680    0.9031549939   -1.3309461834
H       -7.2543971014    1.2597150948   -1.0986584195
H       -7.7822957550    0.3474902748   -2.5189410035
H        0.4295951983   -4.9832947411   -3.3698468768
H       -1.1441128767   -5.5266081318   -4.0198358091
H       -0.1756668504   -6.6197202046   -2.9877997560
H        0.2132833057    1.0599232529    0.5052868464
H        0.5592940406   -0.3027579115    1.5715057897
H       -6.3466720003   -1.1951254624   -2.9578078999
H       -6.5253461940   -2.9636573194   -2.9020844865
H       -3.7359473383   -5.4766023541   -0.0762857113
H       -2.1430967577   -4.8364167982    0.3725584458
H       -2.9695380971   -5.7249649748   -2.4412035168
H       -2.0320482812   -6.7119981556   -1.2922471129
H        1.3400854367   -0.3040021221   -1.1352864945
45   
torsion grid (-120,)
C       -3.0449264388   -1.1923489383   -0.8601374762
C       -2.0984570170   -0.1638064412   -0.4876931518
C       -0.9718116958   -0.6971247469    0.0855177651
C       -4.3457942630   -1.0129572618   -1.4774609550
C       -2.6008314807   -2.4686482041   -0.5651945610
C       -4.6079581077   -3.4989204309   -1.4067865188
C       -7.3797994762   -1.9313149661   -1.2037024829
C       -7.7810195885   -0.7606778139   -0.6586435681
C       -2.3579204095    1.3016560191   -0.7144022008
C       -7.5627621790   -0.4541457278    0.8034941928
C       -8.0112581634    0.4656607931   -1.5116158027
C       -0.4539950163   -5.5452193454   -3.1302673814
C        0.2617018581   -0.0207810175    0.6037047965
C       -6.3914180169   -2.1092011390   -2.3367342433
C       -2.8943402855   -4.9455413924   -0.4390507713
C       -2.2565774790   -5.6843236984   -1.6055160219
N       -5.0384936977   -2.2181010824   -1.7436697803
N       -3.3509338177   -3.5973065589   -0.8035410211
O       -4.8479778342    0.0706962997   -1.7731155937
O       -5.2834258050   -4.5031622053   -1.6188503116
O        1.4525435468   -0.3956782842   -0.1037748832
O       -1.0738532387   -4.9962779856   -1.9770018516
S       -1.0207759039   -2.4647680548    0.1465943016
H       -7.2736139471   -2.7511152491   -0.4859975054
H       -3.2341168652    1.6306426165   -0.1484163067
H       -1.5033880501    1.9139093040   -0.4199489875
H       -2.5855003416    1.4926899815   -1.7661377578
H       -6.6042109166    0.0763496599    0.8584444887
H       -8.3267292144    0.2013529182    1.2401147275
H       -7.4845956538   -1.3583037007    1.4155858898
H       -8.9963542897    0.8943193538   -1.2832982946
H       -7.2612699430    1.2377204244   -1.3070447530
H       -7.9890504666    0.2390244864   -2.5797950597
H        0.4351233396   -4.9441533592   -3.3314124468
H       -1.1241996671   -5.5043621770   -4.0013919223
H       -0.1528898338   -6.5902749964   -2.9644465646
H        0.1149811138    1.0654184551    0.5783258702
H        0.4571885706   -0.2991254851    1.6432633211
H       -6.3711115024   -1.2540746372   -3.0102609254
H       -6.5541010558   -3.0209845589   -2.9104534247
H       -3.7615381172   -5.5063517452   -0.0885653276
H       -2.1814985383   -4.8514232654    0.3834079077
H       -2.9639555126   -5.7342292301   -2.4447650999
H       -2.0272892389   -6.7152499204   -1.2900567845
H        1.2776620696   -0.2796064395   -1.0518276808
45   
torsion grid (-105,)
C       -3.0811795120   -1.2079257703   -0.8650171583
C       -2.1436018574   -0.1767170270   -0.4774547257
C       -1.0255655987   -0.7070225238    0.1148025589
C       -4.3722792931   -1.0316537338   -1.5024241901
C       -2.6390146828   -2.4831306254   -0.5619445157
C       -4.6304117828   -3.5183972498   -1.4334679612
C       -7.4066710465   -1.9621564308   -1.2489232561
C       -7.7223419073   -0.8104253122   -0.6036184114
C       -2.4031944458    1.2880290762   -0.7086202600
C       -7.2294685136   -0.5097574650    0.7919209583
C       -8.0356633044    0.4352656417   -1.4050421740
C       -0.4506030761   -5.5362861531   -3.1139832736
C        0.1969030366   -0.0279584638    0.6553964746
C       -6.4077211752   -2.1315637533   -2.3786384882
C       -2.9241362031   -4.9616892972   -0.4477166539
C       -2.2688234862   -5.6922777838   -1.6096445276
N       -5.0617610809   -2.2377015347   -1.7723015080
N       -3.3819748312   -3.6137168265   -0.8121179576
O       -4.8714504139    0.0509857014   -1.8079349000
O       -5.2982877765   -4.5243429520   -1.6586450548
O        1.4026724886   -0.4102163394   -0.0218410563
O       -1.0859480669   -4.9960309791   -1.9649688046
S       -1.0712056347   -2.4748758150    0.1761947320
H       -7.2560555044   -2.7974646324   -0.5529220942
H       -3.2871675654    1.6159363574   -0.1540756083
H       -1.5539416505    1.9022870157   -0.4033330758
H       -2.6175865691    1.4779379453   -1.7632722779
H       -6.2580923794   -0.0222032634    0.6487072927
H       -7.8683312798    0.1806805828    1.3566092992
H       -7.0716933771   -1.4128875603    1.3907755898
H       -9.0079864398    0.8392654351   -1.0907111234
H       -7.2874901150    1.2193593850   -1.2445758480
H       -8.0994732691    0.2262841133   -2.4760059400
H        0.4373206399   -4.9294678609   -3.3027243392
H       -1.1115762957   -5.4950190599   -3.9920976783
H       -0.1455813188   -6.5804177920   -2.9496532323
H        0.0523005695    1.0581847347    0.6182205501
H        0.3683757050   -0.2984235660    1.7012712419
H       -6.3828725828   -1.2748376842   -3.0509842114
H       -6.5645239690   -3.0422107863   -2.9548780958
H       -3.7931868059   -5.5277145402   -0.1104975171
H       -2.2220516141   -4.8680981760    0.3839762957
H       -2.9662727058   -5.7429037461   -2.4570977176
H       -2.0373443602   -6.7231017679   -1.2955226122
H        1.2508861120   -0.2984351876   -0.9743853219
45   
torsion grid (-90,)
C       -3.1162359442   -1.1848841200   -0.9274432788
C       -2.1859805392   -0.1519201890   -0.5268369849
C       -1.0891072559   -0.6776030123    0.1074635630
C       -4.3877204584   -1.0127527572   -1.6037371846
C       -2.6894919984   -2.4571391301   -0.5915768063
C       -4.6597978748   -3.4978860413   -1.5044960244
C       -7.4436068334   -1.9519717121   -1.3959389077
C       -7.6799532154   -0.8742905756   -0.5961911531
C       -2.4326137855    1.3102887931   -0.7864329884
C       -6.9845629601   -0.6726642378    0.7301890946
C       -8.0456746219    0.4409481058   -1.2595824188
C       -0.4421392179   -5.5314916516   -3.0572388182
C        0.1189607118    0.0035660630    0.6772633028
C       -6.4111660991   -2.1132082221   -2.5014145971
C       -2.9828836018   -4.9337535627   -0.4601780057
C       -2.2980843632   -5.6745709878   -1.5984342192
N       -5.0813421805   -2.2191427761   -1.8636557261
N       -3.4293452175   -3.5883537345   -0.8478283738
O       -4.8715993208    0.0665555673   -1.9435428833
O       -5.3216437898   -4.5051338569   -1.7402803024
O        1.3446836205   -0.4022394038    0.0518920370
O       -1.1061367114   -4.9816986937   -1.9290464720
S       -1.1451192799   -2.4441558981    0.1943069049
H       -7.2892521362   -2.8423354493   -0.7651191082
H       -3.3299810916    1.6500031854   -0.2611595735
H       -1.5895340698    1.9255528875   -0.4665211816
H       -2.6172166917    1.4856969181   -1.8491375217
H       -6.0371058906   -0.1892600579    0.4683360277
H       -7.5165457157   -0.0109355121    1.4247740359
H       -6.7576372916   -1.6132210921    1.2437912667
H       -9.0103500833    0.7935230968   -0.8678230868
H       -7.3068292871    1.2254754982   -1.0613353135
H       -8.1576550910    0.3254110657   -2.3414003653
H        0.4506534880   -4.9265842161   -3.2282596790
H       -1.0806205674   -5.4970078606   -3.9521072376
H       -0.1420414489   -6.5743675542   -2.8767935993
H       -0.0152091326    1.0897297037    0.6123756811
H        0.2507654278   -0.2461390115    1.7340103527
H       -6.3645505123   -1.2613294791   -3.1798438566
H       -6.5629104476   -3.0261735461   -3.0737232531
H       -3.8611885858   -5.4959736102   -0.1411269842
H       -2.3028320841   -4.8338172377    0.3888911379
H       -2.9734328049   -5.7323425813   -2.4631306469
H       -2.0753904611   -6.7027027478   -1.2695102215
H        1.2292565709   -0.3066257177   -0.9074923098
45   
torsion grid (90,)
C       -2.7339040872   -0.9936733744   -0.4836149811
C       -1.6590442570   -0.0334167583   -0.3655340240
C       -0.4894058810   -0.6296959509    0.0332352761
C       -4.1099604981   -0.7386774253   -0.8687520541
C       -2.3423585573   -2.2846400528   -0.1779406251
C       -4.5419478094   -3.1819463404   -0.5670274263
C       -7.2667933948   -1.3441399331   -0.1030884350
C       -8.4009268964   -0.5940720943   -0.1939307636
C       -1.8453123018    1.4331661320   -0.6492602522
C       -9.7661166102   -1.1833965816   -0.4744363526
C       -8.2558363311    0.7983250757   -0.7930207825
C       -0.9535193664   -5.6964082582   -2.8416277421
C        0.8663249747   -0.0353997628    0.2695919809
C       -6.3512510890   -1.6852887695   -1.2584111800
C       -2.7968625829   -4.7136449989    0.1897841731
C       -2.4454604317   -5.5790934940   -1.0103919750
N       -4.9266521731   -1.8922999619   -0.9138080494
N       -3.2075343442   -3.3556688332   -0.1918427974
O       -4.5808013194    0.3622031897   -1.1537717118
O       -5.3204126346   -4.1345950447   -0.5837086508
O        1.8727446492   -0.5496043525   -0.6151928481
O       -1.3004985905   -5.0273335257   -1.6387357960
S       -0.6617421767   -2.3789673537    0.2349974048
H       -7.4649157411   -2.2894895903    0.4244058530
H       -2.5798627681    1.8673993005    0.0347292722
H       -0.9088547530    1.9860350402   -0.5530813834
H       -2.2424613942    1.5813511859   -1.6567332361
H      -10.6022238782   -0.5293282529   -0.1993340104
H       -9.7921768505   -1.3202118475   -1.5620860561
H       -9.9193047468   -2.1643952336   -0.0112126521
H       -8.7992978342    0.9129088909   -1.7410445186
H       -8.6891918945    1.5323848762   -0.0989784192
H       -7.2061116412    1.0670377378   -0.9382954795
H       -0.0714930538   -5.1937024624   -3.2436710725
H       -1.7688369915   -5.6424411528   -3.5779927939
H       -0.7131130833   -6.7540906060   -2.6574243137
H        0.7989652059    1.0563339290    0.1953056626
H        1.2316525682   -0.2720700093    1.2730199016
H       -6.3747494067   -0.9217373007   -2.0363812368
H       -6.7175524233   -2.6320482639   -1.6533031706
H       -3.6248529033   -5.1705550380    0.7330392421
H       -1.9389437003   -4.6328703285    0.8612061472
H       -3.2969613613   -5.6150226605   -1.7038329296
H       -2.2446210268   -6.6054656932   -0.6622453511
H        1.5306427096   -0.4740440475   -1.5207820577
45   
torsion grid (105,)
C       -2.7380044044   -1.0120961209   -0.5209644730
C       -1.6700424414   -0.0464803864   -0.3852618822
C       -0.5035471181   -0.6389092825    0.0280978941
C       -4.1096237562   -0.7620400328   -0.9252426253
C       -2.3441818222   -2.3020850792   -0.2137176054
C       -4.5349009840   -3.2057363020   -0.6341304953
C       -7.2821286183   -1.4247482919   -0.2036384887
C       -8.3521899588   -0.5912629914   -0.2664946367
C       -1.8591490871    1.4202235367   -0.6667545092
C       -9.7753643428   -1.0971461019   -0.3293708346
C       -8.1801280754    0.7721573877   -0.9119765709
C       -0.9168812906   -5.6981978635   -2.8787673412
C        0.8447698125   -0.0368043688    0.2857905748
C       -6.3444646670   -1.7197317928   -1.3495404413
C       -2.7937350238   -4.7343953455    0.1380250238
C       -2.4271644465   -5.5939930887   -1.0618626628
N       -4.9215475563   -1.9176907280   -0.9832035585
N       -3.2044894471   -3.3763601678   -0.2429965461
O       -4.5790684513    0.3384917003   -1.2155127950
O       -5.3095372519   -4.1612341342   -0.6617979123
O        1.8673564332   -0.5426828619   -0.5851019956
O       -1.2775203220   -5.0360480583   -1.6760600079
S       -0.6691399515   -2.3898192841    0.2224978536
H       -7.5011428536   -2.3588641649    0.3281976692
H       -2.6052265755    1.8488186340    0.0082789000
H       -0.9266819164    1.9770137340   -0.5554561926
H       -2.2427657818    1.5700066509   -1.6792024682
H      -10.5203776938   -0.3837229408    0.0441425018
H       -9.9808097542   -1.2617769062   -1.3939464447
H       -9.9118273415   -2.0523018592    0.1884917783
H       -8.7415213497    0.8609614123   -1.8524914434
H       -8.5830082062    1.5424997476   -0.2400624593
H       -7.1290071314    1.0080733724   -1.0929465628
H       -0.0322737057   -5.1911859891   -3.2695855084
H       -1.7250154897   -5.6426968449   -3.6228954035
H       -0.6754571639   -6.7561615766   -2.6975038123
H        0.7717632187    1.0546992204    0.2130695827
H        1.1965811858   -0.2736893121    1.2939825728
H       -6.3632147231   -0.9336946564   -2.1032284262
H       -6.6863505500   -2.6589918689   -1.7832136073
H       -3.6259380618   -5.1959113581    0.6708766705
H       -1.9430508640   -4.6537186786    0.8185689917
H       -3.2712873657   -5.6297777457   -1.7642590773
H       -2.2266443492   -6.6211422435   -0.7158391997
H        1.5381095992   -0.4675806426   -1.4954821728
45   
torsion grid (120,)
C       -2.7720837099   -1.0005286299   -0.5127124820
C       -1.7124776711   -0.0279200806   -0.3608976100
C       -0.5510696594   -0.6099386565    0.0806442405
C       -4.1367360266   -0.7617307386   -0.9464745825
C       -2.3768540510   -2.2859055530   -0.1886531417
C       -4.5529235960   -3.2058022681   -0.6476603237
C       -7.3268732287   -1.5100319920   -0.2841903245
C       -8.3278029215   -0.6008736140   -0.2881336481
C       -1.9041361311    1.4357444269   -0.6559554655
C       -9.7770356851   -0.9995112550   -0.1330395698
C       -8.1419978690    0.7560321355   -0.9360887441
C       -0.8844051479   -5.6865771125   -2.8099984376
C        0.7883031254    0.0008136929    0.3636095338
C       -6.3571752722   -1.7427659280   -1.4155987271
C       -2.8184166690   -4.7186075012    0.1688923530
C       -2.4254924960   -5.5830313775   -1.0191245772
N       -4.9398176730   -1.9227066524   -1.0140427957
N       -3.2298393367   -3.3654199385   -0.2280255032
O       -4.6052528345    0.3352253898   -1.2525654829
O       -5.3220631639   -4.1653930799   -0.6840428863
O        1.8323521519   -0.5058403035   -0.4809296005
O       -1.2692289260   -5.0208247543   -1.6167998351
S       -0.7107750137   -2.3604890896    0.2829348162
H       -7.5468580578   -2.4487264346    0.2329292190
H       -2.6673594893    1.8640329774   -0.0002012483
H       -0.9776589597    1.9988886386   -0.5279407030
H       -2.2663701778    1.5767127586   -1.6775024261
H      -10.3930234741   -0.2405503063    0.3655943201
H      -10.1736334340   -1.1250425221   -1.1478744396
H       -9.8983477868   -1.9515969691    0.3933333979
H       -8.7415354749    0.8550158676   -1.8515560207
H       -8.4966528758    1.5367536883   -0.2500390427
H       -7.0952602949    0.9647908123   -1.1658257813
H        0.0032098414   -5.1756613672   -3.1887383027
H       -1.6804670117   -5.6401099347   -3.5676325418
H       -0.6390926221   -6.7420033612   -2.6194112046
H        0.7115489539    1.0913806663    0.2815920329
H        1.1190252558   -0.2272431519    1.3809523074
H       -6.3709555990   -0.9292350550   -2.1382837091
H       -6.6621188178   -2.6708420232   -1.8991065020
H       -3.6573693653   -5.1817879706    0.6896094005
H       -1.9805100347   -4.6288316036    0.8639877666
H       -3.2571259612   -5.6287567057   -1.7356593134
H       -2.2240618149   -6.6066776355   -0.6633890664
H        1.5228025814   -0.4390230213   -1.3988366027
45   
torsion grid (135,)
C       -2.7359788078   -1.0562156477   -0.6457178812
C       -1.6810807881   -0.0840415827   -0.4616590233
C       -0.5300997262   -0.6690668026    0.0025531809
C       -4.0892081080   -0.8140336913   -1.1122211036
C       -2.3478166944   -2.3440383199   -0.3226221532
C       -4.5123955379   -3.2592602896   -0.8357789466
C       -7.2849791149   -1.6028925662   -0.5073888244
C       -8.2142125928   -0.6281209761   -0.4328696387
C       -1.8666005491    1.3819708814   -0.7490047584
C       -9.6361738079   -0.9280683103   -0.0197569284
C       -8.0246995842    0.7205460197   -1.0909903235
C       -0.8085732974   -5.7199117580   -2.9520660233
C        0.8016976737   -0.0594772484    0.3213252986
C       -6.3013194414   -1.7928660477   -1.6318921606
C       -2.7946625940   -4.7809081676    0.0015998466
C       -2.3806572894   -5.6340355220   -1.1874559239
N       -4.8914148212   -1.9735784582   -1.2012227452
N       -3.1982719977   -3.4239071163   -0.3904824133
O       -4.5479014795    0.2846804765   -1.4273271328
O       -5.2812091200   -4.2178865200   -0.8950906440
O        1.8645730256   -0.5543146930   -0.5065443323
O       -1.2146822038   -5.0654823286   -1.7596463183
S       -0.6931164452   -2.4213842276    0.1869192797
H       -7.5121510214   -2.5334964334    0.0165537981
H       -2.6454838353    1.8044390793   -0.1080164870
H       -0.9438274864    1.9444587389   -0.5941383066
H       -2.2045888246    1.5312659795   -1.7776097959
H      -10.0845249986   -0.1382539922    0.5963409585
H      -10.2356736005   -1.0001845849   -0.9357164089
H       -9.7228759916   -1.8795355703    0.5135609833
H       -8.6842596574    0.8377447869   -1.9617336233
H       -8.3032172419    1.5129960270   -0.3841960633
H       -6.9917250150    0.8946185633   -1.3966719720
H        0.0849700426   -5.2048042390   -3.3106486385
H       -1.5914207019   -5.6670995935   -3.7229364350
H       -0.5655857060   -6.7768496081   -2.7669715587
H        0.7245635934    1.0318489196    0.2504947254
H        1.1109446841   -0.2988813734    1.3428006853
H       -6.3046785822   -0.9547448812   -2.3248774846
H       -6.5832431225   -2.7048154355   -2.1590176042
H       -3.6428869024   -5.2486696551    0.5028580604
H       -1.9692676417   -4.6980690902    0.7122932762
H       -3.1997623998   -5.6733545601   -1.9186430550
H       -2.1847654351   -6.6609486295   -0.8380925076
H        1.5742565939   -0.4779314880   -1.4299723070
45   
torsion grid (150,)
C       -2.7424342227   -1.0944020754   -0.7289822747
C       -1.6983568419   -0.1164152809   -0.5164506640
C       -0.5549822441   -0.6959889884   -0.0270743066
C       -4.0854068614   -0.8572097533   -1.2266094093
C       -2.3538262507   -2.3808611930   -0.4014962671
C       -4.5011161104   -3.3056458899   -0.9684407849
C       -7.2827736348   -1.7144305463   -0.6877529563
C       -8.1476434641   -0.6959025009   -0.5233771947
C       -1.8863946163    1.3493882141   -0.8032076065
C       -9.4861427772   -0.9135488595    0.1424299021
C       -7.9801051273    0.6544241519   -1.1807550421
C       -0.7433223307   -5.7285572942   -3.0211963570
C        0.7654466277   -0.0796361626    0.3243187737
C       -6.2805019136   -1.8518743021   -1.8024161817
C       -2.7939219896   -4.8218389853   -0.1015762687
C       -2.3502834352   -5.6647295893   -1.2873028091
N       -4.8798349099   -2.0207217810   -1.3370488814
N       -3.1967807894   -3.4646358284   -0.4933456111
O       -4.5394041652    0.2410010903   -1.5502783319
O       -5.2631200460   -4.2679192281   -1.0496845017
O        1.8490318963   -0.5609593845   -0.4844743637
O       -1.1770800416   -5.0848581771   -1.8326699563
S       -0.7113267081   -2.4500004748    0.1470242342
H       -7.4899147640   -2.6467814727   -0.1620561204
H       -2.6842770672    1.7642542305   -0.1808925679
H       -0.9717515109    1.9174703123   -0.6228170164
H       -2.1989593178    1.5002597058   -1.8396167731
H       -9.7273865025   -0.1294560420    0.8715582252
H      -10.2675076378   -0.8817444883   -0.6274815662
H       -9.5450717353   -1.8845152266    0.6425199992
H       -8.7053321715    0.7902609599   -1.9944888367
H       -8.1837919224    1.4463343023   -0.4489944494
H       -6.9729043812    0.8116508875   -1.5687454430
H        0.1536288213   -5.2051898203   -3.3586921099
H       -1.5112378263   -5.6756158639   -3.8069272794
H       -0.4969611183   -6.7851077563   -2.8383839539
H        0.6822342837    1.0116208630    0.2598328967
H        1.0546898240   -0.3244698963    1.3503450498
H       -6.2813722127   -0.9896590168   -2.4642741609
H       -6.5270628968   -2.7480386206   -2.3734071737
H       -3.6500277233   -5.2975992451    0.3783347488
H       -1.9844284538   -4.7391778157    0.6271947795
H       -3.1543756049   -5.7050243365   -2.0349101386
H       -2.1544296379   -6.6924268010   -0.9402246134
H        1.5774015864   -0.4804766832   -1.4132217641
45   
torsion grid (165,)
C       -2.7953261028   -1.0731663830   -0.7471411342
C       -1.7570604084   -0.0930908861   -0.5155782608
C       -0.6294445832   -0.6670080040    0.0150064144
C       -4.1227869786   -0.8420564584   -1.2872894040
C       -2.4175839822   -2.3554943039   -0.3919529445
C       -4.5474748307   -3.2871536608   -1.0110990547
C       -7.3275354584   -1.7459224895   -0.8162428287
C       -8.1083750286   -0.6834411410   -0.5526335320
C       -1.9345750930    1.3692887607   -0.8256585927
C       -9.3150427889   -0.8215872580    0.3455697900
C       -7.9450895032    0.6776322189   -1.1863449240
C       -0.7305979661   -5.7267183774   -2.9294020915
C        0.6801553578   -0.0463160654    0.3978380980
C       -6.3021076407   -1.8484518096   -1.9141518281
C       -2.8657493165   -4.7931277022   -0.0795118444
C       -2.3875899371   -5.6470339398   -1.2438040560
N       -4.9163041677   -2.0062001433   -1.4033300527
N       -3.2579588129   -3.4400557529   -0.4954855132
O       -4.5635658683    0.2524399627   -1.6401680146
O       -5.3062510816   -4.2504964872   -1.1062894686
O        1.7871389617   -0.5380136154   -0.3720778417
O       -1.1997612940   -5.0711205197   -1.7609943961
S       -0.7923159878   -2.4185882533    0.2062470622
H       -7.5255614919   -2.6835311454   -0.2988076099
H       -2.7512534297    1.7920649865   -0.2338215898
H       -1.0254722319    1.9388656185   -0.6232417493
H       -2.2141655766    1.5080307259   -1.8731078915
H       -9.2992212429   -0.0872985941    1.1612864420
H      -10.2292816869   -0.6302659323   -0.2310050885
H       -9.3910684332   -1.8217499966    0.7810217193
H       -8.7552762403    0.8722614926   -1.9017270404
H       -8.0174198357    1.4550560170   -0.4157234487
H       -6.9860486953    0.8012021951   -1.6898377366
H        0.1752895650   -5.2056436022   -3.2459172727
H       -1.4751515989   -5.6831966734   -3.7378485081
H       -0.4885008795   -6.7809049544   -2.7282001305
H        0.5993707549    1.0440464724    0.3169241605
H        0.9384973558   -0.2780166696    1.4350967494
H       -6.2935525643   -0.9705593979   -2.5543478472
H       -6.5127110381   -2.7324721593   -2.5180916070
H       -3.7349455116   -5.2650489758    0.3802191649
H       -2.0775542877   -4.7026894582    0.6713640383
H       -3.1698665410   -5.6957218032   -2.0136941972
H       -2.2008018620   -6.6709781388   -0.8809975509
H        1.5435153544   -0.4690321624   -1.3094783422
45   
torsion grid (180,)
C       -2.8203205223   -1.1148721226   -0.8243749988
C       -1.7993603608   -0.1252590523   -0.5586852804
C       -0.6778049443   -0.6904945075   -0.0062712757
C       -4.1370713169   -0.8941897105   -1.3944240547
C       -2.4358207218   -2.3959788858   -0.4722196041
C       -4.5384645931   -3.3467962799   -1.1514514692
C       -7.3204025246   -1.8454666499   -0.9846062767
C       -8.0217141707   -0.7610221072   -0.6115482937
C       -1.9867820042    1.3377352031   -0.8598208354
C       -9.0249937810   -0.8520181978    0.5144044611
C       -7.9015716916    0.6066105423   -1.2389236608
C       -0.6381290233   -5.7298541294   -2.9879956182
C        0.6154675269   -0.0593392776    0.4132532894
C       -6.2898306371   -1.9207732280   -2.0803245602
C       -2.8621213050   -4.8415584915   -0.1917124058
C       -2.3429222247   -5.6801202852   -1.3495720727
N       -4.9145783047   -2.0663661578   -1.5394532488
N       -3.2598965024   -3.4896542723   -0.6063653774
O       -4.5811626049    0.1980438805   -1.7490942531
O       -5.2824371226   -4.3183056593   -1.2743013068
O        1.7451928852   -0.5290498600   -0.3371550971
O       -1.1479034523   -5.0870868256   -1.8295034016
S       -0.8246409441   -2.4455338420    0.1642563635
H       -7.4856336901   -2.7829436549   -0.4559800234
H       -2.8232877172    1.7451632404   -0.2851668927
H       -1.0901205588    1.9162357121   -0.6292509818
H       -2.2414865850    1.4829310821   -1.9127322998
H       -8.7420557957   -0.1839419925    1.3380693777
H      -10.0194000171   -0.5307212998    0.1782761258
H       -9.1085951482   -1.8683056582    0.9090083559
H       -8.8127455638    0.8488907983   -1.8016750898
H       -7.8053017240    1.3693268907   -0.4565527869
H       -7.0391467117    0.7040912375   -1.8976117939
H        0.2703862702   -5.1965716130   -3.2752704428
H       -1.3597613508   -5.6896317380   -3.8171185570
H       -0.3898186874   -6.7824921101   -2.7862452715
H        0.5236739096    1.0308876309    0.3431932937
H        0.8532164009   -0.3002936499    1.4533291726
H       -6.2803398907   -1.0316988978   -2.7047273499
H       -6.4721069815   -2.7962008065   -2.7056276754
H       -3.7373629318   -5.3278062531    0.2408183378
H       -2.0952614669   -4.7481745780    0.5806274964
H       -3.1033850111   -5.7310348714   -2.1408954681
H       -2.1546723356   -6.7049363902   -0.9899644227
H        1.5216063847   -0.4522979241   -1.2789340381
