
  -OEChem-05262117493D

 47 49  0     1  0  0  0  0  0999 V2000
    3.7952    7.8630   -6.6172 C   0  0  0  0  0  0  0  0  0  0  0  0
    5.2790    6.7664   -5.0733 C   0  0  0  0  0  0  0  0  0  0  0  0
    4.8728    8.5502   -7.1825 C   0  0  0  0  0  0  0  0  0  0  0  0
    6.3701    7.4434   -5.6235 C   0  0  0  0  0  0  0  0  0  0  0  0
    3.9774    6.9632   -5.5578 C   0  0  0  0  0  0  0  0  0  0  0  0
    6.1554    8.3341   -6.6768 C   0  0  0  0  0  0  0  0  0  0  0  0
    1.7063    0.9376   -0.8498 C   0  0  0  0  0  0  0  0  0  0  0  0
    2.8539    2.8285   -1.3096 C   0  0  0  0  0  0  0  0  0  0  0  0
    0.8024    4.0484   -2.1883 C   0  0  0  0  0  0  0  0  0  0  0  0
    0.1032   -1.0545   -0.5924 C   0  0  0  0  0  0  0  0  0  0  0  0
    0.4573   -0.6052    0.7980 C   0  0  0  0  0  0  0  0  0  0  0  0
    1.4557   -0.4196   -0.3466 C   0  0  0  0  0  0  0  0  0  0  0  0
    0.4644    7.2470   -1.9104 C   0  0  0  0  0  0  0  0  0  0  0  0
    4.4943    1.4628    0.9969 C   0  0  0  0  0  0  0  0  0  0  0  0
    2.8028    6.2655   -4.9131 C   0  0  0  0  0  0  0  0  0  0  0  0
    2.2399    7.0671   -3.7248 C   0  0  0  0  0  0  0  0  0  0  0  0
    1.0974    6.3586   -2.9883 C   0  0  1  0  0  0  0  0  0  0  0  0
    0.8123    1.7565   -1.3266 N   0  0  0  0  0  0  0  0  0  0  0  0
    2.9592    1.5334   -0.8171 N   0  0  0  0  0  0  0  0  0  0  0  0
    1.5061    2.9301   -1.6132 N   0  0  0  0  0  0  0  0  0  0  0  0
    1.6104    5.1129   -2.4122 N   0  0  0  0  0  0  0  0  0  0  0  0
    4.1375    0.9481   -0.3395 N   0  0  0  0  0  0  0  0  0  0  0  0
    3.7732    3.6439   -1.4452 O   0  0  0  0  0  0  0  0  0  0  0  0
   -0.3895    3.9794   -2.4314 O   0  0  0  0  0  0  0  0  0  0  0  0
    7.5212    9.1912   -7.3800 Cl  0  0  0  0  0  0  0  0  0  0  0  0
    2.7960    8.0300   -7.0141 H   0  0  0  0  0  0  0  0  0  0  0  0
    5.4467    6.0695   -4.2547 H   0  0  0  0  0  0  0  0  0  0  0  0
    4.7212    9.2413   -8.0058 H   0  0  0  0  0  0  0  0  0  0  0  0
    7.3741    7.2808   -5.2440 H   0  0  0  0  0  0  0  0  0  0  0  0
    0.0935   -2.1185   -0.8069 H   0  0  0  0  0  0  0  0  0  0  0  0
   -0.6141   -0.4584   -1.1465 H   0  0  0  0  0  0  0  0  0  0  0  0
   -0.0229    0.2930    1.1732 H   0  0  0  0  0  0  0  0  0  0  0  0
    0.6994   -1.3538    1.5466 H   0  0  0  0  0  0  0  0  0  0  0  0
    2.3351   -1.0543   -0.3394 H   0  0  0  0  0  0  0  0  0  0  0  0
    1.2122    7.5505   -1.1693 H   0  0  0  0  0  0  0  0  0  0  0  0
    0.0377    8.1508   -2.3586 H   0  0  0  0  0  0  0  0  0  0  0  0
   -0.3359    6.7065   -1.3983 H   0  0  0  0  0  0  0  0  0  0  0  0
    3.7324    1.1404    1.7109 H   0  0  0  0  0  0  0  0  0  0  0  0
    4.5870    2.5548    1.0256 H   0  0  0  0  0  0  0  0  0  0  0  0
    5.4475    1.0090    1.2811 H   0  0  0  0  0  0  0  0  0  0  0  0
    2.0055    6.1119   -5.6492 H   0  0  0  0  0  0  0  0  0  0  0  0
    3.1069    5.2721   -4.5682 H   0  0  0  0  0  0  0  0  0  0  0  0
    1.8773    8.0375   -4.0811 H   0  0  0  0  0  0  0  0  0  0  0  0
    3.0490    7.2872   -3.0154 H   0  0  0  0  0  0  0  0  0  0  0  0
    0.3217    6.0756   -3.7067 H   0  0  0  0  0  0  0  0  0  0  0  0
    2.5856    5.0470   -2.1259 H   0  0  0  0  0  0  0  0  0  0  0  0
    4.8679    1.1876   -1.0092 H   0  0  0  0  0  0  0  0  0  0  0  0
  1  3  1  0  0  0  0
  1  5  2  0  0  0  0
  1 26  1  0  0  0  0
  2  4  2  0  0  0  0
  2  5  1  0  0  0  0
  2 27  1  0  0  0  0
  3  6  2  0  0  0  0
  3 28  1  0  0  0  0
  4  6  1  0  0  0  0
  4 29  1  0  0  0  0
  5 15  1  0  0  0  0
  6 25  1  0  0  0  0
  7 12  1  0  0  0  0
  7 18  2  0  0  0  0
  7 19  1  0  0  0  0
  8 19  1  0  0  0  0
  8 20  1  0  0  0  0
  8 23  2  0  0  0  0
  9 20  1  0  0  0  0
  9 21  1  0  0  0  0
  9 24  2  0  0  0  0
 10 11  1  0  0  0  0
 10 12  1  0  0  0  0
 10 30  1  0  0  0  0
 10 31  1  0  0  0  0
 11 12  1  0  0  0  0
 11 32  1  0  0  0  0
 11 33  1  0  0  0  0
 12 34  1  0  0  0  0
 13 17  1  0  0  0  0
 13 35  1  0  0  0  0
 13 36  1  0  0  0  0
 13 37  1  0  0  0  0
 14 22  1  0  0  0  0
 14 38  1  0  0  0  0
 14 39  1  0  0  0  0
 14 40  1  0  0  0  0
 15 16  1  0  0  0  0
 15 41  1  0  0  0  0
 15 42  1  0  0  0  0
 16 17  1  0  0  0  0
 16 43  1  0  0  0  0
 16 44  1  0  0  0  0
 17 21  1  0  0  0  0
 17 45  1  0  0  0  0
 18 20  1  0  0  0  0
 19 22  1  0  0  0  0
 21 46  1  0  0  0  0
 22 47  1  0  0  0  0
M  END
$$$$
