
  -OEChem-05262117493D

 35 37  0     1  0  0  0  0  0999 V2000
   -0.6677   -4.8947    1.4641 C   0  0  0  0  0  0  0  0  0  0  0  0
   -1.1921   -5.3672    0.2558 C   0  0  0  0  0  0  0  0  0  0  0  0
    0.0383   -3.6852    1.5090 C   0  0  0  0  0  0  0  0  0  0  0  0
   -0.2883   -3.4454   -0.8725 C   0  0  0  0  0  0  0  0  0  0  0  0
   -1.0141   -4.6400   -0.9297 C   0  0  0  0  0  0  0  0  0  0  0  0
    0.2340   -2.9495    0.3303 C   0  0  0  0  0  0  0  0  0  0  0  0
   -0.0643    1.1960   -1.1404 C   0  0  0  0  0  0  0  0  0  0  0  0
   -0.4112   -0.3552    2.1643 C   0  0  0  0  0  0  0  0  0  0  0  0
    0.3760    2.1052   -2.0157 C   0  0  0  0  0  0  0  0  0  0  0  0
   -1.6293   -5.1168   -2.2702 C   0  0  0  0  0  0  0  0  0  0  0  0
   -1.2398    0.2509   -1.3544 C   0  0  0  0  0  0  0  0  0  0  0  0
    0.5417    0.9356    0.2310 C   0  0  0  0  0  0  0  0  0  0  0  0
   -2.3156    0.2705    1.0064 C   0  0  0  0  0  0  0  0  0  0  0  0
   -1.4302   -0.4632   -0.0108 C   0  0  2  0  0  0  0  0  0  0  0  0
   -0.0555   -0.4303    0.6860 C   0  0  2  0  0  0  0  0  0  0  0  0
    0.9024   -1.5943    0.3507 C   0  0  0  0  0  0  0  0  0  0  0  0
   -1.4756   -4.3229   -3.2411 O   0  5  0  0  0  0  0  0  0  0  0  0
    0.2997   -0.5642    3.1222 O   0  0  0  0  0  0  0  0  0  0  0  0
   -2.2187   -6.2306   -2.2277 O   0  0  0  0  0  0  0  0  0  0  0  0
   -1.7066    0.0595    2.3071 O   0  0  0  0  0  0  0  0  0  0  0  0
   -0.8115   -5.4641    2.3816 H   0  0  0  0  0  0  0  0  0  0  0  0
   -1.7511   -6.2970    0.1947 H   0  0  0  0  0  0  0  0  0  0  0  0
    0.4284   -3.3087    2.4525 H   0  0  0  0  0  0  0  0  0  0  0  0
   -0.1628   -2.9048   -1.8087 H   0  0  0  0  0  0  0  0  0  0  0  0
    1.2439    2.7272   -1.8046 H   0  0  0  0  0  0  0  0  0  0  0  0
   -0.1108    2.2492   -2.9783 H   0  0  0  0  0  0  0  0  0  0  0  0
   -2.1401    0.7757   -1.6932 H   0  0  0  0  0  0  0  0  0  0  0  0
   -0.9966   -0.4878   -2.1256 H   0  0  0  0  0  0  0  0  0  0  0  0
    1.6349    0.9104    0.2174 H   0  0  0  0  0  0  0  0  0  0  0  0
    0.2522    1.7403    0.9188 H   0  0  0  0  0  0  0  0  0  0  0  0
   -2.3559    1.3515    0.8249 H   0  0  0  0  0  0  0  0  0  0  0  0
   -3.3336   -0.1205    1.0580 H   0  0  0  0  0  0  0  0  0  0  0  0
   -1.7854   -1.4864   -0.1364 H   0  0  0  0  0  0  0  0  0  0  0  0
    1.7174   -1.5609    1.0826 H   0  0  0  0  0  0  0  0  0  0  0  0
    1.3398   -1.3919   -0.6335 H   0  0  0  0  0  0  0  0  0  0  0  0
  1  2  1  0  0  0  0
  1  3  2  0  0  0  0
  1 21  1  0  0  0  0
  2  5  2  0  0  0  0
  2 22  1  0  0  0  0
  3  6  1  0  0  0  0
  3 23  1  0  0  0  0
  4  5  1  0  0  0  0
  4  6  2  0  0  0  0
  4 24  1  0  0  0  0
  5 10  1  0  0  0  0
  6 16  1  0  0  0  0
  7  9  2  0  0  0  0
  7 11  1  0  0  0  0
  7 12  1  0  0  0  0
  8 15  1  0  0  0  0
  8 18  2  0  0  0  0
  8 20  1  0  0  0  0
  9 25  1  0  0  0  0
  9 26  1  0  0  0  0
 10 17  1  0  0  0  0
 10 19  2  0  0  0  0
 11 14  1  0  0  0  0
 11 27  1  0  0  0  0
 11 28  1  0  0  0  0
 12 15  1  0  0  0  0
 12 29  1  0  0  0  0
 12 30  1  0  0  0  0
 13 14  1  0  0  0  0
 13 20  1  0  0  0  0
 13 31  1  0  0  0  0
 13 32  1  0  0  0  0
 14 15  1  0  0  0  0
 14 33  1  0  0  0  0
 15 16  1  0  0  0  0
 16 34  1  0  0  0  0
 16 35  1  0  0  0  0
M  CHG  1  17  -1
M  END
$$$$
