47
0 1 C17ClH22N5O2
C                     0.662166672272     4.630943014496    -6.169459766121
C                     1.778630212452     6.439668217558    -7.302444700370
C                    -0.369076973962     4.671372042264    -7.113148174709
C                     0.758743513509     6.493567657603    -8.254985370550
C                     1.749956464828     5.512694998317    -6.248950321909
C                    -0.311489226968     5.603264170058    -8.149185245703
C                     2.196293480884     0.843522602840    -0.613746010269
C                     3.007297620243     2.952544850195    -0.610419062562
C                     1.362604980325     3.750938971796    -2.379739481514
C                     1.105935088606    -1.451608274366    -0.999422458396
C                     0.688344862505    -1.002076234481     0.373140462261
C                     2.034070439212    -0.557702137787    -0.204134024927
C                     1.148089435168     7.270394987354    -2.136496683625
C                     3.676959876033     1.858079476543     2.258943411160
C                     2.851295464148     5.511267632751    -5.210162772986
C                     2.613857777303     6.535632081081    -4.081926193475
C                     1.519898461109     6.124024102803    -3.083133085536
N                     1.466351622423     1.476418372172    -1.487683946434
N                     3.143570028467     1.687305105774    -0.051732713372
N                     1.953711826419     2.782290274325    -1.495157209257
N                     1.962695747301     4.962641572057    -2.305305917779
N                     4.074009623027     1.340823220818     0.934840639710
O                     3.697654504463     3.946703699296    -0.364537834726
O                     0.425045279937     3.439568587446    -3.096624892447
Cl                   -1.603059569950     5.657565663072    -9.344692742564
H                     0.603601751933     3.913774573132    -5.355556455329
H                     2.615182090898     7.130677656655    -7.387644967134
H                    -1.207514919363     3.985513804639    -7.041168770833
H                     0.794282959726     7.210525375310    -9.069459885806
H                     1.416814343587    -2.482694273417    -1.135249024236
H                     0.611154857014    -0.995707454457    -1.850384133919
H                    -0.084975593996    -0.243391105094     0.439505274765
H                     0.714889809587    -1.716324538411     1.190725825127
H                     2.925228976586    -0.992269681166     0.235535088394
H                     2.018601366945     7.603105860919    -1.558630274684
H                     0.772807403319     8.127426627115    -2.704407411821
H                     0.371417895188     6.953527113256    -1.434374660690
H                     2.760370902284     1.351945197551     2.571747310115
H                     3.519373268118     2.942991666929     2.266188275808
H                     4.471280619012     1.600914026241     2.964702876531
H                     2.959468155019     4.513042908762    -4.773822004400
H                     3.804875470120     5.745704593765    -5.695976377208
H                     2.342824153382     7.501680682202    -4.523075934048
H                     3.548658654637     6.693273585841    -3.527734024625
H                     0.629112988377     5.806753170299    -3.627831116712
H                     2.734706019238     5.071613505729    -1.648339792755
H                     4.960031728264     1.758400476786     0.651693106958
