
  -OEChem-05262117493D

 52 54  0     1  0  0  0  0  0999 V2000
    3.5136    1.9759    0.2110 C   0  0  0  0  0  0  0  0  0  0  0  0
    2.3563    1.8219   -0.5585 C   0  0  0  0  0  0  0  0  0  0  0  0
   -2.6855    0.5701    1.1837 C   0  0  0  0  0  0  0  0  0  0  0  0
   -3.4031    1.7329   -0.7821 C   0  0  0  0  0  0  0  0  0  0  0  0
    2.0857   -0.4296    0.3202 C   0  0  0  0  0  0  0  0  0  0  0  0
   -1.4546    0.2580    0.5925 C   0  0  0  0  0  0  0  0  0  0  0  0
    3.9682    0.9497    1.0348 C   0  0  0  0  0  0  0  0  0  0  0  0
   -3.6716    1.3114    0.5230 C   0  0  0  0  0  0  0  0  0  0  0  0
   -2.1819    1.4401   -1.3895 C   0  0  0  0  0  0  0  0  0  0  0  0
    3.2438   -0.2618    1.0972 C   0  0  0  0  0  0  0  0  0  0  0  0
    1.6446    0.6259   -0.5046 C   0  0  0  0  0  0  0  0  0  0  0  0
   -1.1807    0.7184   -0.7116 C   0  0  0  0  0  0  0  0  0  0  0  0
    1.3155   -1.7189    0.2635 C   0  0  0  0  0  0  0  0  0  0  0  0
    8.6456    1.2794    1.6788 C   0  0  0  0  0  0  0  0  0  0  0  0
    7.6698    0.4079    1.9835 C   0  0  0  0  0  0  0  0  0  0  0  0
   -0.4770   -0.5382    1.4251 C   0  0  0  0  0  0  0  0  0  0  0  0
   -4.9819    1.6447    1.1966 C   0  0  0  0  0  0  0  0  0  0  0  0
    7.7515   -0.5073    3.1803 C   0  0  0  0  0  0  0  0  0  0  0  0
   -1.4511    3.1434   -2.8527 C   0  0  0  0  0  0  0  0  0  0  0  0
    2.9515   -2.1605    2.6096 C   0  0  0  0  0  0  0  0  0  0  0  0
    6.4034    0.3258    1.1637 C   0  0  0  0  0  0  0  0  0  0  0  0
    5.2391    1.0960    1.8405 C   0  0  1  0  0  0  0  0  0  0  0  0
    1.7703   -2.7481   -0.1839 O   0  0  0  0  0  0  0  0  0  0  0  0
    0.0448   -1.7028    0.7497 O   0  0  0  0  0  0  0  0  0  0  0  0
    5.5494    2.4837    1.9565 O   0  0  0  0  0  0  0  0  0  0  0  0
   -1.9826    1.8207   -2.7021 O   0  0  0  0  0  0  0  0  0  0  0  0
    3.7787   -1.2007    1.9392 O   0  0  0  0  0  0  0  0  0  0  0  0
    0.2969    0.3623   -1.6652 S   0  0  0  0  0  0  0  0  0  0  0  0
    4.0727    2.9047    0.1902 H   0  0  0  0  0  0  0  0  0  0  0  0
    2.0159    2.6190   -1.2118 H   0  0  0  0  0  0  0  0  0  0  0  0
   -2.8875    0.2040    2.1885 H   0  0  0  0  0  0  0  0  0  0  0  0
   -4.1459    2.2795   -1.3584 H   0  0  0  0  0  0  0  0  0  0  0  0
    8.5858    1.9125    0.7960 H   0  0  0  0  0  0  0  0  0  0  0  0
    9.5470    1.3607    2.2822 H   0  0  0  0  0  0  0  0  0  0  0  0
    0.3431    0.0932    1.7742 H   0  0  0  0  0  0  0  0  0  0  0  0
   -0.9940   -0.9331    2.3017 H   0  0  0  0  0  0  0  0  0  0  0  0
   -4.9359    2.6304    1.6753 H   0  0  0  0  0  0  0  0  0  0  0  0
   -5.8054    1.6681    0.4769 H   0  0  0  0  0  0  0  0  0  0  0  0
   -5.2295    0.9140    1.9720 H   0  0  0  0  0  0  0  0  0  0  0  0
    6.8916   -0.3695    3.8467 H   0  0  0  0  0  0  0  0  0  0  0  0
    8.6641   -0.3418    3.7589 H   0  0  0  0  0  0  0  0  0  0  0  0
    7.7307   -1.5554    2.8578 H   0  0  0  0  0  0  0  0  0  0  0  0
   -1.3339    3.3080   -3.9254 H   0  0  0  0  0  0  0  0  0  0  0  0
   -0.4758    3.2294   -2.3598 H   0  0  0  0  0  0  0  0  0  0  0  0
   -2.1398    3.8895   -2.4367 H   0  0  0  0  0  0  0  0  0  0  0  0
    3.5008   -2.4413    3.5103 H   0  0  0  0  0  0  0  0  0  0  0  0
    2.7819   -3.0403    1.9872 H   0  0  0  0  0  0  0  0  0  0  0  0
    1.9924   -1.7184    2.9003 H   0  0  0  0  0  0  0  0  0  0  0  0
    6.0982   -0.7170    1.0370 H   0  0  0  0  0  0  0  0  0  0  0  0
    6.5556    0.7607    0.1711 H   0  0  0  0  0  0  0  0  0  0  0  0
    5.0669    0.6681    2.8365 H   0  0  0  0  0  0  0  0  0  0  0  0
    6.4761    2.5426    2.2488 H   0  0  0  0  0  0  0  0  0  0  0  0
  1  2  1  0  0  0  0
  1  7  2  0  0  0  0
  1 29  1  0  0  0  0
  2 11  2  0  0  0  0
  2 30  1  0  0  0  0
  3  6  1  0  0  0  0
  3  8  2  0  0  0  0
  3 31  1  0  0  0  0
  4  8  1  0  0  0  0
  4  9  2  0  0  0  0
  4 32  1  0  0  0  0
  5 10  2  0  0  0  0
  5 11  1  0  0  0  0
  5 13  1  0  0  0  0
  6 12  2  0  0  0  0
  6 16  1  0  0  0  0
  7 10  1  0  0  0  0
  7 22  1  0  0  0  0
  8 17  1  0  0  0  0
  9 12  1  0  0  0  0
  9 26  1  0  0  0  0
 10 27  1  0  0  0  0
 11 28  1  0  0  0  0
 12 28  1  0  0  0  0
 13 23  2  0  0  0  0
 13 24  1  0  0  0  0
 14 15  2  0  0  0  0
 14 33  1  0  0  0  0
 14 34  1  0  0  0  0
 15 18  1  0  0  0  0
 15 21  1  0  0  0  0
 16 24  1  0  0  0  0
 16 35  1  0  0  0  0
 16 36  1  0  0  0  0
 17 37  1  0  0  0  0
 17 38  1  0  0  0  0
 17 39  1  0  0  0  0
 18 40  1  0  0  0  0
 18 41  1  0  0  0  0
 18 42  1  0  0  0  0
 19 26  1  0  0  0  0
 19 43  1  0  0  0  0
 19 44  1  0  0  0  0
 19 45  1  0  0  0  0
 20 27  1  0  0  0  0
 20 46  1  0  0  0  0
 20 47  1  0  0  0  0
 20 48  1  0  0  0  0
 21 22  1  0  0  0  0
 21 49  1  0  0  0  0
 21 50  1  0  0  0  0
 22 25  1  0  0  0  0
 22 51  1  0  0  0  0
 25 52  1  0  0  0  0
M  END
$$$$
