
  -OEChem-05262117493D

 30 30  0     0  0  0  0  0  0999 V2000
   -0.3820   -0.2334    0.9176 C   0  0  0  0  0  0  0  0  0  0  0  0
   -0.8451   -0.5423   -0.4443 C   0  0  0  0  0  0  0  0  0  0  0  0
    1.4716   -0.2363   -1.0261 C   0  0  0  0  0  0  0  0  0  0  0  0
   -0.8153   -0.3683    3.4083 C   0  0  0  0  0  0  0  0  0  0  0  0
   -2.2243    1.1254    1.9110 C   0  0  0  0  0  0  0  0  0  0  0  0
   -0.1570   -1.1571   -2.7035 C   0  0  0  0  0  0  0  0  0  0  0  0
    2.2573    0.8027   -3.0761 C   0  0  0  0  0  0  0  0  0  0  0  0
    3.8288   -0.2634   -1.5529 C   0  0  0  0  0  0  0  0  0  0  0  0
   -1.4225   -0.1900    2.0135 C   0  0  0  0  0  0  0  0  0  0  0  0
    0.8721   -0.0200    1.1998 N   0  0  0  0  0  0  0  0  0  0  0  0
    1.8163    0.0375    0.2078 N   0  0  0  0  0  0  0  0  0  0  0  0
    0.1873   -0.5953   -1.3911 N   0  0  0  0  0  0  0  0  0  0  0  0
    2.4414   -0.2151   -2.0292 N   0  0  0  0  0  0  0  0  0  0  0  0
   -2.0062   -0.8039   -0.7578 O   0  0  0  0  0  0  0  0  0  0  0  0
   -0.1281    0.4473    3.6478 H   0  0  0  0  0  0  0  0  0  0  0  0
   -0.2530   -1.3040    3.4822 H   0  0  0  0  0  0  0  0  0  0  0  0
   -1.6131   -0.3834    4.1586 H   0  0  0  0  0  0  0  0  0  0  0  0
   -1.5712    1.9861    2.0931 H   0  0  0  0  0  0  0  0  0  0  0  0
   -3.0219    1.1386    2.6614 H   0  0  0  0  0  0  0  0  0  0  0  0
   -2.6850    1.2344    0.9255 H   0  0  0  0  0  0  0  0  0  0  0  0
   -0.6577   -0.4133   -3.3291 H   0  0  0  0  0  0  0  0  0  0  0  0
   -0.8526   -1.9817   -2.5450 H   0  0  0  0  0  0  0  0  0  0  0  0
    0.7540   -1.5063   -3.1857 H   0  0  0  0  0  0  0  0  0  0  0  0
    2.5863    1.7926   -2.7264 H   0  0  0  0  0  0  0  0  0  0  0  0
    1.2127    0.8785   -3.3761 H   0  0  0  0  0  0  0  0  0  0  0  0
    2.8472    0.5263   -3.9547 H   0  0  0  0  0  0  0  0  0  0  0  0
    4.4712   -0.4557   -2.4173 H   0  0  0  0  0  0  0  0  0  0  0  0
    3.9431   -1.0730   -0.8323 H   0  0  0  0  0  0  0  0  0  0  0  0
    4.1391    0.6723   -1.0706 H   0  0  0  0  0  0  0  0  0  0  0  0
   -2.1213   -1.0105    1.8129 H   0  0  0  0  0  0  0  0  0  0  0  0
  1  2  1  0  0  0  0
  1  9  1  0  0  0  0
  1 10  2  0  0  0  0
  2 12  1  0  0  0  0
  2 14  2  0  0  0  0
  3 11  2  0  0  0  0
  3 12  1  0  0  0  0
  3 13  1  0  0  0  0
  4  9  1  0  0  0  0
  4 15  1  0  0  0  0
  4 16  1  0  0  0  0
  4 17  1  0  0  0  0
  5  9  1  0  0  0  0
  5 18  1  0  0  0  0
  5 19  1  0  0  0  0
  5 20  1  0  0  0  0
  6 12  1  0  0  0  0
  6 21  1  0  0  0  0
  6 22  1  0  0  0  0
  6 23  1  0  0  0  0
  7 13  1  0  0  0  0
  7 24  1  0  0  0  0
  7 25  1  0  0  0  0
  7 26  1  0  0  0  0
  8 13  1  0  0  0  0
  8 27  1  0  0  0  0
  8 28  1  0  0  0  0
  8 29  1  0  0  0  0
  9 30  1  0  0  0  0
 10 11  1  0  0  0  0
M  END
$$$$
