
  -OEChem-05262117493D

 52 54  0     1  0  0  0  0  0999 V2000
    2.4861    3.1306   -0.9273 C   0  0  0  0  0  0  0  0  0  0  0  0
    1.2867    2.8632   -1.5913 C   0  0  0  0  0  0  0  0  0  0  0  0
   -3.5471    1.6933    0.6518 C   0  0  0  0  0  0  0  0  0  0  0  0
   -4.4181    2.6881   -1.3428 C   0  0  0  0  0  0  0  0  0  0  0  0
    1.1639    0.7142   -0.4532 C   0  0  0  0  0  0  0  0  0  0  0  0
   -2.3663    1.3272   -0.0053 C   0  0  0  0  0  0  0  0  0  0  0  0
    3.0375    2.2163   -0.0320 C   0  0  0  0  0  0  0  0  0  0  0  0
   -4.5825    2.3824    0.0100 C   0  0  0  0  0  0  0  0  0  0  0  0
   -3.2501    2.3364   -2.0220 C   0  0  0  0  0  0  0  0  0  0  0  0
    2.3635    1.0014    0.2238 C   0  0  0  0  0  0  0  0  0  0  0  0
    0.6322    1.6566   -1.3564 C   0  0  0  0  0  0  0  0  0  0  0  0
   -2.1990    1.6638   -1.3654 C   0  0  0  0  0  0  0  0  0  0  0  0
    0.4407   -0.5984   -0.3366 C   0  0  0  0  0  0  0  0  0  0  0  0
    6.4874   -0.1050    0.1961 C   0  0  0  0  0  0  0  0  0  0  0  0
    5.7349    0.6825   -0.5845 C   0  0  0  0  0  0  0  0  0  0  0  0
   -1.3148    0.6298    0.8278 C   0  0  0  0  0  0  0  0  0  0  0  0
   -5.8274    2.7952    0.7590 C   0  0  0  0  0  0  0  0  0  0  0  0
    5.0352    0.1575   -1.8142 C   0  0  0  0  0  0  0  0  0  0  0  0
   -3.5772    1.6989   -4.2761 C   0  0  0  0  0  0  0  0  0  0  0  0
    2.2583   -0.7768    1.8977 C   0  0  0  0  0  0  0  0  0  0  0  0
    5.5768    2.1570   -0.2682 C   0  0  0  0  0  0  0  0  0  0  0  0
    4.3648    2.5171    0.6289 C   0  0  1  0  0  0  0  0  0  0  0  0
    0.9022   -1.6494   -0.7230 O   0  0  0  0  0  0  0  0  0  0  0  0
   -0.7961   -0.5775    0.2304 O   0  0  0  0  0  0  0  0  0  0  0  0
    4.3763    3.9265    0.9144 O   0  0  0  0  0  0  0  0  0  0  0  0
   -3.1326    2.6970   -3.3478 O   0  0  0  0  0  0  0  0  0  0  0  0
    2.9846    0.1786    1.1175 O   0  0  0  0  0  0  0  0  0  0  0  0
   -0.7834    1.2211   -2.3724 S   0  0  0  0  0  0  0  0  0  0  0  0
    3.0040    4.0700   -1.0908 H   0  0  0  0  0  0  0  0  0  0  0  0
    0.8678    3.5717   -2.2984 H   0  0  0  0  0  0  0  0  0  0  0  0
   -3.6649    1.4239    1.6997 H   0  0  0  0  0  0  0  0  0  0  0  0
   -5.1908    3.2161   -1.8966 H   0  0  0  0  0  0  0  0  0  0  0  0
    7.0088    0.2867    1.0677 H   0  0  0  0  0  0  0  0  0  0  0  0
    6.6000   -1.1677   -0.0052 H   0  0  0  0  0  0  0  0  0  0  0  0
   -0.4958    1.3122    1.0666 H   0  0  0  0  0  0  0  0  0  0  0  0
   -1.7646    0.3034    1.7673 H   0  0  0  0  0  0  0  0  0  0  0  0
   -5.7185    3.8069    1.1683 H   0  0  0  0  0  0  0  0  0  0  0  0
   -6.7043    2.7992    0.1051 H   0  0  0  0  0  0  0  0  0  0  0  0
   -6.0311    2.1219    1.5967 H   0  0  0  0  0  0  0  0  0  0  0  0
    3.9566    0.3363   -1.7794 H   0  0  0  0  0  0  0  0  0  0  0  0
    5.1959   -0.9166   -1.9367 H   0  0  0  0  0  0  0  0  0  0  0  0
    5.4097    0.6670   -2.7113 H   0  0  0  0  0  0  0  0  0  0  0  0
   -3.4238    2.1167   -5.2726 H   0  0  0  0  0  0  0  0  0  0  0  0
   -4.6413    1.4756   -4.1274 H   0  0  0  0  0  0  0  0  0  0  0  0
   -2.9962    0.7744   -4.1757 H   0  0  0  0  0  0  0  0  0  0  0  0
    2.8694   -0.9508    2.7852 H   0  0  0  0  0  0  0  0  0  0  0  0
    2.1207   -1.7113    1.3516 H   0  0  0  0  0  0  0  0  0  0  0  0
    1.2854   -0.3785    2.2067 H   0  0  0  0  0  0  0  0  0  0  0  0
    5.4932    2.7442   -1.1905 H   0  0  0  0  0  0  0  0  0  0  0  0
    6.4757    2.5037    0.2579 H   0  0  0  0  0  0  0  0  0  0  0  0
    4.4397    1.9430    1.5577 H   0  0  0  0  0  0  0  0  0  0  0  0
    5.2470    4.1437    1.2832 H   0  0  0  0  0  0  0  0  0  0  0  0
  1  2  1  0  0  0  0
  1  7  2  0  0  0  0
  1 29  1  0  0  0  0
  2 11  2  0  0  0  0
  2 30  1  0  0  0  0
  3  6  1  0  0  0  0
  3  8  2  0  0  0  0
  3 31  1  0  0  0  0
  4  8  1  0  0  0  0
  4  9  2  0  0  0  0
  4 32  1  0  0  0  0
  5 10  2  0  0  0  0
  5 11  1  0  0  0  0
  5 13  1  0  0  0  0
  6 12  2  0  0  0  0
  6 16  1  0  0  0  0
  7 10  1  0  0  0  0
  7 22  1  0  0  0  0
  8 17  1  0  0  0  0
  9 12  1  0  0  0  0
  9 26  1  0  0  0  0
 10 27  1  0  0  0  0
 11 28  1  0  0  0  0
 12 28  1  0  0  0  0
 13 23  2  0  0  0  0
 13 24  1  0  0  0  0
 14 15  2  0  0  0  0
 14 33  1  0  0  0  0
 14 34  1  0  0  0  0
 15 18  1  0  0  0  0
 15 21  1  0  0  0  0
 16 24  1  0  0  0  0
 16 35  1  0  0  0  0
 16 36  1  0  0  0  0
 17 37  1  0  0  0  0
 17 38  1  0  0  0  0
 17 39  1  0  0  0  0
 18 40  1  0  0  0  0
 18 41  1  0  0  0  0
 18 42  1  0  0  0  0
 19 26  1  0  0  0  0
 19 43  1  0  0  0  0
 19 44  1  0  0  0  0
 19 45  1  0  0  0  0
 20 27  1  0  0  0  0
 20 46  1  0  0  0  0
 20 47  1  0  0  0  0
 20 48  1  0  0  0  0
 21 22  1  0  0  0  0
 21 49  1  0  0  0  0
 21 50  1  0  0  0  0
 22 25  1  0  0  0  0
 22 51  1  0  0  0  0
 25 52  1  0  0  0  0
M  END
$$$$
