
  -OEChem-05262117493D

 35 36  0     1  0  0  0  0  0999 V2000
    9.4805   -1.5782   -0.7030 C   0  0  0  0  0  0  0  0  0  0  0  0
    7.8723   -0.3259    0.4575 C   0  0  0  0  0  0  0  0  0  0  0  0
   10.5323   -2.5349   -1.1817 C   0  0  0  0  0  0  0  0  0  0  0  0
   13.3252   -3.0735   -2.7654 C   0  0  0  0  0  0  0  0  0  0  0  0
   12.8401   -2.5269   -4.0914 C   0  0  0  0  0  0  0  0  0  0  0  0
   11.8657   -3.1701   -3.1344 C   0  0  0  0  0  0  0  0  0  0  0  0
    0.1450   -0.5259    1.2436 C   0  0  0  0  0  0  0  0  0  0  0  0
    1.4393    0.0281    1.8491 C   0  0  0  0  0  0  0  0  0  0  0  0
    2.6857   -0.3592    1.0442 C   0  0  0  0  0  0  0  0  0  0  0  0
    3.9816    0.1944    1.6526 C   0  0  0  0  0  0  0  0  0  0  0  0
    5.2054   -0.2085    0.8346 C   0  0  0  0  0  0  0  0  0  0  0  0
    8.9423   -0.6456   -1.4500 N   0  0  0  0  0  0  0  0  0  0  0  0
    8.0092    0.0917   -0.7715 N   0  0  0  0  0  0  0  0  0  0  0  0
   10.9247   -2.3159   -2.4646 N   0  0  0  0  0  0  0  0  0  0  0  0
   10.9663   -3.4120   -0.4379 O   0  0  0  0  0  0  0  0  0  0  0  0
    6.9200   -0.3646    2.9350 O   0  0  0  0  0  0  0  0  0  0  0  0
    8.8859   -1.6575    0.9296 S   0  0  0  0  0  0  0  0  0  0  0  0
    6.7349    0.4309    1.6579 S   0  0  1  0  0  0  0  0  0  0  0  0
   13.8983   -3.9949   -2.7558 H   0  0  0  0  0  0  0  0  0  0  0  0
   13.5863   -2.3614   -1.9900 H   0  0  0  0  0  0  0  0  0  0  0  0
   12.7934   -1.4471   -4.2010 H   0  0  0  0  0  0  0  0  0  0  0  0
   13.0807   -3.0669   -5.0019 H   0  0  0  0  0  0  0  0  0  0  0  0
   11.4841   -4.1574   -3.3849 H   0  0  0  0  0  0  0  0  0  0  0  0
   -0.0062   -0.1533    0.2239 H   0  0  0  0  0  0  0  0  0  0  0  0
    0.1674   -1.6207    1.1967 H   0  0  0  0  0  0  0  0  0  0  0  0
   -0.7280   -0.2356    1.8375 H   0  0  0  0  0  0  0  0  0  0  0  0
    1.5485   -0.3345    2.8792 H   0  0  0  0  0  0  0  0  0  0  0  0
    1.3759    1.1220    1.9139 H   0  0  0  0  0  0  0  0  0  0  0  0
    2.5798    0.0017    0.0122 H   0  0  0  0  0  0  0  0  0  0  0  0
    2.7525   -1.4536    0.9829 H   0  0  0  0  0  0  0  0  0  0  0  0
    4.0966   -0.1772    2.6767 H   0  0  0  0  0  0  0  0  0  0  0  0
    3.9208    1.2885    1.7125 H   0  0  0  0  0  0  0  0  0  0  0  0
    5.2006    0.2148   -0.1747 H   0  0  0  0  0  0  0  0  0  0  0  0
    5.3181   -1.2956    0.7771 H   0  0  0  0  0  0  0  0  0  0  0  0
   10.4219   -1.6058   -2.9870 H   0  0  0  0  0  0  0  0  0  0  0  0
  1  3  1  0  0  0  0
  1 12  2  0  0  0  0
  1 17  1  0  0  0  0
  2 13  2  0  0  0  0
  2 17  1  0  0  0  0
  2 18  1  0  0  0  0
  3 14  1  0  0  0  0
  3 15  2  0  0  0  0
  4  5  1  0  0  0  0
  4  6  1  0  0  0  0
  4 19  1  0  0  0  0
  4 20  1  0  0  0  0
  5  6  1  0  0  0  0
  5 21  1  0  0  0  0
  5 22  1  0  0  0  0
  6 14  1  0  0  0  0
  6 23  1  0  0  0  0
  7  8  1  0  0  0  0
  7 24  1  0  0  0  0
  7 25  1  0  0  0  0
  7 26  1  0  0  0  0
  8  9  1  0  0  0  0
  8 27  1  0  0  0  0
  8 28  1  0  0  0  0
  9 10  1  0  0  0  0
  9 29  1  0  0  0  0
  9 30  1  0  0  0  0
 10 11  1  0  0  0  0
 10 31  1  0  0  0  0
 10 32  1  0  0  0  0
 11 18  1  0  0  0  0
 11 33  1  0  0  0  0
 11 34  1  0  0  0  0
 12 13  1  0  0  0  0
 14 35  1  0  0  0  0
 16 18  2  0  0  0  0
M  END
$$$$
