
  -OEChem-05262117493D

 36 38  0     1  0  0  0  0  0999 V2000
   -4.6901   -1.5956   -1.2646 C   0  0  0  0  0  0  0  0  0  0  0  0
   -5.4283   -1.4465   -0.0926 C   0  0  0  0  0  0  0  0  0  0  0  0
   -3.5257   -0.8446   -1.4577 C   0  0  0  0  0  0  0  0  0  0  0  0
   -3.8288    0.2108    0.6852 C   0  0  0  0  0  0  0  0  0  0  0  0
   -4.9975   -0.5345    0.8823 C   0  0  0  0  0  0  0  0  0  0  0  0
   -3.0747    0.0585   -0.4842 C   0  0  0  0  0  0  0  0  0  0  0  0
    1.2952   -1.1942   -0.8773 C   0  0  0  0  0  0  0  0  0  0  0  0
   -0.6148    0.2731    1.4569 C   0  0  0  0  0  0  0  0  0  0  0  0
    1.9515   -2.1188   -1.5835 C   0  0  0  0  0  0  0  0  0  0  0  0
   -5.8178   -0.3905    2.1140 C   0  0  0  0  0  0  0  0  0  0  0  0
    1.8954    0.0702   -0.2989 C   0  0  0  0  0  0  0  0  0  0  0  0
   -0.1982   -1.1997   -0.5843 C   0  0  0  0  0  0  0  0  0  0  0  0
    0.7175    2.0685    0.8472 C   0  0  0  0  0  0  0  0  0  0  0  0
    0.7356    1.0861   -0.3252 C   0  0  2  0  0  0  0  0  0  0  0  0
   -0.5218    0.2212   -0.0740 C   0  0  2  0  0  0  0  0  0  0  0  0
   -1.8008    0.8459   -0.6958 C   0  0  0  0  0  0  0  0  0  0  0  0
   -1.1834   -0.4965    2.1933 O   0  0  0  0  0  0  0  0  0  0  0  0
   -6.8212   -1.0367    2.3635 O   0  0  0  0  0  0  0  0  0  0  0  0
    0.0571    1.3666    1.9296 O   0  0  0  0  0  0  0  0  0  0  0  0
   -5.3437    0.5584    2.9669 O   0  0  0  0  0  0  0  0  0  0  0  0
   -5.0209   -2.2897   -2.0324 H   0  0  0  0  0  0  0  0  0  0  0  0
   -6.3362   -2.0148    0.0826 H   0  0  0  0  0  0  0  0  0  0  0  0
   -2.9662   -0.9567   -2.3840 H   0  0  0  0  0  0  0  0  0  0  0  0
   -3.5088    0.9038    1.4557 H   0  0  0  0  0  0  0  0  0  0  0  0
    1.4464   -2.9970   -1.9800 H   0  0  0  0  0  0  0  0  0  0  0  0
    3.0180   -2.0342   -1.7796 H   0  0  0  0  0  0  0  0  0  0  0  0
    2.1972   -0.1100    0.7425 H   0  0  0  0  0  0  0  0  0  0  0  0
    2.7810    0.4129   -0.8405 H   0  0  0  0  0  0  0  0  0  0  0  0
   -0.7668   -1.4345   -1.4879 H   0  0  0  0  0  0  0  0  0  0  0  0
   -0.4761   -1.9467    0.1653 H   0  0  0  0  0  0  0  0  0  0  0  0
    1.7119    2.3494    1.2018 H   0  0  0  0  0  0  0  0  0  0  0  0
    0.1470    2.9769    0.6284 H   0  0  0  0  0  0  0  0  0  0  0  0
    0.6945    1.6039   -1.2882 H   0  0  0  0  0  0  0  0  0  0  0  0
   -1.6091    0.9454   -1.7699 H   0  0  0  0  0  0  0  0  0  0  0  0
   -1.9286    1.8618   -0.3045 H   0  0  0  0  0  0  0  0  0  0  0  0
   -5.9448    0.5496    3.7358 H   0  0  0  0  0  0  0  0  0  0  0  0
  1  2  1  0  0  0  0
  1  3  2  0  0  0  0
  1 21  1  0  0  0  0
  2  5  2  0  0  0  0
  2 22  1  0  0  0  0
  3  6  1  0  0  0  0
  3 23  1  0  0  0  0
  4  5  1  0  0  0  0
  4  6  2  0  0  0  0
  4 24  1  0  0  0  0
  5 10  1  0  0  0  0
  6 16  1  0  0  0  0
  7  9  2  0  0  0  0
  7 11  1  0  0  0  0
  7 12  1  0  0  0  0
  8 15  1  0  0  0  0
  8 17  2  0  0  0  0
  8 19  1  0  0  0  0
  9 25  1  0  0  0  0
  9 26  1  0  0  0  0
 10 18  2  0  0  0  0
 10 20  1  0  0  0  0
 11 14  1  0  0  0  0
 11 27  1  0  0  0  0
 11 28  1  0  0  0  0
 12 15  1  0  0  0  0
 12 29  1  0  0  0  0
 12 30  1  0  0  0  0
 13 14  1  0  0  0  0
 13 19  1  0  0  0  0
 13 31  1  0  0  0  0
 13 32  1  0  0  0  0
 14 15  1  0  0  0  0
 14 33  1  0  0  0  0
 15 16  1  0  0  0  0
 16 34  1  0  0  0  0
 16 35  1  0  0  0  0
 20 36  1  0  0  0  0
M  END
$$$$
