52
0 1 C22H24O5S
C                     3.215402882006    -1.828240353698     0.665664888183
C                     2.046631190572    -1.857685424733    -0.104979233407
C                    -3.320160940507     0.433917957186     0.621263099549
C                    -3.340621418604    -1.962846949106     0.456505172034
C                     1.866743541552     0.563379833542     0.124835534008
C                    -2.104003165558     0.492162915817    -0.061099673886
C                     3.714545221890    -0.632610579859     1.169407476686
C                    -3.963093931501    -0.786476003045     0.879756853442
C                    -2.118202238978    -1.926501671832    -0.224770734911
C                     3.033526627363     0.579242528985     0.899503905408
C                     1.374575968976    -0.670180325571    -0.364628996084
C                    -1.493018439017    -0.701133361153    -0.506301758287
C                     1.005117352410     1.734154053253    -0.261109905479
C                     6.256014297911    -1.438762121861     5.082195499453
C                     5.779080742377    -0.370344469800     4.422162099270
C                    -1.402639464149     1.819150607958    -0.232091144897
C                    -5.293011751942    -0.823458891231     1.595139718603
C                     6.451413570338     0.979321577380     4.481395677349
C                    -1.906986589989    -3.629178497143    -1.850263179884
C                     2.984176571424     2.962713503600     1.425148302560
C                     4.559080706953    -0.471445659769     3.536961393483
C                     4.950617633935    -0.608396033960     2.041366877470
O                     1.226010202636     2.540400201557    -1.136648428078
O                    -0.141787069772     1.697344031386     0.478172576347
O                     5.685559275102    -1.812008414272     1.823847770092
O                    -1.519486888241    -3.119440055670    -0.567655410776
O                     3.612356974927     1.680021050262     1.473654347307
S                    -0.011589076166    -0.680511261751    -1.526560108969
H                     3.761400350158    -2.741431395909     0.874905981204
H                     1.661258400203    -2.789909949900    -0.504164850750
H                    -3.770765855435     1.358512075065     0.976770990851
H                    -3.782614625317    -2.933817321627     0.666973638677
H                     5.744918019467    -2.398760116047     5.052244593214
H                     7.151773417286    -1.377155914257     5.696426908101
H                    -1.198435476702     2.067041333333    -1.276041034473
H                    -1.972654148017     2.629626490874     0.225926071640
H                    -6.119195011499    -0.688927306693     0.886526686291
H                    -5.447158898492    -1.779298849025     2.103511951520
H                    -5.367838843601    -0.025347662476     2.339719677066
H                     6.697631365462     1.345980767125     3.477908148414
H                     7.370220294026     0.952244727825     5.073150246932
H                     5.775414877834     1.719905903938     4.926439786477
H                    -1.387938333850    -4.581813450826    -1.971973853670
H                    -1.604746137097    -2.942885233516    -2.649280651072
H                    -2.991293316978    -3.792348078092    -1.894301032184
H                     3.580241326431     3.598992064711     2.081293509686
H                     1.958355610448     2.915060751814     1.806680573447
H                     2.986467167899     3.370289966466     0.411823030605
H                     3.933607304180     0.419183409346     3.648347666427
H                     3.959085292419    -1.347369656216     3.801970879912
H                     5.562123933410     0.256677316075     1.755530748773
H                     6.342423776936    -1.874880461390     2.539202318980
