
  -OEChem-05262117483D

 25 26  0     1  0  0  0  0  0999 V2000
    0.5102   -1.2431   -3.0635 C   0  0  0  0  0  0  0  0  0  0  0  0
    0.9812   -0.9241   -4.3874 C   0  0  0  0  0  0  0  0  0  0  0  0
    0.9211   -0.2250   -2.2524 C   0  0  0  0  0  0  0  0  0  0  0  0
    1.6424    0.2679   -4.2956 C   0  0  0  0  0  0  0  0  0  0  0  0
    0.2867   -0.8983    1.3675 C   0  0  0  0  0  0  0  0  0  0  0  0
   -0.8989    0.0477    1.5285 C   0  0  0  0  0  0  0  0  0  0  0  0
   -0.4804    0.9998   -0.5786 C   0  0  0  0  0  0  0  0  0  0  0  0
    0.7308    0.0750   -0.8018 C   0  0  1  0  0  0  0  0  0  0  0  0
    2.3555    1.1313   -5.2782 C   0  0  0  0  0  0  0  0  0  0  0  0
    0.4882   -1.1705   -0.0612 N   0  0  0  0  0  0  0  0  0  0  0  0
    1.6145    0.7074   -2.9909 O   0  0  0  0  0  0  0  0  0  0  0  0
   -0.6864    1.2614    0.8068 O   0  0  0  0  0  0  0  0  0  0  0  0
   -0.0616   -2.1052   -2.7490 H   0  0  0  0  0  0  0  0  0  0  0  0
    0.8462   -1.5063   -5.2898 H   0  0  0  0  0  0  0  0  0  0  0  0
    1.1725   -0.4372    1.8388 H   0  0  0  0  0  0  0  0  0  0  0  0
    0.0762   -1.8416    1.8833 H   0  0  0  0  0  0  0  0  0  0  0  0
   -1.8152   -0.4447    1.1687 H   0  0  0  0  0  0  0  0  0  0  0  0
   -1.0333    0.3308    2.5757 H   0  0  0  0  0  0  0  0  0  0  0  0
   -0.3139    1.9663   -1.0592 H   0  0  0  0  0  0  0  0  0  0  0  0
   -1.3713    0.5251   -1.0158 H   0  0  0  0  0  0  0  0  0  0  0  0
    1.6225    0.6135   -0.4332 H   0  0  0  0  0  0  0  0  0  0  0  0
    1.9095    2.1311   -5.3287 H   0  0  0  0  0  0  0  0  0  0  0  0
    3.4119    1.2517   -5.0121 H   0  0  0  0  0  0  0  0  0  0  0  0
    2.3008    0.6805   -6.2718 H   0  0  0  0  0  0  0  0  0  0  0  0
    1.2811   -1.7951   -0.1916 H   0  0  0  0  0  0  0  0  0  0  0  0
  1  2  1  0  0  0  0
  1  3  2  0  0  0  0
  1 13  1  0  0  0  0
  2  4  2  0  0  0  0
  2 14  1  0  0  0  0
  3  8  1  0  0  0  0
  3 11  1  0  0  0  0
  4  9  1  0  0  0  0
  4 11  1  0  0  0  0
  5  6  1  0  0  0  0
  5 10  1  0  0  0  0
  5 15  1  0  0  0  0
  5 16  1  0  0  0  0
  6 12  1  0  0  0  0
  6 17  1  0  0  0  0
  6 18  1  0  0  0  0
  7  8  1  0  0  0  0
  7 12  1  0  0  0  0
  7 19  1  0  0  0  0
  7 20  1  0  0  0  0
  8 10  1  0  0  0  0
  8 21  1  0  0  0  0
  9 22  1  0  0  0  0
  9 23  1  0  0  0  0
  9 24  1  0  0  0  0
 10 25  1  0  0  0  0
M  END
$$$$
