
  -OEChem-05262117483D

 18 18  0     1  0  0  0  0  0999 V2000
    2.9042    0.6363    2.8457 C   0  0  0  0  0  0  0  0  0  0  0  0
    4.3554   -3.5862    2.0192 C   0  0  0  0  0  0  0  0  0  0  0  0
    4.7994   -3.2775    0.7620 C   0  0  0  0  0  0  0  0  0  0  0  0
    3.1897   -2.8322    2.3628 C   0  0  0  0  0  0  0  0  0  0  0  0
    2.7615   -1.9701    1.3847 C   0  0  0  0  0  0  0  0  0  0  0  0
    2.1356    0.4648    1.6087 C   0  0  0  0  0  0  0  0  0  0  0  0
    1.6275   -0.9865    1.4093 C   0  0  1  0  0  0  0  0  0  0  0  0
    3.5115    0.7687    3.8281 N   0  0  0  0  0  0  0  0  0  0  0  0
    0.9126   -1.0177    0.1237 N   0  0  0  0  0  0  0  0  0  0  0  0
    3.8068   -2.0848   -0.0099 S   0  0  0  0  0  0  0  0  0  0  0  0
    2.3334   -3.0367    4.0540 Br  0  0  0  0  0  0  0  0  0  0  0  0
    4.8211   -4.3114    2.6761 H   0  0  0  0  0  0  0  0  0  0  0  0
    5.6472   -3.6977    0.2358 H   0  0  0  0  0  0  0  0  0  0  0  0
    1.2843    1.1547    1.6324 H   0  0  0  0  0  0  0  0  0  0  0  0
    2.7618    0.7433    0.7560 H   0  0  0  0  0  0  0  0  0  0  0  0
    0.9968   -1.2445    2.2708 H   0  0  0  0  0  0  0  0  0  0  0  0
    0.0830   -0.4273    0.1710 H   0  0  0  0  0  0  0  0  0  0  0  0
    0.5922   -1.9667   -0.0625 H   0  0  0  0  0  0  0  0  0  0  0  0
  1  6  1  0  0  0  0
  1  8  3  0  0  0  0
  2  3  2  0  0  0  0
  2  4  1  0  0  0  0
  2 12  1  0  0  0  0
  3 10  1  0  0  0  0
  3 13  1  0  0  0  0
  4  5  2  0  0  0  0
  4 11  1  0  0  0  0
  5  7  1  0  0  0  0
  5 10  1  0  0  0  0
  6  7  1  0  0  0  0
  6 14  1  0  0  0  0
  6 15  1  0  0  0  0
  7  9  1  0  0  0  0
  7 16  1  0  0  0  0
  9 17  1  0  0  0  0
  9 18  1  0  0  0  0
M  END
$$$$
