25
0 1 C9H13NO2
C                     1.575650180144     0.375106620187    -3.263573401942
C                     1.201644656021    -0.226678328796    -4.516581802526
C                     0.689927504539    -0.081598977716    -2.329137228250
C                     0.110650557868    -1.010112107932    -4.262112203190
C                     0.627165695618    -0.756919720128     1.359929878398
C                    -0.756670525288    -0.178642786091     1.636228593311
C                    -0.853091354500     0.742251335315    -0.529687570339
C                     0.538704707675     0.183498098126    -0.870051473518
C                    -0.745560285705    -1.888298088240    -5.107758976270
N                     0.738411831853    -1.041620001694    -0.075128929048
O                    -0.213173678753    -0.929703366182    -2.930057660423
O                    -0.978524821713     1.003998005023     0.866358335181
H                     2.394587066898     1.059067328878    -3.080761255068
H                     1.680436226827    -0.095705381623    -5.478257632434
H                     1.387614837237    -0.036772349741     1.712248254607
H                     0.753977082078    -1.690138103598     1.919824228033
H                    -1.524175837545    -0.930014284252     1.396561509335
H                    -0.857568659378     0.114311924405     2.684547359354
H                    -1.014699820343     1.694563094017    -1.040075883760
H                    -1.617839716990     0.022633782443    -0.853668866757
H                     1.277394897324     0.963569040757    -0.612653460416
H                    -0.725339546051    -2.924583994234    -4.752169824516
H                    -1.789310527302    -1.554453812342    -5.099017614346
H                    -0.387019521055    -1.870537906197    -6.139578155638
H                     1.652644977453    -1.433608846014    -0.290045019019
