28
0 1 C14ClFH8O4
C                     3.705991659666     0.051175008218    -1.106840172140
C                     2.977981589071     1.488260971848     3.400256795647
C                     2.881910355492     1.911679079488     2.059612404976
C                     4.040265341704    -1.297430245034    -1.009332952699
C                     0.435085427948     2.034417854634     2.208480283877
C                     1.808170344881    -1.772025329432    -0.160052690136
C                     2.447701414341     0.523507838873    -0.706760837990
C                     1.797728942958     1.359295389631     4.106473967554
C                     0.558291149065     1.632500201188     3.523811879558
C                     1.635249726598     2.160004068849     1.487913731054
C                     1.517067479450    -0.416898623238    -0.259895274444
C                     3.084705292196    -2.197996230271    -0.528563867824
C                     2.152554174492     1.985481879863    -0.858296071663
C                     0.226238767745     1.182661730656     5.690600481800
O                     2.442044234787     2.603981997025    -1.856452722296
O                     1.614109742628     0.940766011567     5.408145954231
O                    -0.445043722828     1.397341712340     4.436226751095
O                     1.532512759910     2.632742947762     0.176152266466
F                     0.266398502523    -0.016905253925     0.059719627347
Cl                    3.483928459953    -3.896230565271    -0.402238006746
H                     4.427581445419     0.764119610004    -1.493695695886
H                     3.939034318106     1.280873353758     3.858981813163
H                     3.783110310902     2.055201427169     1.473072045996
H                     5.022236207747    -1.649844042477    -1.306034338390
H                    -0.521799559585     2.229361092724     1.738483056218
H                     1.049614234189    -2.465412150066     0.186289047528
H                    -0.201371714596     0.307143327375     6.183084280093
H                     0.132148069837     2.084912436211     6.309766293309
