
  -OEChem-05262117483D

 28 30  0     0  0  0  0  0  0999 V2000
    0.0501    2.6096   -2.1979 C   0  0  0  0  0  0  0  0  0  0  0  0
    0.1096    2.8365    2.5815 C   0  0  0  0  0  0  0  0  0  0  0  0
    0.5746    2.0758    1.4902 C   0  0  0  0  0  0  0  0  0  0  0  0
   -0.8253    3.6160   -2.5990 C   0  0  0  0  0  0  0  0  0  0  0  0
   -0.8199    0.1660    2.1472 C   0  0  0  0  0  0  0  0  0  0  0  0
   -2.6580    2.4275   -1.5231 C   0  0  0  0  0  0  0  0  0  0  0  0
   -0.3893    1.5211   -1.4307 C   0  0  0  0  0  0  0  0  0  0  0  0
   -0.8008    2.2336    3.4277 C   0  0  0  0  0  0  0  0  0  0  0  0
   -1.2481    0.9276    3.2166 C   0  0  0  0  0  0  0  0  0  0  0  0
    0.1018    0.7811    1.2828 C   0  0  0  0  0  0  0  0  0  0  0  0
   -1.7513    1.4504   -1.1306 C   0  0  0  0  0  0  0  0  0  0  0  0
   -2.1756    3.5165   -2.2499 C   0  0  0  0  0  0  0  0  0  0  0  0
    0.6064    0.4665   -1.0514 C   0  0  0  0  0  0  0  0  0  0  0  0
   -2.1077    1.6551    5.1503 C   0  0  0  0  0  0  0  0  0  0  0  0
    1.4083    0.0203   -1.8390 O   0  0  0  0  0  0  0  0  0  0  0  0
   -1.4244    2.7616    4.5392 O   0  0  0  0  0  0  0  0  0  0  0  0
   -2.1650    0.5891    4.1857 O   0  0  0  0  0  0  0  0  0  0  0  0
    0.5976   -0.0009    0.2351 O   0  0  0  0  0  0  0  0  0  0  0  0
   -2.2316    0.3785   -0.4624 F   0  0  0  0  0  0  0  0  0  0  0  0
   -3.2915    4.7682   -2.7475 Cl  0  0  0  0  0  0  0  0  0  0  0  0
    1.0991    2.6592   -2.4731 H   0  0  0  0  0  0  0  0  0  0  0  0
    0.4590    3.8492    2.7530 H   0  0  0  0  0  0  0  0  0  0  0  0
    1.3119    2.4960    0.8144 H   0  0  0  0  0  0  0  0  0  0  0  0
   -0.4718    4.4623   -3.1782 H   0  0  0  0  0  0  0  0  0  0  0  0
   -1.1750   -0.8408    1.9606 H   0  0  0  0  0  0  0  0  0  0  0  0
   -3.7081    2.3250   -1.2720 H   0  0  0  0  0  0  0  0  0  0  0  0
   -1.5416    1.3174    6.0288 H   0  0  0  0  0  0  0  0  0  0  0  0
   -3.1230    1.9573    5.4144 H   0  0  0  0  0  0  0  0  0  0  0  0
  1  4  1  0  0  0  0
  1  7  2  0  0  0  0
  1 21  1  0  0  0  0
  2  3  2  0  0  0  0
  2  8  1  0  0  0  0
  2 22  1  0  0  0  0
  3 10  1  0  0  0  0
  3 23  1  0  0  0  0
  4 12  2  0  0  0  0
  4 24  1  0  0  0  0
  5  9  1  0  0  0  0
  5 10  2  0  0  0  0
  5 25  1  0  0  0  0
  6 11  2  0  0  0  0
  6 12  1  0  0  0  0
  6 26  1  0  0  0  0
  7 11  1  0  0  0  0
  7 13  1  0  0  0  0
  8  9  2  0  0  0  0
  8 16  1  0  0  0  0
  9 17  1  0  0  0  0
 10 18  1  0  0  0  0
 11 19  1  0  0  0  0
 12 20  1  0  0  0  0
 13 15  2  0  0  0  0
 13 18  1  0  0  0  0
 14 16  1  0  0  0  0
 14 17  1  0  0  0  0
 14 27  1  0  0  0  0
 14 28  1  0  0  0  0
M  END
$$$$
