38
0 1 C14H18N4OS
C                    -3.521484193054    -5.650922382953    -0.883518790108
C                    -0.403601230742     0.048693415813    -0.857171776470
C                    -0.728912069026    -0.645123768771     0.303339088283
C                    -4.452743393152    -3.649472422005    -0.657419608727
C                    -3.477205004195    -3.306362247855    -1.566201657546
C                    -2.040032377213    -1.253363282696    -1.403399674838
C                     0.672610487243     1.036607677488    -1.131550255454
C                    -0.246583445994    -0.654333478985     1.723115660060
C                     1.033768493584     1.493948012872     1.360806275236
C                     1.081176231029     0.080746494396     1.992446852100
C                    -5.481021768427    -2.733712033932    -0.055061423239
C                     2.272132422871    -0.726135550286     1.452586881782
C                     1.222048808496     0.252994417318     3.515400983511
C                    -3.148662263723    -1.954703922562    -2.139424499421
N                    -4.464816391294    -4.984923732119    -0.282375611371
N                    -1.229123246331    -0.352639555025    -1.901501377153
N                    -1.777591141249    -1.465265380363    -0.068304411026
N                     1.356954796494     1.560715926116    -0.056234101105
O                     0.979210873508     1.361399519931    -2.277781199092
S                    -2.524801253327    -4.714861804560    -1.962345479614
H                    -3.347650410700    -6.713083456433    -0.744759196076
H                    -1.026968555843    -0.205821174169     2.354251020857
H                    -0.145900237228    -1.694274613060     2.061398859613
H                     0.049205490016     1.940796753874     1.561280679911
H                     1.772431218936     2.121701767249     1.867214869110
H                    -6.488063457888    -3.050725579932    -0.345240154756
H                    -5.433077312996    -2.775226398867     1.038016199054
H                    -5.342480481162    -1.696749336745    -0.367229050099
H                     3.207424953461    -0.170126742531     1.578732134678
H                     2.163613999362    -0.954559819912     0.390208882687
H                     2.366975377935    -1.671681153921     1.998191176557
H                     2.200910890721     0.671956545921     3.772210408677
H                     1.125792124763    -0.709184257944     4.030379226595
H                     0.452300753260     0.924025887390     3.915043365455
H                    -2.851638725529    -2.024228737946    -3.188845753265
H                    -4.049953031234    -1.332336520135    -2.119786468544
H                    -2.232113094684    -2.155446434871     0.518472998177
H                     2.062370174967     2.226108256285    -0.347407273020
