19   
torsion grid (-165,)
C       -3.8421389281   -0.5320207180   -0.8186550787
C       -3.7906741107   -1.8969708000   -0.8730532312
C       -1.6335729439   -0.7388915098   -0.7507119211
C        0.6069383095    0.5146665418    1.1125721403
C        0.0730188508    1.1052779881   -0.2077145596
C       -0.1697124867   -0.3732378997   -0.6533781077
C        0.6234574175   -0.8479658657   -1.8706366612
N       -2.6231557225    0.1098730643   -0.7465865614
N        0.4394326717   -0.7744469848    0.6427062703
O        1.0148636907    0.9539712002    2.1664221894
S       -2.1394695324   -2.4236754249   -0.8474102138
H       -4.7526391359    0.0570979459   -0.8261310986
H       -4.6079814597   -2.6038823582   -0.9304680643
H       -0.8331136024    1.6994027794   -0.0958192394
H        0.8171270954    1.6422077560   -0.7994038393
H        1.6700598343   -0.5469863998   -1.7710771127
H        0.2111440513   -0.4137518127   -2.7865872568
H        0.5883496899   -1.9382528773   -1.9672394480
H        0.4272393492   -1.6610513596    1.1393528888
19   
torsion grid (-150,)
C       -3.9837175232   -0.5008007336   -1.1212751475
C       -4.0324384933   -1.8501350608   -0.9046564933
C       -1.8203030607   -0.8146945313   -0.7525711535
C        0.7089321844    0.1832559519    1.0369517273
C       -0.0154207531    0.9104971175   -0.1145341630
C       -0.3437975224   -0.5154398602   -0.6633456791
C        0.3757831680   -0.8926881188   -1.9614039199
N       -2.7317583593    0.0732324796   -1.0369041014
N        0.3002503179   -1.0496210765    0.5602021244
O        1.3940760275    0.5067902047    1.9834528504
S       -2.4395524240   -2.4495712885   -0.5736962121
H       -4.8415428758    0.1251580887   -1.3416110122
H       -4.8936012184   -2.5054002621   -0.9046409355
H       -0.8847497568    1.4962037260    0.1836435425
H        0.6427563411    1.5055459528   -0.7500973929
H        1.4363388977   -0.6316934628   -1.8932328139
H       -0.0686861436   -0.3600664460   -2.8071364197
H        0.2928406411   -1.9671139801   -2.1567022412
H        0.6411563473   -1.9813738401    0.7797322269
19   
torsion grid (-135,)
C       -3.9367992323   -0.6904098019   -1.3128518236
C       -3.9490214055   -1.9334433444   -0.7410499813
C       -1.8118910322   -0.7493110356   -0.6898833712
C        0.6391382189    0.4553697059    1.0904187396
C       -0.1401354230    1.1129668536   -0.0668907512
C       -0.3630996528   -0.3425170829   -0.5937007511
C        0.3822052361   -0.6823313826   -1.8874755987
N       -2.7248390127   -0.0326632199   -1.2849175112
N        0.3102958265   -0.8134984691    0.6384133890
O        1.3114266489    0.8393865061    2.0227233399
S       -2.3748284101   -2.3095739860   -0.1194447899
H       -4.7953554581   -0.2050332134   -1.7641795682
H       -4.7787075483   -2.6193788313   -0.6313088992
H       -1.0469174677    1.6429404283    0.2254009744
H        0.4743592248    1.7434516598   -0.7119183102
H        1.4242064571   -0.3539166396   -1.8204764615
H       -0.0959909891   -0.1845949766   -2.7353404392
H        0.3662652596   -1.7615803291   -2.0731872663
H        0.7684360715   -1.6995374709    0.8336701593
19   
torsion grid (-120,)
C       -3.8962357089   -0.7987982278   -1.4458979813
C       -3.9630089615   -1.8983394269   -0.6333576193
C       -1.8110992984   -0.7488516092   -0.7043090277
C        0.6347708029    0.4105225723    1.1180120820
C       -0.1537251330    1.1080654714   -0.0097091477
C       -0.3678561092   -0.3298881153   -0.5918897426
C        0.3824890074   -0.6122673357   -1.8956806130
N       -2.6742047813   -0.1617677323   -1.4865773840
N        0.3036392588   -0.8434261444    0.6228272574
O        1.3146346164    0.7605580516    2.0577283648
S       -2.4326874609   -2.1528557790    0.1405287552
H       -4.7192827521   -0.4099381120   -2.0357704263
H       -4.8106364502   -2.5413264786   -0.4358077072
H       -1.0624780242    1.6190076323    0.3106636259
H        0.4512448119    1.7695097321   -0.6322641381
H        1.4185490712   -0.2677914398   -1.8178429423
H       -0.1071762978   -0.0964711222   -2.7253380745
H        0.3850146644   -1.6852454634   -2.1153558001
H        0.7858886058   -1.7264617481    0.7683546311
19   
torsion grid (-105,)
C       -3.8706820906   -0.8833262966   -1.5263970959
C       -3.9994759337   -1.8057650387   -0.5231459452
C       -1.8089574272   -0.7537461174   -0.7330626176
C        0.6297328824    0.3412442053    1.1294309907
C       -0.1586429091    1.0841141647    0.0317964806
C       -0.3676569693   -0.3304888373   -0.6144035394
C        0.3807200844   -0.5510605987   -1.9293682936
N       -2.6270558168   -0.2998603196   -1.6421618605
N        0.3043578073   -0.8907599823    0.5791860817
O        1.3046440946    0.6533428222    2.0857323645
S       -2.5034439839   -1.9521771384    0.3408085655
H       -4.6601593857   -0.5939022935   -2.2116964695
H       -4.8721010447   -2.3823322593   -0.2454291941
H       -1.0681158411    1.5803976194    0.3733611662
H        0.4467691686    1.7720168308   -0.5611740959
H        1.4131070656   -0.1988751200   -1.8397532125
H       -0.1181107288   -0.0088562251   -2.7359099239
H        0.3932752159   -1.6140553062   -2.1921186167
H        0.7838601213   -1.7804649757    0.6898310302
19   
torsion grid (-90,)
C       -3.8206885764   -0.9642136209   -1.6039318022
C       -4.0206386299   -1.6899796944   -0.4607982280
C       -1.7746862970   -0.7924615476   -0.7779116244
C        0.6669060151    0.2001593379    1.1352465212
C       -0.1224616186    1.0044767993    0.0828339821
C       -0.3340926558   -0.3725716814   -0.6458632093
C        0.4157878485   -0.5183593627   -1.9685350697
N       -2.5470412380   -0.4652195142   -1.7770260805
N        0.3361815458   -0.9965247792    0.5179102076
O        1.3424549546    0.4573881571    2.1074181525
S       -2.5547490850   -1.7568806693    0.4627512359
H       -4.5755490722   -0.7683226318   -2.3579223888
H       -4.9250417320   -2.1789577043   -0.1229602993
H       -1.0311720221    1.4786487059    0.4569616879
H        0.4792765723    1.7269616883   -0.4716291308
H        1.4446875096   -0.1624788248   -1.8581060836
H       -0.0864327840    0.0584234131   -2.7481230693
H        0.4372537157   -1.5661036645   -2.2852037720
H        0.7955496618   -1.9007686255    0.5900705107
19   
torsion grid (-75,)
C       -3.7958021871   -1.1051785610   -1.6516563157
C       -4.0602716323   -1.5840686911   -0.3973870816
C       -1.7780789368   -0.8101127192   -0.7870735658
C        0.6552166810    0.1812617000    1.1427740565
C       -0.1593428201    1.0022341304    0.1227743941
C       -0.3489727962   -0.3546880265   -0.6536838452
C        0.4004942038   -0.4367466263   -1.9812194368
N       -2.5039738120   -0.6705950629   -1.8621031654
N        0.3446156251   -0.9973759396    0.4877335597
O        1.3279236796    0.4217219888    2.1214901599
S       -2.6337330542   -1.5001002747    0.5841844515
H       -4.5127861996   -1.0548831511   -2.4640736175
H       -4.9882926912   -1.9861688101   -0.0122079912
H       -1.0751138711    1.4383184967    0.5249809359
H        0.4160418324    1.7596747302   -0.4126431600
H        1.4251532715   -0.0758079057   -1.8515545363
H       -0.1048902152    0.1669788949   -2.7377205037
H        0.4319930698   -1.4689011188   -2.3434364590
H        0.7820328036   -1.9129038231    0.5530074945
19   
torsion grid (-60,)
C       -3.7601749662   -1.2782063694   -1.7278017994
C       -4.1113430911   -1.4953896080   -0.4235863648
C       -1.7938747178   -0.8220415324   -0.8114504051
C        0.6564405409    0.1227672237    1.1251772949
C       -0.1718159714    0.9787515318    0.1458134522
C       -0.3693431501   -0.3469934564   -0.6828343497
C        0.3613588132   -0.3706294952   -2.0226334697
N       -2.4518110151   -0.8956274178   -1.9360478329
N        0.3533479593   -1.0260058555    0.4215605475
O        1.3276131214    0.3294131576    2.1130384113
S       -2.7489675673   -1.2215842809    0.6117706976
H       -4.4229605377   -1.3910026615   -2.5789352776
H       -5.0674686458   -1.8103209846   -0.0261347077
H       -1.0811648537    1.3999167045    0.5768524578
H        0.3961108596    1.7566954096   -0.3680005905
H        1.3909062930   -0.0278663132   -1.8835890884
H       -0.1425928638    0.2769778239   -2.7429957866
H        0.3760068141   -1.3816915715   -2.4393601157
H        0.7573926828   -1.9577153484    0.4691980589
19   
torsion grid (-45,)
C       -3.5547333656   -1.8978349781   -1.6086995724
C       -4.2655687305   -1.1462056119   -0.7137953282
C       -1.8439185674   -0.7951268545   -0.7252786801
C        0.2579218245    0.9799431278    1.0375781303
C       -0.2200520194    1.2336102299   -0.4073351263
C       -0.4263400813   -0.3236402576   -0.5064120282
C        0.5526152261   -1.0331159228   -1.4379781564
N       -2.1920922901   -1.6902056478   -1.6093191543
N       -0.0321391757   -0.3629890018    0.9265239055
O        0.7187849878    1.6530555978    1.9347872852
S       -3.1942789056   -0.1266853629    0.1872762276
H       -3.9826510141   -2.6226856809   -2.2926600959
H       -5.3322969579   -1.1438098150   -0.5310750359
H       -1.1246972889    1.8382613508   -0.4839193615
H        0.5500204109    1.6296625254   -1.0721561303
H        1.5667167269   -0.6739366847   -1.2396642817
H        0.2979442695   -0.8378829920   -2.4822374718
H        0.5207652510   -2.1150975192   -1.2872202576
H        0.1940374613   -1.1479181670    1.5314727732
19   
torsion grid (-30,)
C       -3.5338808889   -2.0204539158   -1.4585640125
C       -4.2788872478   -1.0752016510   -0.8081030311
C       -1.8529919986   -0.7446502173   -0.7691962398
C        0.2683775512    0.9068000950    1.0878162832
C       -0.1960511076    1.2456860538   -0.3452984754
C       -0.4297316151   -0.2958155589   -0.5288021616
C        0.5378537748   -0.9725316199   -1.4971970445
N       -2.1704778670   -1.8246262215   -1.4313994147
N       -0.0317909083   -0.4239874494    0.8986312869
O        0.7268136538    1.5246399313    2.0253957007
S       -3.2387349349    0.1257882805   -0.1214702580
H       -3.9375672325   -2.8826031702   -1.9782469161
H       -5.3542581032   -1.0178787519   -0.7008886855
H       -1.0830220329    1.8792929156   -0.3938105739
H        0.5865292727    1.6601308823   -0.9836436587
H        1.5573075380   -0.6364672975   -1.2860812301
H        0.2835406162   -0.7206968839   -2.5302455661
H        0.4903406041   -2.0593143195   -1.3995338501
H        0.1657012917   -1.2456964945    1.4630579494
19   
torsion grid (-15,)
C       -3.4782234216   -2.1106808687   -1.3160350944
C       -4.2427503658   -1.0383101835   -0.9443882719
C       -1.8176859619   -0.7049419501   -0.8745409653
C        0.2193815519    0.9275825986    1.0231079700
C       -0.1811996698    1.2933654814   -0.4235188101
C       -0.3952684677   -0.2420330035   -0.6499760169
C        0.5569399268   -0.8873384177   -1.6546527658
N       -2.1161324417   -1.9131281572   -1.2727233685
N        0.0280069473   -0.4104848737    0.7649659231
O        0.5668514848    1.5382464585    2.0119831116
S       -3.2209385096    0.2918043904   -0.5184833648
H       -3.8671666077   -3.0713398052   -1.6358465538
H       -5.3212064354   -0.9558698986   -0.9091222886
H       -1.0649531659    1.9294572271   -0.4946120644
H        0.6267137518    1.7240550343   -1.0180312555
H        1.5812655970   -0.5655947788   -1.4457237867
H        0.2901037841   -0.5927524390   -2.6739952112
H        0.5019366496   -1.9762799009   -1.5943914991
H        0.0690392212   -1.2335232173    1.3591739011
19   
torsion grid (0,)
C       -3.5059673784   -2.1613137031   -1.0283611386
C       -4.2441232578   -1.0172461047   -0.8874508837
C       -1.8137560220   -0.7471902626   -0.7795951859
C        0.2939099018    0.7608160996    1.1092562154
C       -0.1374832662    1.2108491433   -0.3049179202
C       -0.3776310601   -0.3058565272   -0.6054472416
C        0.5086830293   -0.9066035056   -1.6955652710
N       -2.1403319008   -1.9988258611   -0.9671509619
N        0.1143067226   -0.5622749592    0.7722658116
O        0.6468413986    1.3143987145    2.1291828566
S       -3.1888694022    0.3360875216   -0.6630943781
H       -3.9185076823   -3.1523543278   -1.1836809895
H       -5.3193851239   -0.8980488004   -0.9107296908
H       -1.0136674750    1.8613071241   -0.3109364961
H        0.6588947643    1.6651530281   -0.8972688620
H        1.5503999286   -0.6208194215   -1.5233187133
H        0.1971554528   -0.5438359062   -2.6801257663
H        0.4295276702   -1.9961195324   -1.6945559501
H        0.0985552919   -1.4090086358    1.3334975296
19   
torsion grid (15,)
C       -3.4882152981   -2.1061984413   -0.8455416997
C       -4.1915484277   -0.9366336932   -0.9526659582
C       -1.7628269066   -0.7149857441   -0.7589723827
C        0.3950715609    0.6947636921    1.1028430480
C       -0.0514327599    1.2058702260   -0.2858963067
C       -0.3155715328   -0.2953692879   -0.6350219822
C        0.5070906557   -0.8657098761   -1.7901872787
N       -2.1221244687   -1.9713263895   -0.7399420113
N        0.2354628292   -0.6163201558    0.7051367773
O        0.7391170187    1.2048805429    2.1477654859
S       -3.1002495288    0.4069267867   -0.9131019235
H       -3.9280925685   -3.0976231270   -0.8400860467
H       -5.2598706903   -0.7951102013   -1.0501540002
H       -0.9191414494    1.8666145229   -0.2511965272
H        0.7427543500    1.6711471030   -0.8727543890
H        1.5604187296   -0.5992753261   -1.6632383062
H        0.1505587853   -0.4660529312   -2.7449984525
H        0.4142359041   -1.9543177714   -1.8194539112
H        0.1497831491   -1.4701288523    1.2494637017
19   
torsion grid (30,)
C       -3.5044745430   -2.0953366293   -0.6840106419
C       -4.1740380438   -0.9607899608   -1.0551332297
C       -1.7613392148   -0.7252523588   -0.7316343630
C        0.4312750186    0.6228266489    1.1155558425
C       -0.0477773307    1.1835955115   -0.2434088008
C       -0.3125076179   -0.3069037371   -0.6359987057
C        0.4734053035   -0.8332916653   -1.8381887053
N       -2.1454713069   -1.9534461001   -0.5078654452
N        0.2806536952   -0.6755757900    0.6703525145
O        0.7862672585    1.0956600653    2.1740165279
S       -3.0603429048    0.3602155682   -1.1835088746
H       -3.9646395417   -3.0643335095   -0.5238559846
H       -5.2308787008   -0.8302187226   -1.2471290354
H       -0.9224832035    1.8310625246   -0.1631597012
H        0.7291706303    1.6770481009   -0.8303839106
H        1.5284471602   -0.5606709913   -1.7419830766
H        0.0794212706   -0.4106552159   -2.7681052506
H        0.3914204762   -1.9222363765   -1.8949763205
H        0.1685018563   -1.5395836152    1.1935400425
19   
torsion grid (45,)
C       -3.5242671730   -2.0455151929   -0.5421079786
C       -4.1422421506   -1.0005848914   -1.1726125708
C       -1.7546689572   -0.7211702329   -0.7237572691
C        0.4516210463    0.5693781472    1.1322746885
C       -0.0512707364    1.1782938120   -0.1962415320
C       -0.3069430603   -0.3007836333   -0.6390872115
C        0.4642197344   -0.7735953641   -1.8740121980
N       -2.1776822337   -1.8795757291   -0.2955706292
N        0.3119913473   -0.7150747623    0.6394232179
O        0.8127641563    1.0045100528    2.2044851653
S       -2.9957763211    0.2653223730   -1.4722320142
H       -4.0141188016   -2.9617680386   -0.2310856712
H       -5.1806897455   -0.9017194487   -1.4602261740
H       -0.9385429963    1.8023325201   -0.0767886034
H        0.7068632338    1.7088533605   -0.7755795669
H        1.5175248579   -0.4926057948   -1.7839771883
H        0.0520279837   -0.3228768242   -2.7824590501
H        0.3961920672   -1.8612476182   -1.9693683174
H        0.1623962784   -1.5846122672    1.1441406884
19   
torsion grid (60,)
C       -3.5654557818   -1.9728480915   -0.3782276915
C       -4.1263139377   -1.0713273912   -1.2394579291
C       -1.7539162079   -0.7447816120   -0.7389583132
C        0.4445098254    0.4758682160    1.1336027010
C       -0.0628849590    1.1394461933   -0.1649099125
C       -0.3055080904   -0.3238564794   -0.6705641325
C        0.4509587122   -0.7310953748   -1.9371042823
N       -2.2265431288   -1.7818872506   -0.1035160902
N        0.3362377391   -0.7892919349    0.5787392656
O        0.7861015520    0.8636436984    2.2297173507
S       -2.9332319511    0.0849833412   -1.7392281324
H       -4.0918937490   -2.7978744215    0.0889432218
H       -5.1477911211   -1.0165122311   -1.5923974270
H       -0.9586356063    1.7462316394   -0.0226946643
H        0.6897518442    1.7017963379   -0.7215797049
H        1.5038515167   -0.4502647598   -1.8443790733
H        0.0287427947   -0.2378072113   -2.8183076840
H        0.3884166071   -1.8131491140   -2.0875859506
H        0.1405963893   -1.6624740843    1.0618128008
19   
torsion grid (75,)
C       -3.5985315112   -1.8425915391   -0.2093341224
C       -4.0963616292   -1.1479314017   -1.2757766787
C       -1.7377007418   -0.7608057277   -0.7474684405
C        0.4639716085    0.4252605704    1.1297356010
C       -0.0760900313    1.1246919759   -0.1340709464
C       -0.2925972142   -0.3268630315   -0.6925160278
C        0.4578139014   -0.6619130218   -1.9825132751
N       -2.2674711231   -1.6190173956    0.0804154411
N        0.3776299012   -0.8227152332    0.5298315277
O        0.8128101841    0.7789415673    2.2347609969
S       -2.8486488214   -0.1611072874   -1.9688450035
H       -4.1662923976   -2.5343131608    0.4031914147
H       -5.0984002921   -1.1593596556   -1.6842961301
H       -0.9863292066    1.7004882542    0.0410171765
H        0.6530191986    1.7269002720   -0.6807299654
H        1.5060300494   -0.3671054872   -1.8838548782
H        0.0238050421   -0.1338781354   -2.8376297114
H        0.4138098000   -1.7361693664   -2.1865513284
H        0.1774105652   -1.7030572032    0.9979629929
19   
torsion grid (90,)
C       -3.6423385734   -1.6943674202   -0.0977057667
C       -4.0665267398   -1.2472778294   -1.3178354823
C       -1.7254356629   -0.7938470024   -0.7600963286
C        0.4612363497    0.3539936983    1.1422838690
C       -0.1044654605    1.0914124074   -0.0866875405
C       -0.2853351778   -0.3423391259   -0.7085193097
C        0.4637298327   -0.5970254074   -2.0153288398
N       -2.3218438381   -1.4358900496    0.2071385555
N        0.4104230394   -0.8687682082    0.4879211318
O        0.8061860020    0.6683023444    2.2600616684
S       -2.7565989324   -0.4680187664   -2.1455456880
H       -4.2588004005   -2.2241629003    0.6202411102
H       -5.0462184925   -1.3355789000   -1.7690101359
H       -1.0301849426    1.6324267408    0.1150040564
H        0.6049282352    1.7361651383   -0.6106996006
H        1.5041011032   -0.2797416636   -1.9072214918
H        0.0159507611   -0.0379315865   -2.8435478970
H        0.4477622014   -1.6604841028   -2.2727115015
H        0.2364075323   -1.7691563687    0.9272427768
19   
torsion grid (105,)
C       -3.7070533479   -1.5449983099   -0.0436585275
C       -4.0468450306   -1.3695720269   -1.3570734486
C       -1.7380518403   -0.8148775207   -0.7594592892
C        0.4593341534    0.2755642117    1.1684924975
C       -0.1319250746    1.0516823857   -0.0236620743
C       -0.2991577469   -0.3588500317   -0.7037448930
C        0.4487891756   -0.5487827554   -2.0208041782
N       -2.4052936713   -1.2326055234    0.2823605298
N        0.4134546427   -0.9210190654    0.4677853516
O        0.8207466040    0.5510337059    2.2910268433
S       -2.6763393446   -0.7898032524   -2.2452068862
H       -4.3762179813   -1.9065914216    0.7295362335
H       -4.9970735350   -1.5531281917   -1.8413199951
H       -1.0649114244    1.5652107415    0.2118365062
H        0.5602642657    1.7295593081   -0.5284937518
H        1.4836149970   -0.2184386269   -1.9015733770
H       -0.0079762511    0.0381790298   -2.8246276474
H        0.4536106150   -1.6006312128   -2.3227318556
H        0.2752699256   -1.8437727367    0.8716061697
19   
torsion grid (120,)
C       -3.7446179923   -1.3834071852   -0.0139950068
C       -4.0163945705   -1.4887702044   -1.3516524356
C       -1.7400251104   -0.8040753681   -0.7662463309
C        0.5140221363    0.2214479836    1.1494142144
C       -0.1155214330    1.0331413551    0.0009679604
C       -0.2983674155   -0.3525789325   -0.7232171486
C        0.4291044660   -0.4959726901   -2.0571494608
N       -2.4623080600   -0.9994913044    0.3045127293
N        0.4407693415   -0.9524621667    0.4147508676
O        0.9178832407    0.4622376059    2.2652300470
S       -2.6015936562   -1.0967969073   -2.2695388566
H       -4.4549145014   -1.5785744293    0.7821647011
H       -4.9416348561   -1.7753705390   -1.8341823311
H       -1.0438314438    1.5300626324    0.2838138780
H        0.5586603084    1.7312749165   -0.5003752169
H        1.4637568496   -0.1642013654   -1.9418923253
H       -0.0431129458    0.1145525148   -2.8338058028
H        0.4399406341   -1.5374981596   -2.3937508664
H        0.3445940982   -1.8952587477    0.7825907152
19   
torsion grid (135,)
C       -3.7865052103   -1.2370399173   -0.0202562104
C       -3.9837543751   -1.6159085747   -1.3215301817
C       -1.7488693708   -0.7796709958   -0.7692227516
C        0.5363775080    0.1759350022    1.1475537279
C       -0.1073657115    1.0256492641    0.0355863684
C       -0.3049980959   -0.3313087550   -0.7333499343
C        0.4035643683   -0.4335920687   -2.0802994503
N       -2.5281145906   -0.7712880509    0.2792462584
N        0.4527647517   -0.9724748868    0.3745651819
O        0.9551754806    0.3773883688    2.2658789188
S       -2.5261399817   -1.3847539994   -2.2252397601
H       -4.5379056174   -1.2807834518    0.7607496402
H       -4.8805236514   -2.0063122846   -1.7845485410
H       -1.0298535771    1.5144629221    0.3479668779
H        0.5634009953    1.7362892410   -0.4525531761
H        1.4394536136   -0.1041304279   -1.9699284673
H       -0.0828268117    0.1974517656   -2.8310548751
H        0.4157390160   -1.4647688904   -2.4484974133
H        0.3790998761   -1.9310908395    0.7052240968
19   
torsion grid (150,)
C       -3.8501336262   -1.1154742540   -0.0477215025
C       -3.9645341402   -1.7457939992   -1.2580081410
C       -1.7733720801   -0.7719537929   -0.7519836292
C        0.5806154105    0.0869119222    1.1621393970
C       -0.0962809994    0.9808516986    0.1044692865
C       -0.3245056475   -0.3394224070   -0.7125053688
C        0.3655918393   -0.3956072258   -2.0727237705
N       -2.6165089445   -0.5731558851    0.2255974208
N        0.4429290037   -1.0313387394    0.3577272658
O        1.0533377314    0.2449048906    2.2664545578
S       -2.4585228978   -1.6614411516   -2.1060341424
H       -4.6480649665   -1.0174792390    0.6804074425
H       -4.8292292238   -2.2342038580   -1.6878562862
H       -1.0070109813    1.4568577599    0.4659477096
H        0.5617425698    1.7077204292   -0.3766611682
H        1.4051983006   -0.0767948318   -1.9648492869
H       -0.1311061675    0.2633269728   -2.7915946649
H        0.3696250322   -1.4123661117   -2.4801378871
H        0.4268680255   -2.0111814716    0.6275930750
19   
torsion grid (165,)
C       -3.9625230287   -0.7141236562   -0.4723241204
C       -3.9278785957   -1.9134863467   -1.1308640608
C       -1.7735487195   -0.7816787894   -0.8331396009
C        0.4157332057    0.6063081864    0.9806153522
C       -0.0798929633    1.1056780778   -0.3909714218
C       -0.3118650539   -0.4030600677   -0.7426589923
C        0.5228537441   -0.9466539759   -1.8994499582
N       -2.7479629720   -0.0880198076   -0.3101564571
N        0.2699194096   -0.7130081771    0.5919415914
O        0.7881155845    1.1176265076    2.0145316820
S       -2.2987045697   -2.2862649946   -1.5818148777
H       -4.8599400602   -0.2413677484   -0.0882669492
H       -4.7490462026   -2.5725115002   -1.3807543246
H       -0.9887903410    1.7025621738   -0.3286967152
H        0.6769073268    1.6038040747   -1.0004635669
H        1.5631149351   -0.6345046268   -1.7769101272
H        0.1501495884   -0.5712446452   -2.8573254649
H        0.5054380829   -2.0415796967   -1.9296223568
H        0.1997863896   -1.5549359722    1.1570684876
19   
torsion grid (180,)
C       -3.9864417910   -0.6478235039   -0.6091482382
C       -3.9197665684   -1.9597102829   -0.9899833128
C       -1.7809314295   -0.7719159302   -0.8274296465
C        0.4250383689    0.5607781444    0.9978363926
C       -0.0896867476    1.1060892644   -0.3487443239
C       -0.3203108439   -0.3878379836   -0.7504893756
C        0.4866672835   -0.8916752472   -1.9448966813
N       -2.7788168133    0.0092691209   -0.5178762980
N        0.2885330962   -0.7454204136    0.5614862999
O        0.8006868242    1.0360006213    2.0478278349
S       -2.2689920948   -2.4081209116   -1.2630088815
H       -4.9015526722   -0.1106652161   -0.3849805907
H       -4.7281231336   -2.6646213449   -1.1340222803
H       -0.9992990119    1.6985981126   -0.2608785968
H        0.6600995420    1.6263540460   -0.9482817726
H        1.5296956744   -0.5811115882   -1.8411161719
H        0.0843457884   -0.4871301495   -2.8787156809
H        0.4662897592   -1.9848161908   -2.0112309815
H        0.2265326410   -1.6063598948    1.0985363075
