18   
torsion grid (-165,)
C        0.6574152976   -1.4961929126   -3.1172453988
C       -1.6045278861    0.6224254056   -0.8972257412
C       -0.7653793246   -0.2368685138    0.0373940132
C       -0.9201107812   -0.6089593040   -1.4217763124
C        1.2555596828   -3.8703669911   -3.1070201764
N        0.1749456283   -0.4321186298   -2.3518828035
N        0.5692135097   -2.7317570988   -2.5057731706
O        1.1275849358   -1.3284037650   -4.2416313984
H       -2.6853710678    0.6026591005   -0.8003460661
H       -1.1917409369    1.5862280644   -1.1827718947
H        0.1996466139    0.1598259651    0.3375372366
H       -1.2738656592   -0.8401746260    0.7844534800
H       -1.5677547714   -1.4539896374   -1.6469321302
H        0.8977003857   -4.7885696346   -2.6340613066
H        1.0205363654   -3.9034006654   -4.1713305538
H        2.3460263882   -3.8080457629   -3.0001534473
H        0.0894044154    0.3845234181   -2.9476737587
H        0.5012800594   -2.7237276511   -1.4953314634
18   
torsion grid (-150,)
C        0.7135102729   -1.5439205772   -3.0615808445
C       -1.6631295240    0.5637064175   -0.9966405860
C       -0.7796269834   -0.0687150375    0.0712623655
C       -0.8326944882   -0.6481889369   -1.3236030486
C        1.1880491052   -3.9380396366   -3.2176869777
N        0.2825654366   -0.5052027771   -2.2379199259
N        0.5642732924   -2.8122311826   -2.5284985614
O        1.1984638599   -1.3322703714   -4.1726657322
H       -2.7400727830    0.4453257479   -0.9277137277
H       -1.3410120627    1.5197007633   -1.4018550551
H        0.1262218150    0.4651142265    0.3425411833
H       -1.2541133183   -0.6146863027    0.8821746464
H       -1.3821484837   -1.5761376709   -1.4546761826
H        0.8012840434   -4.8686092681   -2.7941527726
H        0.9276237391   -3.8935130457   -4.2755420991
H        2.2823503915   -3.9280410964   -3.1355696986
H        0.2831153085    0.3567752942   -2.7722707203
H        0.5431237743   -2.8649708154   -1.5174360331
18   
torsion grid (-135,)
C        0.9294629562   -1.6248572839   -2.7502727087
C       -1.9299124586    0.0898645012   -1.0497713142
C       -0.7739667990    0.7155691128   -0.2997423381
C       -0.5633486852   -0.5693722085   -1.0633471794
C        0.7735953733   -4.0198245513   -3.2285521959
N        0.2598494545   -0.5051073502   -2.2553085308
N        0.2754962948   -2.8268414743   -2.5511399217
O        2.0129891635   -1.5318808487   -3.3259415521
H       -2.7279124663   -0.3765831743   -0.4781366858
H       -2.2421135172    0.5675597142   -1.9734801457
H       -0.3409075378    1.6214456374   -0.7163538427
H       -0.7667394075    0.6730480086    0.7850542287
H       -0.4268311974   -1.4693076067   -0.4700634469
H        0.5741358201   -4.0051175579   -4.3076745838
H        1.8525025254   -4.0828754600   -3.0843177474
H        0.3021635865   -4.9009125498   -2.7853606376
H        0.8933753818    0.2864887482   -2.2832985411
H       -0.7273405298   -2.7684166956   -2.4227978463
18   
torsion grid (-120,)
C        0.9953206701   -1.5819287919   -2.6951626925
C       -1.8984633567   -0.0827401471   -1.0709296258
C       -0.8769540725    0.7729435988   -0.3580070807
C       -0.4500495326   -0.5339782347   -0.9781391619
C        0.6652534627   -3.9364670521   -3.2833182390
N        0.3966044615   -0.4432900419   -2.1481313243
N        0.2649044959   -2.7437381481   -2.5451388183
O        2.0823997581   -1.5332921899   -3.2689303444
H       -2.6425786983   -0.6047908141   -0.4753134995
H       -2.2361314611    0.2523215567   -2.0468004931
H       -0.5579826651    1.6859499609   -0.8530888447
H       -0.9105786659    0.8331250158    0.7252852906
H       -0.2183621859   -1.3489353504   -0.2951282955
H        0.4414311396   -3.8619660923   -4.3551981807
H        1.7406250931   -4.0773589620   -3.1702297730
H        0.1458370617   -4.8026860535   -2.8652572366
H        1.0888606586    0.2973867055   -2.1049115531
H       -0.7244717120   -2.6288130784   -2.3619050217
18   
torsion grid (-105,)
C        1.0551120913   -1.6397593260   -2.6620940085
C       -1.8119272771   -0.2612185055   -1.1395536231
C       -0.9270453918    0.7646970578   -0.4699027701
C       -0.3320085550   -0.5422135406   -0.9289060293
C        0.5417178634   -3.9487514370   -3.3041397379
N        0.5529049946   -0.4795339996   -2.0655891693
N        0.2537259009   -2.7529743115   -2.5214928684
O        2.1267770109   -1.6464831363   -3.2666034379
H       -2.5300464357   -0.8011963447   -0.5285814499
H       -2.1255187459   -0.0571968126   -2.1587433100
H       -0.6727902001    1.6520855444   -1.0418742139
H       -1.0334079518    0.9242609557    0.5984421920
H       -0.0689229949   -1.2624995073   -0.1547043771
H        0.2497821736   -3.8418992149   -4.3568675371
H        1.6138369335   -4.1441660104   -3.2671399029
H        0.0084281922   -4.7969125332   -2.8667592428
H        1.2924626044    0.2117112087   -1.9956832362
H       -0.7110132413   -2.5872648562   -2.2631892328
18   
torsion grid (-90,)
C        1.0700884937   -1.6575398176   -2.6149064226
C       -1.7471811213   -0.3837249575   -1.1585312946
C       -0.9868930833    0.7723555679   -0.5490595294
C       -0.2631717627   -0.5150193304   -0.8518187791
C        0.4100213601   -3.9088494889   -3.3247797361
N        0.6648096611   -0.5005952526   -1.9483340301
N        0.2254489234   -2.7376904302   -2.4769600015
O        2.1099030202   -1.6907228143   -3.2731291748
H       -2.4488702822   -0.9281587747   -0.5329061080
H       -2.0238470389   -0.2959240327   -2.2048495304
H       -0.7724756516    1.6198541768   -1.1926642382
H       -1.1646188910    1.0187520168    0.4929834427
H        0.0027759830   -1.1404186750    0.0012263917
H        0.0459728978   -3.7482013391   -4.3479282911
H        1.4737912052   -4.1427372366   -3.3754217000
H       -0.1219019399   -4.7555483139   -2.8827628119
H        1.4288626403    0.1627429914   -1.8829899211
H       -0.7078092982   -2.5495827651   -2.1346980337
18   
torsion grid (-75,)
C        1.1089612287   -1.6703036080   -2.5327336850
C       -1.6875952760   -0.4651083589   -1.1775512954
C       -1.0270155849    0.7815278552   -0.6311638715
C       -0.2238690928   -0.4874886983   -0.7650334981
C        0.3663320178   -3.8693107325   -3.3230825193
N        0.7782747124   -0.5449129420   -1.7860938166
N        0.2487908309   -2.7396054181   -2.4106066612
O        2.1167536969   -1.6932024289   -3.2413330230
H       -2.4022192544   -0.9893410702   -0.5495401288
H       -1.9022131100   -0.4790978548   -2.2418148436
H       -0.8109066526    1.5764948645   -1.3378889621
H       -1.2872530635    1.1110129922    0.3698656928
H       -0.0007927549   -1.0193061582    0.1613631279
H       -0.0680551150   -3.6601412090   -4.3095697244
H        1.4224868778   -4.1033251984   -3.4593672997
H       -0.1386510230   -4.7347660469   -2.8855252787
H        1.5335101710    0.1287357191   -1.7517652303
H       -0.6523683771   -2.5672985210   -1.9864746805
18   
torsion grid (-60,)
C        1.1228041152   -1.6947994011   -2.4945527392
C       -1.6330158630   -0.5074015100   -1.2050915962
C       -1.0052461184    0.7752240067   -0.7063895348
C       -0.1974270986   -0.4992728425   -0.7005130747
C        0.3261352903   -3.8539680373   -3.3451744570
N        0.8778232941   -0.6361257331   -1.6331494632
N        0.2824152677   -2.7785434976   -2.3641500395
O        2.0622208723   -1.6631803940   -3.2926642805
H       -2.3867201359   -0.9888397414   -0.5886122377
H       -1.7824262496   -0.5955173891   -2.2767111875
H       -0.7442003113    1.5196325218   -1.4522603990
H       -1.3253811075    1.1745691876    0.2509821212
H       -0.0408461652   -0.9601560688    0.2757195084
H       -0.2076416637   -3.6018568535   -4.2711226699
H        1.3670947448   -4.0580388418   -3.5974157523
H       -0.1191614533   -4.7525817076   -2.9094523363
H        1.5608494222    0.1060884067   -1.7095984225
H       -0.5683341588   -2.6541047364   -1.8335543693
18   
torsion grid (-45,)
C        0.9850672686   -1.4353036272   -2.5697368458
C       -1.8715164048   -0.5199970489   -1.4647277348
C       -1.3543742945    0.7284239841   -0.7881719894
C       -0.5340493956   -0.5415239215   -0.7466954168
C        0.4892821897   -3.5417391714   -3.7168760644
N        0.6896171531   -0.6107741963   -1.4926501004
N        0.1189184260   -2.4874525014   -2.7809586301
O        1.9694081864   -1.2247917700   -3.2814986926
H       -2.6983247401   -1.0534990553   -1.0048526120
H       -1.8498926845   -0.5470224647   -2.5484849783
H       -0.9929387042    1.5254863081   -1.4309554142
H       -1.8224444736    1.0580282761    0.1345107853
H       -0.5199979650   -1.0613646685    0.2118121004
H       -0.4012599499   -4.1264478673   -3.9624476724
H        0.8789615180   -3.0860745706   -4.6276681707
H        1.2603535893   -4.2108393455   -3.3132032659
H        1.3255027594    0.1748887193   -1.4349329548
H       -0.5052130123   -2.7330184391   -2.0247694700
18   
torsion grid (-30,)
C        0.9921563644   -1.4340362980   -2.5008064755
C       -1.8418364648   -0.5686541520   -1.4290066665
C       -1.3372644040    0.7484348085   -0.8834482846
C       -0.5254769121   -0.5134708191   -0.6799646250
C        0.4818865015   -3.4737312551   -3.7544037616
N        0.7340871963   -0.6819167217   -1.3578290839
N        0.1319302430   -2.4841696952   -2.7424699306
O        1.9517117959   -1.1742996838   -3.2294292953
H       -2.6792422192   -1.0506590759   -0.9329464111
H       -1.8006577250   -0.7108042495   -2.5027489838
H       -0.9555339447    1.4643500775   -1.6053537644
H       -1.8253308393    1.1837902552   -0.0164443326
H       -0.5471612261   -0.9232270007    0.3294788261
H       -0.4036576557   -4.0716924781   -3.9855537413
H        0.8089446628   -2.9574244063   -4.6575123305
H        1.2926515857   -4.1386471623   -3.4296521519
H        1.3711158047    0.1050690427   -1.3097500970
H       -0.4394933806   -2.7941583619   -1.9680873172
18   
torsion grid (-15,)
C        1.0119406994   -1.4196241333   -2.4325318892
C       -1.8218828357   -0.6066010366   -1.3539790059
C       -1.3092809855    0.7693840489   -0.9835754752
C       -0.5075323837   -0.4634055451   -0.6188490674
C        0.4956612254   -3.3828339572   -3.7969088085
N        0.7679732499   -0.7369188776   -1.2403720370
N        0.1469236156   -2.4531497727   -2.7281709851
O        1.9714463575   -1.1267248591   -3.1479164424
H       -2.6590753818   -1.0173198755   -0.7971955817
H       -1.7915391033   -0.8775833136   -2.4025571789
H       -0.9231338871    1.3798385675   -1.7945592714
H       -1.7948285048    1.3189611446   -0.1822866425
H       -0.5387265971   -0.7425637308    0.4332036655
H       -0.3810450512   -3.9908617678   -4.0351736723
H        0.7863529118   -2.8151948711   -4.6814831943
H        1.3308138002   -4.0413227433   -3.5257073764
H        1.4373500235    0.0213775740   -1.1585826795
H       -0.3860773674   -2.8245009930   -1.9527753594
18   
torsion grid (0,)
C        1.0077109110   -1.4283480734   -2.3806054177
C       -1.8375480775   -0.6627470777   -1.2798790392
C       -1.3047810628    0.7468360279   -1.1047052877
C       -0.5157556989   -0.4380389617   -0.5850405187
C        0.4855532860   -3.3077887410   -3.8548207108
N        0.7660802916   -0.8148404614   -1.1472036705
N        0.1417584263   -2.4447943254   -2.7294759702
O        1.9693386354   -1.1020610803   -3.0777966551
H       -2.6710024668   -0.9842317621   -0.6620822447
H       -1.8309600944   -1.0639234718   -2.2860409693
H       -0.9205492915    1.2338947032   -1.9962230126
H       -1.7768482137    1.4083938371   -0.3838275438
H       -0.5418512063   -0.5766000129    0.4938906221
H       -0.3871439768   -3.9129484422   -4.1141029641
H        0.7551116185   -2.6871743997   -4.7100376317
H        1.3332735941   -3.9687817098   -3.6338425069
H        1.4656092970   -0.0882096725   -1.0264589459
H       -0.3634626043   -2.8723367155   -1.9641703668
18   
torsion grid (15,)
C        1.0320574626   -1.4271372028   -2.3275477757
C       -1.8461959613   -0.7196214458   -1.1992045568
C       -1.2963306545    0.6975989650   -1.2275532477
C       -0.5118031308   -0.4159572788   -0.5659012124
C        0.5138227788   -3.2044331678   -3.9223766523
N        0.7711778779   -0.8845195592   -1.0619801239
N        0.1595483989   -2.4113060084   -2.7487568623
O        2.0116180886   -1.0766998602   -2.9859209861
H       -2.6696495761   -0.9441639821   -0.5274217118
H       -1.8711387647   -1.2418244995   -2.1476640972
H       -0.9267348357    1.0513337657   -2.1857529905
H       -1.7509868869    1.4584077842   -0.5991853854
H       -0.5229914686   -0.4112463432    0.5214723187
H       -0.3509757969   -3.8062326218   -4.2136322975
H        0.7719197265   -2.5329082657   -4.7419576876
H        1.3717720590   -3.8637339690   -3.7401756992
H        1.4982184727   -0.1964417368   -0.8848121384
H       -0.3294837947   -2.8963960607   -2.0072184832
18   
torsion grid (30,)
C        1.0462821786   -1.4763763845   -2.2659157174
C       -1.8534596681   -0.7529190879   -1.0957808607
C       -1.2645816648    0.6271729434   -1.3600069120
C       -0.4929005043   -0.3959713898   -0.5563131632
C        0.4831610189   -3.1425365243   -3.9613907985
N        0.7718349727   -0.9798732271   -0.9812952226
N        0.1432542683   -2.4032056513   -2.7485258679
O        2.0540115170   -1.1390416177   -2.8863069690
H       -2.6605229320   -0.8459940755   -0.3746990816
H       -1.9315676153   -1.4041924162   -1.9574232678
H       -0.9201459259    0.8131092585   -2.3733372663
H       -1.6788773951    1.4918722298   -0.8490308868
H       -0.4733141054   -0.2283650287    0.5173603992
H       -0.3941391007   -3.7088402598   -4.2843307367
H        0.7579822426   -2.4357722280   -4.7452057671
H        1.3259474266   -3.8287700846   -3.8118017920
H        1.5336734982   -0.3445498038   -0.7571271565
H       -0.3570299224   -2.9175122519   -2.0347034845
18   
torsion grid (45,)
C        0.2136139038   -1.2857332416   -3.0846100988
C       -0.5653865983    0.4916286317   -0.4956121749
C       -0.7587582945   -0.9501361500   -0.0594289948
C       -1.4170420204   -0.4509424306   -1.3219271940
C        1.9785618674   -2.9591637451   -2.8458200152
N       -1.0632449914   -0.8698103911   -2.6721225702
N        0.7690722218   -2.3114061662   -2.3462452222
O        0.7644721879   -0.7970274519   -4.0706386306
H       -1.0521518854    1.2875059553    0.0614244993
H        0.4101323782    0.7450795965   -0.9007713891
H        0.1125420037   -1.5891078949   -0.1306457733
H       -1.4091929284   -1.1544656828    0.7863609056
H       -2.4920378771   -0.3130391869   -1.2460973111
H        1.7961394148   -3.5414771012   -3.7575983478
H        2.7229000930   -2.1959754688   -3.0757236508
H        2.3720312533   -3.6173667092   -2.0669212205
H       -1.3495378969   -0.1533998002   -3.3349742334
H        0.0994593270   -2.9073509794   -1.8765383587
18   
torsion grid (60,)
C        0.2779896673   -1.2550192981   -3.0758806913
C       -0.7086600514    0.5621467726   -0.4688857950
C       -0.6473003066   -0.8999478171   -0.0817684981
C       -1.4072492920   -0.4829299410   -1.3198209007
C        1.9338714098   -3.0417993801   -2.8803878673
N       -0.9796941900   -0.7834004934   -2.6761979636
N        0.7696321143   -2.3296888120   -2.3615744737
O        0.8688325603   -0.7671907187   -4.0397073495
H       -1.3155997049    1.2441451194    0.1203753359
H        0.1978052336    0.9944300077   -0.8828521934
H        0.3103733261   -1.3922325539   -0.1969782337
H       -1.2380211662   -1.2367228467    0.7653904596
H       -2.4896718885   -0.5260758895   -1.2297324444
H        1.7114571908   -3.5948265020   -3.8016153107
H        2.7231040279   -2.3221446129   -3.1005835132
H        2.2892652467   -3.7378311028   -2.1161166692
H       -1.2156175614   -0.0203713749   -3.3051459645
H        0.0688775573   -2.8900214482   -1.8932049783
18   
torsion grid (75,)
C        0.3479638226   -1.2788558459   -3.0619790488
C       -0.8299501154    0.6039666903   -0.4620466115
C       -0.5578943450   -0.8363962524   -0.0994532760
C       -1.3733621324   -0.5151176884   -1.3339743860
C        1.8719724119   -3.1797119677   -2.8494428257
N       -0.8751714685   -0.7200890895   -2.6795824668
N        0.7597038180   -2.3825698769   -2.3432261499
O        0.9831946492   -0.8291178215   -4.0168680647
H       -1.5318226055    1.1782550511    0.1362986907
H        0.0024674079    1.1716693718   -0.8674675392
H        0.4557188614   -1.1948718458   -0.2307725957
H       -1.0909762475   -1.2676380630    0.7430471998
H       -2.4402526731   -0.7091406485   -1.2485006293
H        1.6062076236   -3.7477917200   -3.7500584079
H        2.6999533154   -2.5160306734   -3.1007963695
H        2.1943347871   -3.8720156099   -2.0672045382
H       -1.0465292262    0.0804063610   -3.2808376868
H        0.0331478110   -2.8773313968   -1.8422203691
18   
torsion grid (90,)
C        0.4087349915   -1.2543299345   -3.0566028088
C       -0.9526232387    0.6148763119   -0.4185167784
C       -0.4743906236   -0.7767118799   -0.0951762529
C       -1.3278943620   -0.5427653033   -1.3278096058
C        1.8188601065   -3.2446116141   -2.8672378652
N       -0.7693623066   -0.6243626186   -2.6572022272
N        0.7675521321   -2.3796944071   -2.3434599745
O        1.0601858757   -0.8348911498   -4.0148199750
H       -1.7350757137    1.0598390422    0.1897306366
H       -0.2155050457    1.3136176297   -0.8029830396
H        0.5772713286   -0.9916398644   -0.2422820136
H       -0.9375099302   -1.3035984277    0.7342002944
H       -2.3582449093   -0.8872612417   -1.2595459366
H        1.4972685635   -3.8092053515   -3.7518427052
H        2.6751982904   -2.6316636884   -3.1503195663
H        2.1235946809   -3.9436593335   -2.0839074438
H       -0.9032011301    0.2084341482   -3.2209073409
H        0.0334598132   -2.8221572130   -1.8063218574
18   
torsion grid (105,)
C        0.5121248193   -1.2905843463   -3.0482442017
C       -1.0494634409    0.5773438467   -0.4070178532
C       -0.4051591570   -0.7443379016   -0.0797172443
C       -1.2406901945   -0.6031601140   -1.3407067646
C        1.8039621428   -3.3597277645   -2.8448009091
N       -0.6108842702   -0.5828705573   -2.6340094075
N        0.8180225578   -2.4220558348   -2.3207011747
O        1.1739858617   -0.9207378115   -4.0200509183
H       -1.9047481044    0.9058236582    0.1762142625
H       -0.3976123272    1.3727645498   -0.7558082911
H        0.6688836333   -0.8237844163   -0.2026821823
H       -0.8191696625   -1.3368961824    0.7311100858
H       -2.2229249456   -1.0739445200   -1.3160635990
H        1.4191750981   -3.9472177419   -3.6885350848
H        2.6747110090   -2.8015878472   -3.1901231330
H        2.1088791803   -4.0377429363   -2.0431972592
H       -0.7181404201    0.2665585186   -3.1758236697
H        0.0857156425   -2.7998884525   -1.7347011675
18   
torsion grid (120,)
C        0.5448526975   -1.2627190957   -3.0773108598
C       -1.1534010762    0.5769144312   -0.3929840858
C       -0.3955042426   -0.6818049850   -0.0577125047
C       -1.1882810771   -0.5947978865   -1.3524668234
C        1.7379513181   -3.3952936802   -2.8931022517
N       -0.4926059500   -0.4763687718   -2.5992844274
N        0.8317261820   -2.3948677816   -2.3441585322
O        1.1667425699   -0.9475968463   -4.0942807254
H       -2.0605416150    0.8046943753    0.1586755802
H       -0.5723517940    1.4413574562   -0.6995844433
H        0.6853307275   -0.6568612460   -0.1425977933
H       -0.7824984353   -1.3247907404    0.7276919436
H       -2.1215248506   -1.1581691474   -1.3838221206
H        1.2698304838   -4.0000280016   -3.6807976949
H        2.6039323328   -2.8907640305   -3.3226979530
H        2.0713695404   -4.0531054042   -2.0859547084
H       -0.6363545432    0.3546198669   -3.1586440875
H        0.1414945987   -2.7046780208   -1.6741804993
18   
torsion grid (135,)
C        0.5083954266   -1.6753754394   -3.2284753098
C       -1.1979827289    0.5908876615   -0.7986757617
C       -0.6392092946   -0.7190757395   -0.3018215839
C       -1.2050414828   -0.6130281568   -1.7125308659
C        1.4105392323   -3.8853103438   -2.6661428577
N       -0.2964060153   -0.6222860499   -2.8167522282
N        0.4447003332   -2.8150451821   -2.4564869770
O        1.2080610716   -1.5851416730   -4.2394109437
H       -2.1511968965    0.9325521305   -0.4071982033
H       -0.4858537454    1.3764109936   -1.0311598773
H        0.4400872369   -0.7868644809   -0.2057572015
H       -1.2079528301   -1.2797403423    0.4345578422
H       -2.1712893428   -1.0925186064   -1.8748057397
H        1.0199256809   -4.8078859365   -2.2281962465
H        1.5491791633   -4.0299473920   -3.7379153620
H        2.3894171287   -3.6626788215   -2.2211836567
H       -0.3290213139    0.1338639358   -3.4883914744
H        0.0134516850   -2.7399527657   -1.5457125352
18   
torsion grid (150,)
C        0.5193730314   -1.5822332365   -3.2101747025
C       -1.3069824712    0.6244560474   -0.7456712792
C       -0.6703633753   -0.6376787393   -0.2107857010
C       -1.1541507576   -0.5719643684   -1.6516204633
C        1.3603279502   -3.8393471708   -2.7611367000
N       -0.1744954382   -0.4892916513   -2.6954445374
N        0.4701960465   -2.7287068639   -2.4476206259
O        1.1249864785   -1.5096768357   -4.2801166018
H       -2.3077878332    0.8815545460   -0.4131582494
H       -0.6511880382    1.4688675428   -0.9328692291
H        0.4032424826   -0.6164162145   -0.0498393577
H       -1.2365387002   -1.2446799921    0.4899697120
H       -2.0628449014   -1.1312755127   -1.8791439701
H        0.9886945596   -4.7418592814   -2.2686628459
H        1.3626448360   -3.9968578896   -3.8401149495
H        2.3936412788   -3.6531044240   -2.4404439019
H       -0.2993459359    0.2349722703   -3.3930291615
H        0.1525498917   -2.6360586339   -1.4921441599
18   
torsion grid (165,)
C        0.5909309790   -1.5851989580   -3.1898200922
C       -1.3915957805    0.6101081253   -0.7945072313
C       -0.6775442735   -0.5549437039   -0.1384523043
C       -1.0541378678   -0.6104456612   -1.6085170613
C        1.3417673325   -3.8916803227   -2.8415041579
N       -0.0176563930   -0.4765050266   -2.5970914089
N        0.5312493681   -2.7455283951   -2.4485942543
O        1.1388102493   -1.5107096433   -4.2893509798
H       -2.4350710219    0.7827331494   -0.5510542403
H       -0.8073893611    1.5060982322   -0.9804030561
H        0.3749317773   -0.4200373621    0.0917464479
H       -1.2340380757   -1.1760562682    0.5577403144
H       -1.8861553565   -1.2647365623   -1.8713408502
H        0.9642265792   -4.7838312086   -2.3349816184
H        1.2570196158   -4.0309666176   -3.9196915195
H        2.4034485864   -3.7588932284   -2.5963031683
H       -0.1574564615    0.2558735282   -3.2847730430
H        0.3010811811   -2.6499607737   -1.4677741131
18   
torsion grid (180,)
C        0.6234141737   -1.5794865483   -3.1687784878
C       -1.4846338922    0.6130075566   -0.8618499882
C       -0.7039893208   -0.4142371005   -0.0598597541
C       -0.9768890057   -0.6314144123   -1.5356046469
C        1.2856869400   -3.9302775906   -2.9606528140
N        0.0901300572   -0.4775131766   -2.4949411113
N        0.5548043135   -2.7674506004   -2.4717192608
O        1.1168027603   -1.4782894022   -4.2914225485
H       -2.5537893724    0.7006600409   -0.6973634551
H       -0.9793369721    1.5463544403   -1.0926420058
H        0.3146123301   -0.1563514885    0.2132211424
H       -1.2413863557   -1.0256977885    0.6596494274
H       -1.7256731772   -1.3815749642   -1.7886105886
H        0.9041054925   -4.8251300475   -2.4619871089
H        1.1222764508   -4.0236778016   -4.0347323100
H        2.3662820304   -3.8512236340   -2.7850502601
H       -0.0347672343    0.2871820009   -3.1499936212
H        0.4070855738   -2.6984280189   -1.4725282529
