28   
torsion grid (-165,)
C       -1.0010015132    0.2118287429    0.5402129833
C       -2.0396302679   -0.7082084943    0.6294308738
C       -1.7699213280    1.4355262597    2.4875607173
C       -3.9210830754    0.3917740588    3.5397783522
C       -2.8362239938    0.5224997061    2.6150649206
C       -0.8489422558    1.2874536992    1.4548561269
C       -2.9575376645   -0.5476266435    1.6762135027
C       -4.6570472801   -0.7109895662    3.1426356906
C       -5.7902550201   -1.3931293031    3.7610288489
C        1.2621235912    2.2203799190    2.5028610245
C       -0.1735472849    3.6908008105    1.0145016770
C        0.3130968057    2.2569841664    1.2914868242
N       -4.0699724695   -1.2805110101    2.0216211549
O       -6.1773456580   -2.5078626279    3.4361605316
O       -6.3601084431   -0.6813981349    4.7689513786
H       -0.2746080381    0.1053761168   -0.2623571157
H       -2.1304020755   -1.5207722293   -0.0866884228
H       -1.6750217896    2.2519652706    3.1996065221
H       -4.1485600471    1.0223521704    4.3887318972
H        0.7551071927    2.5618180087    3.4120713201
H        2.1266996414    2.8733588115    2.3380677806
H        1.6276763292    1.2050615983    2.6868288623
H       -0.7347033898    4.0890808032    1.8670029124
H       -0.8306350496    3.7220366522    0.1395112597
H        0.6750801751    4.3598505141    0.8322194309
H        0.8865388371    1.9303575875    0.4154626985
H       -4.3990187729   -2.1404531880    1.6024578134
H       -7.0697830145   -1.2475309158    5.1272725849
28   
torsion grid (-150,)
C       -0.6999332307    0.0095185489    0.8813537857
C       -1.6912431470   -0.9569878852    1.0122958300
C       -1.8384014417    1.5392471196    2.3795494369
C       -4.0728030991    0.5522984345    3.3072398149
C       -2.8615010669    0.5841398067    2.5439191402
C       -0.7547129420    1.2597214999    1.5518999814
C       -2.7726712375   -0.6621969676    1.8529925258
C       -4.6811444851   -0.6639057185    3.0512514945
C       -5.8041164099   -1.3321249041    3.7081743490
C        1.0897471488    2.5923158463    2.6714498371
C       -0.1444940581    3.5574505829    0.6755408173
C        0.3645266408    2.2718493276    1.3522161067
N       -3.8895480310   -1.3993160098    2.1790938784
O       -5.9340280864   -2.5466164540    3.7764425581
O       -6.6651689286   -0.4662848463    4.3045127456
H        0.1526537150   -0.1987611212    0.2388693508
H       -1.6227365800   -1.9044372759    0.4840676190
H       -1.9038455119    2.4908706606    2.9017572091
H       -4.4643780638    1.3210228830    3.9599322081
H        0.4161906661    3.0800372843    3.3846879577
H        1.9339952911    3.2684543119    2.4951717401
H        1.4711733114    1.6811058016    3.1431880979
H       -0.8676282267    4.0786049228    1.3125742254
H       -0.6391167838    3.3333504470   -0.2749800884
H        0.6844852785    4.2467049845    0.4785784597
H        1.0982075734    1.8142818220    0.6774693713
H       -4.0604121957   -2.3743866443    1.9705114771
H       -7.3201033122   -1.0193271181    4.7716122098
28   
torsion grid (-135,)
C       -0.7009583547    0.0218578546    0.8679729463
C       -1.6965814688   -0.9419152145    0.9896989955
C       -1.8380524095    1.5448640694    2.3740585466
C       -4.0776426791    0.5582786723    3.2905585927
C       -2.8640310420    0.5919742423    2.5294374360
C       -0.7529025047    1.2670110208    1.5469996835
C       -2.7770977946   -0.6493663558    1.8316105636
C       -4.6936232300   -0.6508100147    3.0216017870
C       -5.7700664078   -1.3410635300    3.7408607051
C        1.0919665949    2.5866592626    2.6811108832
C       -0.1318435951    3.5678787966    0.6865587613
C        0.3703740796    2.2765890270    1.3574257504
N       -3.8971164968   -1.3860438413    2.1525627705
O       -5.7641536915   -2.5341689055    4.0049162969
O       -6.7379464878   -0.4953753269    4.1813817910
H        0.1526383770   -0.1854658659    0.2265568636
H       -1.6304010237   -1.8859859710    0.4550922607
H       -1.9016304669    2.4933918006    2.9021076499
H       -4.4660276731    1.3233787240    3.9495674034
H        0.4176305140    3.0724934180    3.3949007283
H        1.9392436357    3.2608252020    2.5119035721
H        1.4684358736    1.6712668982    3.1487164562
H       -0.8556362441    4.0876229524    1.3240041531
H       -0.6237000909    3.3510207872   -0.2670752789
H        0.7001287833    4.2555421686    0.4967238786
H        1.1049246168    1.8205154938    0.6826089801
H       -4.0521444131   -2.3656565510    1.9546578960
H       -7.3360935627   -1.0350137994    4.7333322112
28   
torsion grid (-120,)
C       -0.7151781037    0.0216151163    0.8549782262
C       -1.7152371963   -0.9386517112    0.9729577094
C       -1.8409945882    1.5390799251    2.3743092057
C       -4.0827726549    0.5567262017    3.2907137968
C       -2.8696511654    0.5892889483    2.5266623332
C       -0.7590146245    1.2619570861    1.5420353027
C       -2.7899383295   -0.6471174164    1.8218013918
C       -4.7088460880   -0.6439034560    3.0121562655
C       -5.7521896849   -1.3441304811    3.7827651232
C        1.0949269260    2.5666179964    2.6789868794
C       -0.1309639229    3.5660182376    0.6948305168
C        0.3678433425    2.2682167289    1.3556291572
N       -3.9141598528   -1.3808368880    2.1414141290
O       -5.6274578489   -2.4655044028    4.2472463792
O       -6.8299254239   -0.5583056632    4.0392425918
H        0.1355514826   -0.1856100861    0.2097803730
H       -1.6552633205   -1.8792366648    0.4313831152
H       -1.8992486970    2.4847896357    2.9080299630
H       -4.4646073003    1.3205317955    3.9552505414
H        0.4248325826    3.0504118640    3.3981427012
H        1.9444393765    3.2384537789    2.5115718127
H        1.4690800888    1.6466058730    3.1393250841
H       -0.8505497000    4.0846707039    1.3379058690
H       -0.6267402787    3.3574299598   -0.2586232742
H        0.7033106937    4.2514276623    0.5068284460
H        1.0983514492    1.8135959365    0.6754535626
H       -4.0627962790   -2.3609245179    1.9428552725
H       -7.3950086133   -1.0653627761    4.6542106457
28   
torsion grid (-105,)
C       -0.7231367756    0.0369779383    0.8359965575
C       -1.7261770771   -0.9205580738    0.9594320556
C       -1.8235426252    1.5398726982    2.3887236803
C       -4.0580961635    0.5560277729    3.3260631608
C       -2.8524760021    0.5925936357    2.5464756358
C       -0.7538529574    1.2685311658    1.5373638971
C       -2.7858606624   -0.6346786611    1.8274792329
C       -4.6915314248   -0.6365998267    3.0422416533
C       -5.7436586378   -1.3296088715    3.8250252824
C        1.1168822536    2.5597771028    2.6626370559
C       -0.1324997825    3.5790095717    0.7034381327
C        0.3724384999    2.2744711630    1.3460920108
N       -3.9104747510   -1.3684471706    2.1554798684
O       -5.5533300659   -2.3220956683    4.5044456372
O       -6.9268736615   -0.6648142030    3.8121245581
H        0.1170933084   -0.1664087327    0.1760133619
H       -1.6778145334   -1.8555548994    0.4069615811
H       -1.8704321150    2.4800719223    2.9332011737
H       -4.4270825094    1.3152279527    4.0031825592
H        0.4569276147    3.0381592106    3.3946741338
H        1.9654202889    3.2316943487    2.4904927770
H        1.4951217184    1.6349807671    3.1098596078
H       -0.8431535960    4.0928154748    1.3602041773
H       -0.6407065480    3.3796314938   -0.2454449271
H        0.7003809254    4.2649286771    0.5109730239
H        1.0934039196    1.8248565403    0.6525089868
H       -4.0701993012   -2.3394503392    1.9257041446
H       -7.5101572371   -1.1313822888    4.4430645288
28   
torsion grid (-90,)
C       -0.7444742132    0.0607252797    0.8374209649
C       -1.7336960585   -0.9052346416    1.0088970405
C       -1.7663285563    1.5368862122    2.4681212171
C       -3.9463968824    0.5322987263    3.5148993481
C       -2.7807880564    0.5843524651    2.6704796252
C       -0.7440587243    1.2824178716    1.5535517307
C       -2.7480035003   -0.6308186405    1.9310963659
C       -4.5678472028   -0.6674626079    3.2654309178
C       -5.7607159077   -1.2733504470    3.9280699259
C        1.1870748310    2.5600068983    2.5883463184
C       -0.1828369984    3.6127692071    0.7303768423
C        0.3644797667    2.2977257223    1.3141371820
N       -3.8532475089   -1.3764938438    2.3108030263
O       -5.7207146701   -2.0011825508    4.8993643450
O       -6.9226065567   -0.9124862478    3.3266966750
H        0.0568507955   -0.1294307193    0.1270940971
H       -1.7108767299   -1.8345301687    0.4449973748
H       -1.7849193469    2.4690986279    3.0279131491
H       -4.2856665459    1.2839482904    4.2153676139
H        0.5710419670    3.0193644851    3.3692186205
H        2.0208115882    3.2398949260    2.3788321561
H        1.5956857676    1.6281403799    2.9920909064
H       -0.8525136013    4.1109230508    1.4401317761
H       -0.7486855445    3.4301643910   -0.1888038972
H        0.6346248052    4.3056569245    0.5002132244
H        1.0433696709    1.8655351371    0.5688938947
H       -4.0677151117   -2.3134671462    2.0006272352
H       -7.6415314163   -1.3388440240    3.8352787423
28   
torsion grid (-75,)
C       -0.8036069362    0.0620877522    0.8352163784
C       -1.7841585567   -0.9043532858    1.0434168914
C       -1.7413527723    1.5250717170    2.5271120115
C       -3.8724621088    0.5156321225    3.6605230086
C       -2.7504937696    0.5735322628    2.7642087669
C       -0.7651966277    1.2774966842    1.5631307132
C       -2.7613609983   -0.6324322617    2.0070363949
C       -4.4942725121   -0.6959419879    3.4531362126
C       -5.8127172387   -1.1594626049    3.9537394972
C        1.2275479667    2.5191307855    2.5198607741
C       -0.2275378875    3.6197638682    0.7564248782
C        0.3376389728    2.2891850232    1.2851512861
N       -3.8499396760   -1.3757692874    2.4269363366
O       -6.0629207864   -1.5071621941    5.0908504937
O       -6.7212553505   -1.2633275042    2.9413090171
H       -0.0379092837   -0.1213527172    0.0848955189
H       -1.7889714081   -1.8283004646    0.4705068676
H       -1.7279740450    2.4486939354    3.1010529521
H       -4.1833664849    1.2638546606    4.3777620453
H        0.6567165654    2.9672652192    3.3405817400
H        2.0552536282    3.1965595515    2.2807677635
H        1.6483550044    1.5761592613    2.8832837157
H       -0.8552081987    4.1091851954    1.5092999061
H       -0.8413619045    3.4602087185   -0.1358573525
H        0.5832217041    4.3105195797    0.4981190976
H        0.9730467017    1.8665932459    0.4972978619
H       -4.1406226553   -2.2668431388    2.0508180366
H       -7.5323001871   -1.6323879449    3.3436135076
28   
torsion grid (-60,)
C       -0.8084519669    0.0997384435    0.8461472093
C       -1.7929683768   -0.8564539942    1.0763129306
C       -1.7082110015    1.5876519127    2.5372025696
C       -3.8328466681    0.6090384935    3.7041350721
C       -2.7234092962    0.6468704557    2.7962230274
C       -0.7486331217    1.3223318486    1.5629047541
C       -2.7557916668   -0.5675486241    2.0508901982
C       -4.4701558061   -0.6024414940    3.5213749219
C       -5.7970492383   -1.0163897193    4.0153416220
C        1.2829411450    2.5279653438    2.4791297813
C       -0.1932100279    3.6605614823    0.7537034446
C        0.3623986926    2.3186528389    1.2631899739
N       -3.8412277264   -1.2969635415    2.4934612529
O       -6.1430845202   -1.0740230122    5.1799801433
O       -6.5914302289   -1.4658358159    2.9955636818
H       -0.0548900092   -0.0964404152    0.0867651609
H       -1.8131525923   -1.7855348582    0.5122690774
H       -1.6787397832    2.5156622495    3.1033170191
H       -4.1301921314    1.3662591004    4.4176996928
H        0.7364029491    2.9788567120    3.3147582390
H        2.1149235999    3.1948688585    2.2258434449
H        1.6978855679    1.5767885731    2.8276086106
H       -0.7943764217    4.1574300032    1.5230974798
H       -0.8303978909    3.5154005565   -0.1245347016
H        0.6227226444    4.3387702666    0.4792256337
H        0.9731477560    1.8901227211    0.4592329695
H       -4.1779860712   -2.1641244984    2.0998263573
H       -7.4105835763   -1.7889650134    3.4189089624
28   
torsion grid (-45,)
C       -0.8177474317    0.1185554203    0.8287976840
C       -1.8103405920   -0.8311721014    1.0473268961
C       -1.7054802391    1.5987120525    2.5324049614
C       -3.8410054822    0.6292103140    3.6840235984
C       -2.7300182412    0.6640478120    2.7808979418
C       -0.7471520706    1.3343027021    1.5576639317
C       -2.7720170494   -0.5448482310    2.0246505693
C       -4.4920277480   -0.5742332643    3.4858610785
C       -5.8049885333   -0.9857441371    3.9977327604
C        1.2907044268    2.5195207966    2.4875252270
C       -0.1710166434    3.6721456038    0.7630318119
C        0.3728156920    2.3234500742    1.2674275713
N       -3.8623793058   -1.2692900375    2.4582058589
O       -6.2134313223   -0.8290932221    5.1336020022
O       -6.5124226696   -1.6903586588    3.0583767322
H       -0.0645879411   -0.0767187700    0.0687701379
H       -1.8376669114   -1.7542252359    0.4738622498
H       -1.6695325238    2.5212854532    3.1069458398
H       -4.1355833799    1.3813228355    4.4039429017
H        0.7450827171    2.9709134458    3.3234586866
H        2.1287701451    3.1809579764    2.2401284526
H        1.6970088841    1.5634740918    2.8328388727
H       -0.7716311050    4.1690424508    1.5328308318
H       -0.8057162562    3.5364943438   -0.1185194706
H        0.6509159311    4.3458500320    0.4955055594
H        0.9831429684    1.8945282426    0.4633656144
H       -4.2116734796   -2.1282118438    2.0569634932
H       -7.3278782475   -1.9862438726    3.5068392604
28   
torsion grid (-30,)
C       -0.8245870066    0.1327049475    0.8066688394
C       -1.8276552124   -0.8097968444    1.0053853807
C       -1.7175555667    1.6061570566    2.5134592384
C       -3.8732877681    0.6455673297    3.6338169285
C       -2.7530190466    0.6781149408    2.7435956156
C       -0.7511709183    1.3417667538    1.5472755837
C       -2.7963843934   -0.5251788198    1.9767672423
C       -4.5359995520   -0.5478609141    3.4122968075
C       -5.8264097227   -0.9786585888    3.9521460564
C        1.2873330893    2.5011807325    2.5079497697
C       -0.1459994059    3.6807774638    0.7779169236
C        0.3804993969    2.3232097647    1.2768822903
N       -3.8956642999   -1.2445542978    2.3924196007
O       -6.2991792291   -0.6495573706    5.0249284585
O       -6.4403302824   -1.8891651277    3.1298862157
H       -0.0645235056   -0.0625442217    0.0535229435
H       -1.8570157966   -1.7272359925    0.4231251369
H       -1.6805489846    2.5238402937    3.0956867680
H       -4.1698080451    1.3915954976    4.3590707934
H        0.7371005779    2.9507286639    3.3418470780
H        2.1337302140    3.1570542636    2.2745287976
H        1.6816317829    1.5388141310    2.8496221504
H       -0.7499287212    4.1769304771    1.5455860899
H       -0.7727953449    3.5580366029   -0.1111427304
H        0.6847157461    4.3490380287    0.5242585602
H        0.9953748317    1.8953815518    0.4757076831
H       -4.2366645556   -2.1097636426    1.9973515008
H       -7.2536441740   -2.1627862678    3.5952346207
28   
torsion grid (-15,)
C       -0.8086403153    0.1634302741    0.7797570467
C       -1.8221119714   -0.7710558673    0.9616047539
C       -1.6947665313    1.6260161077    2.4987789273
C       -3.8616800614    0.6727136355    3.6019875427
C       -2.7397010373    0.7049515500    2.7148569563
C       -0.7264831347    1.3635612253    1.5343947844
C       -2.7909281543   -0.4899120377    1.9342209053
C       -4.5400935035   -0.5068696299    3.3555527518
C       -5.7976102923   -0.9650500442    3.9413795454
C        1.3090230054    2.5098193912    2.5186642577
C       -0.1003401082    3.6997265580    0.7761189631
C        0.4140099668    2.3385241250    1.2781157924
N       -3.8986133342   -1.2030024195    2.3361192339
O       -6.3343547044   -0.5044211230    4.9328348158
O       -6.3142635512   -2.0376405151    3.2591661410
H       -0.0464290203   -0.0308935981    0.0285547217
H       -1.8580430906   -1.6809240706    0.3679430894
H       -1.6527008726    2.5372657787    3.0906465982
H       -4.1532050980    1.4104924733    4.3374827058
H        0.7536657320    2.9637663667    3.3467532883
H        2.1626036984    3.1594115646    2.2940882787
H        1.6926155698    1.5446343640    2.8645329995
H       -0.7086367165    4.1977971918    1.5390993446
H       -0.7197607855    3.5816017584   -0.1187171338
H        0.7362394735    4.3638215366    0.5309151812
H        1.0348193688    1.9087630799    0.4825773841
H       -4.2212572627   -2.0846441768    1.9624287069
H       -7.1254037227   -2.2938494820    3.7375559226
28   
torsion grid (0,)
C       -0.8299466614    0.1663319211    0.7682703482
C       -1.8566414335   -0.7560520722    0.9369779679
C       -1.7132206519    1.6328434570    2.4855727227
C       -3.9008764004    0.7017334685    3.5659929738
C       -2.7711896029    0.7237005636    2.6887439522
C       -0.7397393248    1.3622268588    1.5288393788
C       -2.8288875473   -0.4687338315    1.9044875475
C       -4.5963103966   -0.4641254982    3.3025077858
C       -5.8215475872   -0.9477717177    3.9326807285
C        1.3016816782    2.4778894898    2.5352893900
C       -0.0785509090    3.6943812453    0.7878224771
C        0.4147322805    2.3242540883    1.2866424272
N       -3.9466101840   -1.1715978276    2.2961139271
O       -6.4421193628   -0.3834282189    4.8158514400
O       -6.2192232552   -2.1531916170    3.4113037671
H       -0.0632385863   -0.0345089890    0.0233636758
H       -1.8985072350   -1.6628200052    0.3389809051
H       -1.6660772151    2.5417973456    3.0805781384
H       -4.1879457463    1.4379146530    4.3047633612
H        0.7446877157    2.9326894693    3.3618080828
H        2.1641214870    3.1194167231    2.3216443616
H        1.6718643164    1.5063701570    2.8780406753
H       -0.6877326873    4.1955338318    1.5480627413
H       -0.6911398737    3.5888419497   -0.1132638259
H        0.7682059927    4.3496339417    0.5540553832
H        1.0365406728    1.8908985209    0.4938360922
H       -4.2616996291   -2.0615221714    1.9357437959
H       -7.0354459978   -2.3958458128    3.8879314097
28   
torsion grid (15,)
C       -0.8298958494    0.1820325574    0.7530001441
C       -1.8649564574   -0.7334963077    0.9076343012
C       -1.7142369791    1.6430708982    2.4742523475
C       -3.9174283417    0.7216338502    3.5317260257
C       -2.7807043896    0.7409146129    2.6631867880
C       -0.7357442569    1.3716428217    1.5227427928
C       -2.8400671048   -0.4468154843    1.8723098769
C       -4.6235535791   -0.4336225568    3.2503713062
C       -5.8116298673   -0.9527623038    3.9237502833
C        1.3064550988    2.4655408346    2.5513116248
C       -0.0516809864    3.7034876263    0.8015710111
C        0.4275939454    2.3265506980    1.2952532339
N       -3.9626883781   -1.1467868216    2.2553859155
O       -6.5321583814   -0.3307618138    4.6834941221
O       -6.0693715831   -2.2526803152    3.5679722092
H       -0.0591924801   -0.0197529236    0.0125056142
H       -1.9094888302   -1.6358172847    0.3031357308
H       -1.6651587942    2.5481691123    3.0749527106
H       -4.2018013388    1.4531433130    4.2762282088
H        0.7473019616    2.9207415108    3.3761593544
H        2.1760717539    3.1005967142    2.3476452264
H        1.6655191368    1.4889295703    2.8914133682
H       -0.6614978092    4.2050278192    1.5610482783
H       -0.6595526471    3.6081559841   -0.1038325029
H        0.8016983315    4.3532950899    0.5768456746
H        1.0520011220    1.8936014782    0.5042721043
H       -4.2736041911   -2.0387302644    1.8964937528
H       -6.8905883784   -2.5000353647    4.0336614183
28   
torsion grid (30,)
C       -0.8725752228    0.1746394380    0.7463549121
C       -1.9201763328   -0.7287677577    0.8889113524
C       -1.7451942916    1.6302312614    2.4788124664
C       -3.9605429101    0.7219727971    3.5239758398
C       -2.8219330085    0.7384177377    2.6568851731
C       -0.7670038848    1.3554663959    1.5275200060
C       -2.8926502778   -0.4408664384    1.8555691626
C       -4.6860728189   -0.4163113538    3.2232427841
C       -5.8386837978   -0.9680596108    3.9368528296
C        1.2768009434    2.4321626614    2.5729514271
C       -0.0571303088    3.6806782834    0.8120614796
C        0.4067283690    2.2999907868    1.3101580562
N       -4.0254341817   -1.1308322129    2.2289716453
O       -6.6632272258   -0.3301813472    4.5660738579
O       -5.9458321625   -2.3234082382    3.7536082998
H       -0.1016621753   -0.0301265416    0.0068887728
H       -1.9743906359   -1.6243874125    0.2753097031
H       -1.6877343329    2.5299595162    3.0868320429
H       -4.2351151673    1.4487350156    4.2769042017
H        0.7150952381    2.8914293952    3.3937875505
H        2.1525645910    3.0608547523    2.3760144017
H        1.6261362203    1.4528586223    2.9154308535
H       -0.6712613092    4.1861904837    1.5654108184
H       -0.6562867042    3.5900595733   -0.0996183987
H        0.8032794814    4.3242787851    0.5963815855
H        1.0337440172    1.8614827042    0.5243142338
H       -4.3190149511   -2.0376663319    1.8936988562
H       -6.7672670215   -2.5898981985    4.2087176394
28   
torsion grid (45,)
C       -0.8938067137    0.1850583790    0.7331083534
C       -1.9557893410   -0.7037617710    0.8641497840
C       -1.7585146388    1.6450209684    2.4657360584
C       -3.9938169397    0.7631085451    3.4915529983
C       -2.8480504274    0.7674107015    2.6322814830
C       -0.7771306023    1.3603676878    1.5200695765
C       -2.9290166365   -0.4072886229    1.8269057016
C       -4.7373305722   -0.3591526578    3.1767657565
C       -5.8680253094   -0.9306435526    3.9184862669
C        1.2733660577    2.4044804572    2.5851173971
C       -0.0309205534    3.6789884890    0.8206030931
C        0.4107747903    2.2898883277    1.3154943079
N       -4.0742677536   -1.0835490937    2.1912542317
O       -6.8039992770   -0.3109464045    4.3891158950
O       -5.8175623982   -2.3005043296    3.9348721124
H       -0.1205105713   -0.0278968950   -0.0015253403
H       -2.0186687841   -1.5956156271    0.2458627906
H       -1.6932043222    2.5418293659    3.0772917925
H       -4.2604690839    1.4907198493    4.2466766074
H        0.7118490204    2.8671954372    3.4041579852
H        2.1588177526    3.0224152283    2.3976282466
H        1.6071358242    1.4189573992    2.9252935110
H       -0.6436601884    4.1892115221    1.5719137840
H       -0.6247351598    3.6005612342   -0.0956853184
H        0.8395148457    4.3120354268    0.6140754349
H        1.0374746322    1.8465687652    0.5321011545
H       -4.3632489279   -1.9954134796    1.8660743341
H       -6.6388411096   -2.5912763902    4.3759928385
28   
torsion grid (60,)
C       -0.9128803448    0.1910899583    0.7147245882
C       -1.9836668909   -0.6893907213    0.8360948122
C       -1.7691340185    1.6407823986    2.4606689321
C       -4.0162771017    0.7696784924    3.4731181412
C       -2.8659488490    0.7716326306    2.6167690879
C       -0.7879949721    1.3565688136    1.5135501580
C       -2.9540031146   -0.3939081024    1.8012050950
C       -4.7699219911   -0.3396922043    3.1436232448
C       -5.8940720263   -0.9315945437    3.8932518876
C        1.2653229245    2.3803365582    2.5935896557
C       -0.0234571393    3.6740737471    0.8317228590
C        0.4071371807    2.2790876815    1.3199110652
N       -4.1066021895   -1.0643819583    2.1590666202
O       -6.9383456870   -0.3764329359    4.1773874069
O       -5.6850907443   -2.2616519917    4.1387346988
H       -0.1403402778   -0.0217401417   -0.0207270432
H       -2.0538050898   -1.5746219698    0.2090444016
H       -1.6973533275    2.5316489117    3.0801536574
H       -4.2766820233    1.4944650225    4.2332807122
H        0.7039148437    2.8423635225    3.4131011341
H        2.1558993775    2.9930309840    2.4132271259
H        1.5906605686    1.3905007732    2.9293929788
H       -0.6365161431    4.1832878730    1.5834830394
H       -0.6136884493    3.6049989769   -0.0876305862
H        0.8517901068    4.3030233855    0.6330396022
H        1.0340741127    1.8363553475    0.5363689373
H       -4.4004607335   -1.9691876527    1.8195118051
H       -6.5032358478   -2.5856790627    4.5633422832
28   
torsion grid (75,)
C       -0.9223190281    0.1661440642    0.6858442415
C       -1.9803628005   -0.7322820824    0.7963622312
C       -1.8075910764    1.5831526727    2.4438586065
C       -4.0482829249    0.6699309342    3.4391295913
C       -2.8911127830    0.6969019698    2.5872013803
C       -0.8182293573    1.3239407006    1.4965417514
C       -2.9571563811   -0.4606651301    1.7604847126
C       -4.7772259239   -0.4476296669    3.0966823146
C       -5.9288328766   -1.0575535831    3.8077012631
C        1.2282555699    2.3420872294    2.5926115690
C       -0.0809580478    3.6673688997    0.8698358778
C        0.3653169751    2.2647847817    1.3203004765
N       -4.1012830731   -1.1552337720    2.1103682952
O       -7.0651544654   -0.6275461661    3.8273480676
O       -5.5910820876   -2.2552188218    4.3669569986
H       -0.1450150312   -0.0275135823   -0.0498331142
H       -2.0349477325   -1.6125774868    0.1607295534
H       -1.7504830211    2.4684244486    3.0729046709
H       -4.3216287467    1.3852184227    4.2037063572
H        0.6646993719    2.7753016210    3.4263107949
H        2.1111599187    2.9695147524    2.4252454573
H        1.5660684403    1.3473653034    2.9005348452
H       -0.6940036389    4.1525712670    1.6373062724
H       -0.6758329565    3.6157421618   -0.0476658248
H        0.7874211617    4.3090967258    0.6820175990
H        0.9931699101    1.8487826499    0.5229404342
H       -4.4021128341   -2.0374188306    1.7214909528
H       -6.4141473940   -2.6137199477    4.7541118899
28   
torsion grid (90,)
C       -0.9007600059    0.1977320682    0.6406536023
C       -1.9345243445   -0.7291224624    0.7560483614
C       -1.7671993583    1.5376237711    2.4672411727
C       -3.9601740083    0.5444210850    3.4978417170
C       -2.8273457390    0.6252010768    2.6120750244
C       -0.7998792009    1.3313077528    1.4833921712
C       -2.8939245836   -0.5028164785    1.7474668063
C       -4.6512417738   -0.5942565524    3.1606620440
C       -5.9479968738   -1.1089155312    3.6923423327
C        1.2622758259    2.3444918813    2.5530423399
C       -0.1273568077    3.7134320268    0.9307150962
C        0.3589292748    2.3024837679    1.3073023851
N       -4.0158631127   -1.2338144487    2.1061746047
O       -7.0409140580   -0.8423956514    3.2349035852
O       -5.7786199585   -1.9164236944    4.7698874894
H       -0.1425776439    0.0453816218   -0.1240659748
H       -1.9875149991   -1.5919356138    0.0966251850
H       -1.7078908035    2.4015198542    3.1251918487
H       -4.2306019037    1.2356983415    4.2850777288
H        0.7186285182    2.7321283124    3.4216976488
H        2.1278878821    2.9951048483    2.3835396918
H        1.6276583820    1.3446304096    2.8083773860
H       -0.7229500369    4.1548803126    1.7373507145
H       -0.7516200148    3.6879770477    0.0318288533
H        0.7225484493    4.3791227687    0.7415624080
H        0.9674036737    1.9320280868    0.4732815428
H       -4.3593098532   -2.0576194013    1.6334027730
H       -6.6740898360   -2.1877986904    5.0558594845
28   
torsion grid (105,)
C       -0.9034608232    0.1950287030    0.6089651768
C       -1.9023556636   -0.7661289105    0.7377367790
C       -1.7292462589    1.4571136236    2.5078456318
C       -3.8513097050    0.3746550152    3.5871708958
C       -2.7590242351    0.5105932131    2.6646479058
C       -0.7989646760    1.3080128016    1.4807032858
C       -2.8335144483   -0.5929344360    1.7678377346
C       -4.5177230560   -0.7890637825    3.2618954719
C       -5.8931524322   -1.1982710223    3.6370307841
C        1.2853001929    2.3346550059    2.4914884140
C       -0.2116230387    3.7255997822    0.9872443209
C        0.3260209496    2.3150776375    1.2876669296
N       -3.9182729133   -1.3616418253    2.1461857596
O       -6.8444235872   -1.1888769905    2.8768591255
O       -6.0152476190   -1.4646571292    4.9622652854
H       -0.1742111110    0.0889558750   -0.1909552265
H       -1.9565450490   -1.6111961280    0.0560443456
H       -1.6657465310    2.3005039505    3.1914315606
H       -4.1123030649    1.0391667943    4.4003948213
H        0.7730541738    2.6744382904    3.3984162493
H        2.1252310769    3.0143629565    2.3078287948
H        1.6875364408    1.3362259194    2.6908616994
H       -0.7783448179    4.1222462142    1.8368123757
H       -0.8771725631    3.7168077763    0.1181714599
H        0.6120798519    4.4192915732    0.7837049755
H        0.9036059963    1.9912023849    0.4133088520
H       -4.3176945124   -2.1223244936    1.6142278997
H       -6.9686225305   -1.6063802674    5.1265257430
28   
torsion grid (120,)
C       -0.9224658139    0.2034124801    0.5938853924
C       -1.9174717068   -0.7612838771    0.7183023414
C       -1.7259163562    1.4380753867    2.5196612831
C       -3.8344129390    0.3388105783    3.6042240460
C       -2.7528292227    0.4867620964    2.6742831322
C       -0.8079859490    1.3048676472    1.4805166759
C       -2.8373619316   -0.6055503399    1.7623641424
C       -4.5059470794   -0.8219431290    3.2684088832
C       -5.8724547088   -1.2385261464    3.6315110913
C        1.2855670593    2.3228073474    2.4813896768
C       -0.2292509799    3.7286665213    1.0091900585
C        0.3137239733    2.3156354738    1.2875634514
N       -3.9156299656   -1.3795786005    2.1399760063
O       -6.7562677627   -1.4747891217    2.8241474453
O       -6.0908273211   -1.2068524966    4.9717078097
H       -0.2020537961    0.1105089742   -0.2156451187
H       -1.9780312900   -1.5961287101    0.0247832475
H       -1.6560906705    2.2714201143    3.2148450332
H       -4.0887862941    0.9908013864    4.4294570048
H        0.7824890347    2.6514983904    3.3974825691
H        2.1224334938    3.0059317772    2.2966159406
H        1.6914762921    1.3228743808    2.6651030825
H       -0.7876038692    4.1144284188    1.8692479304
H       -0.9037892599    3.7289767636    0.1470278191
H        0.5912410738    4.4259631076    0.8051466240
H        0.8825132134    2.0028969637    0.4034618645
H       -4.3387132823   -2.1188306990    1.5953672635
H       -7.0459960204   -1.3715456981    5.0947574378
28   
torsion grid (135,)
C       -0.9263475023    0.2195298941    0.5840684390
C       -1.9242010225   -0.7422797766    0.7030404330
C       -1.7215189811    1.4425818299    2.5212505793
C       -3.8314057838    0.3422326416    3.6013915337
C       -2.7512358851    0.4929835585    2.6719812245
C       -0.8066037303    1.3140643928    1.4795243176
C       -2.8407069093   -0.5935924989    1.7517666931
C       -4.5104867644   -0.8114998858    3.2529439809
C       -5.8466415849   -1.2737984521    3.6447150784
C        1.2923842486    2.3179042655    2.4828354396
C       -0.2215664035    3.7393631131    1.0247041887
C        0.3177735685    2.3226637511    1.2912714049
N       -3.9198263119   -1.3661381651    2.1243532344
O       -6.6656101736   -1.7429813016    2.8685585705
O       -6.1273895296   -1.0311070284    4.9517428208
H       -0.2076644209    0.1305600017   -0.2274759714
H       -1.9893013354   -1.5711795444    0.0029387148
H       -1.6481148160    2.2709352156    3.2219830704
H       -4.0836011322    0.9878589374    4.4321009996
H        0.7923964914    2.6412954825    3.4024970052
H        2.1308761514    2.9998326786    2.3011722260
H        1.6956904920    1.3154211235    2.6581645868
H       -0.7765482482    4.1204917977    1.8889939415
H       -0.8982008789    3.7481675341    0.1642298379
H        0.6005878107    4.4355673261    0.8237766260
H        0.8834228943    2.0147675181    0.4034728965
H       -4.3457423069   -2.1080393904    1.5848907451
H       -7.0656663532   -1.2722247826    5.0747788274
28   
torsion grid (150,)
C       -0.9424015167    0.2222048622    0.5758864081
C       -1.9468536771   -0.7327592880    0.6903241065
C       -1.7287169179    1.4429733246    2.5181034435
C       -3.8450905597    0.3524986845    3.5947062492
C       -2.7651707921    0.4995979551    2.6656956961
C       -0.8148194039    1.3124040760    1.4763449201
C       -2.8616569660   -0.5841499433    1.7411386960
C       -4.5345231609   -0.7925582140    3.2365320525
C       -5.8312264135   -1.3082790382    3.6743952403
C        1.2900909609    2.2983902940    2.4848699448
C       -0.2122590859    3.7349135008    1.0295928706
C        0.3168405609    2.3136184778    1.2922625145
N       -3.9435953155   -1.3519116132    2.1113471663
O       -6.5694163383   -1.9889505885    2.9756183556
O       -6.1751433066   -0.8962371656    4.9228556570
H       -0.2238242245    0.1314861972   -0.2355860228
H       -2.0175583564   -1.5580733534   -0.0134060478
H       -1.6500751708    2.2681811401    3.2219631011
H       -4.0919483330    0.9942597117    4.4298587545
H        0.7914208788    2.6226101630    3.4049488675
H        2.1335497461    2.9749241562    2.3061209980
H        1.6861604280    1.2925904336    2.6576624197
H       -0.7655191830    4.1171052749    1.8945155951
H       -0.8878082372    3.7513012688    0.1683781769
H        0.6150055251    4.4259462175    0.8318586513
H        0.8813013082    2.0045120386    0.4041324535
H       -4.3655384057   -2.1066501827    1.5861828346
H       -7.0797323178   -1.2301595571    5.0751414746
28   
torsion grid (165,)
C       -0.9840216036    0.1924943889    0.5589424621
C       -2.0014433885   -0.7485595355    0.6705949664
C       -1.7547232899    1.4187284967    2.5038871212
C       -3.8808130504    0.3506525119    3.5824152115
C       -2.8028201608    0.4876746862    2.6506245732
C       -0.8426484578    1.2791997673    1.4621290458
C       -2.9138688629   -0.5932568087    1.7229592603
C       -4.5873782264   -0.7815028909    3.2157762898
C       -5.8371060899   -1.3473627170    3.7156530519
C        1.2680613430    2.2486299190    2.4759899440
C       -0.2133089592    3.6927685371    1.0068146936
C        0.3004246106    2.2675624031    1.2789431160
N       -4.0058098257   -1.3464259024    2.0895720946
O       -6.4818189522   -2.2064056905    3.1287980143
O       -6.2427897313   -0.7978098643    4.8906287157
H       -0.2660182246    0.0938808653   -0.2521378322
H       -2.0831145782   -1.5705370950   -0.0358041842
H       -1.6662202083    2.2418894032    3.2089805884
H       -4.1163095585    0.9896416623    4.4228519345
H        0.7690618877    2.5832792467    3.3921341584
H        2.1193412608    2.9152762761    2.2972355426
H        1.6528035950    1.2397079547    2.6560114024
H       -0.7675645608    4.0840182669    1.8670518992
H       -0.8840921285    3.7117081794    0.1419284848
H        0.6216436052    4.3748687530    0.8103472943
H        0.8658781277    1.9483773726    0.3950180515
H       -4.4015228063   -2.1402034702    1.6029337141
H       -7.0972781319   -1.2196038917    5.1015267671
28   
torsion grid (180,)
C       -0.9761613564    0.2167409731    0.5497885334
C       -2.0023274821   -0.7162323547    0.6459199245
C       -1.7538290772    1.4399499737    2.4950333771
C       -3.8931762208    0.3776672485    3.5531646404
C       -2.8093945124    0.5151979347    2.6282913646
C       -0.8346386585    1.2976734788    1.4600572990
C       -2.9200790050   -0.5600451392    1.6935462516
C       -4.6110771220   -0.7411830587    3.1681280535
C       -5.8023332476   -1.3745195829    3.7238768000
C        1.2742500830    2.2477496700    2.4955267744
C       -0.1844045668    3.7083220619    1.0197678104
C        0.3169127779    2.2784445567    1.2904886661
N       -4.0224571557   -1.3043436381    2.0452392094
O       -6.3227357126   -2.3789766565    3.2558755035
O       -6.2867360041   -0.7390265200    4.8232309403
H       -0.2512712458    0.1166703249   -0.2549518605
H       -2.0852920605   -1.5331838108   -0.0661506096
H       -1.6658515837    2.2597681326    3.2041203972
H       -4.1297024560    1.0120821567    4.3967285598
H        0.7699214114    2.5824074200    3.4087485750
H        2.1318286279    2.9088606693    2.3266230537
H        1.6501006174    1.2353377365    2.6747463553
H       -0.7425927421    4.1003473915    1.8770975104
H       -0.8482026512    3.7353148011    0.1497164032
H        0.6569647450    4.3850773902    0.8324286803
H        0.8873974690    1.9587099231    0.4100043782
H       -4.3783729800   -2.1372568423    1.5946190524
H       -7.0731655636   -1.2464685449    5.0997997226
