26
0 1 C11H12N2O
C                     1.545104690391    -2.357229457745    -0.281503955961
C                     1.555368558652    -0.959505827629    -0.214189720165
C                     2.673688764702    -3.064587869100     0.122125003666
C                     2.688260273043    -0.291793907367     0.242141601281
C                     3.835264529797    -2.413985740338     0.577971948044
C                     3.839582166036    -0.998267994810     0.636916182607
C                     5.004218591574    -3.222148118699     1.018689260876
C                     6.256042624767    -0.482577246361     0.754576063055
C                     6.493728135884    -1.749425747712    -0.055671903237
C                     4.735037236061    -4.468509968848     1.831235766591
C                     4.684498563439     0.955455134835     1.920345065410
N                     6.227101124058    -2.931670105719     0.756905612264
N                     4.940115376633    -0.266755464302     1.149603569921
O                     7.153902471833     0.290240227201     1.065211113336
H                     0.667098646210    -2.886340568890    -0.640727909557
H                     0.683791768866    -0.388257949189    -0.522358857562
H                     2.662992828541    -4.149218960552     0.079064980892
H                     2.688932047637     0.792256957149     0.282731641798
H                     5.870490194611    -1.722055527603    -0.961674850931
H                     7.543460149045    -1.745817304188    -0.347722826683
H                     4.231445579482    -5.234735667108     1.231178755830
H                     4.085887561156    -4.248811238748     2.685378770837
H                     5.683562895866    -4.876396513684     2.183112300996
H                     5.529927643599     1.120427103947     2.587558140900
H                     3.770956279854     0.825939711037     2.502766689990
H                     4.587800688790     1.836411199088     1.275447752735
