22
0 1 C7H10N2O2S
C                    -2.532238219885     2.761064955238     2.478875037442
C                    -1.810747935324     3.845563307878     1.974506696888
C                    -1.842469627262     1.599409929980     2.837294726346
C                    -0.422791334277     3.726831822412     1.841513557504
C                    -0.457299551696     1.607726225018     2.675291568388
C                     0.667179266358    -0.630751119933     0.598613425914
C                     2.640404788176     0.535557780763     1.542364033991
N                     0.252215315002     2.623097782912     2.187456369636
N                     1.426905631284    -0.254843981629     1.794888594864
O                     1.438926881186     0.509409997053     4.206377698289
O                    -0.472520296974    -0.938061492678     3.325282566265
S                     0.510848972766     0.133345730159     3.142297680073
H                    -3.611799566112     2.815678652223     2.590540498991
H                    -2.307540643723     4.766546087634     1.684042844689
H                    -2.340630084123     0.718053082783     3.226109840929
H                     0.169877425980     4.547978463238     1.442911945422
H                    -0.164790006237    -1.276701664595     0.879390509351
H                     1.333389720370    -1.192880232554    -0.061763293859
H                     0.290369573986     0.247601752284     0.053986516155
H                     3.095811832830     0.811185440763     2.492265517501
H                     2.424116012520     1.442869897001     0.966332938620
H                     3.339016942718    -0.097557650030     0.986390718152
