
  -OEChem-05262117483D

 22 22  0     0  0  0  0  0  0999 V2000
   -0.9865    3.9565    2.9767 C   0  0  0  0  0  0  0  0  0  0  0  0
   -1.9397    3.6981    1.9888 C   0  0  0  0  0  0  0  0  0  0  0  0
   -0.1460    2.9198    3.3916 C   0  0  0  0  0  0  0  0  0  0  0  0
   -2.0144    2.4104    1.4466 C   0  0  0  0  0  0  0  0  0  0  0  0
   -0.3281    1.6750    2.7894 C   0  0  0  0  0  0  0  0  0  0  0  0
    0.5363   -1.1947    1.0429 C   0  0  0  0  0  0  0  0  0  0  0  0
    2.2618    0.5819    1.1506 C   0  0  0  0  0  0  0  0  0  0  0  0
   -1.2208    1.4055    1.8393 N   0  0  0  0  0  0  0  0  0  0  0  0
    1.3833   -0.3355    1.8827 N   0  0  0  0  0  0  0  0  0  0  0  0
    1.8130    0.8587    4.0750 O   0  0  0  0  0  0  0  0  0  0  0  0
   -0.1419   -0.7704    3.8533 O   0  0  0  0  0  0  0  0  0  0  0  0
    0.7197    0.2699    3.2963 S   0  0  0  0  0  0  0  0  0  0  0  0
   -0.8963    4.9463    3.4161 H   0  0  0  0  0  0  0  0  0  0  0  0
   -2.6121    4.4754    1.6379 H   0  0  0  0  0  0  0  0  0  0  0  0
    0.6212    3.0532    4.1465 H   0  0  0  0  0  0  0  0  0  0  0  0
   -2.7381    2.1756    0.6685 H   0  0  0  0  0  0  0  0  0  0  0  0
   -0.1119   -1.7952    1.6792 H   0  0  0  0  0  0  0  0  0  0  0  0
    1.1960   -1.8627    0.4804 H   0  0  0  0  0  0  0  0  0  0  0  0
   -0.0775   -0.6093    0.3483 H   0  0  0  0  0  0  0  0  0  0  0  0
    2.9008    1.1177    1.8526 H   0  0  0  0  0  0  0  0  0  0  0  0
    1.6946    1.2997    0.5396 H   0  0  0  0  0  0  0  0  0  0  0  0
    2.8979   -0.0141    0.4902 H   0  0  0  0  0  0  0  0  0  0  0  0
  1  2  1  0  0  0  0
  1  3  2  0  0  0  0
  1 13  1  0  0  0  0
  2  4  2  0  0  0  0
  2 14  1  0  0  0  0
  3  5  1  0  0  0  0
  3 15  1  0  0  0  0
  4  8  1  0  0  0  0
  4 16  1  0  0  0  0
  5  8  2  0  0  0  0
  5 12  1  0  0  0  0
  6  9  1  0  0  0  0
  6 17  1  0  0  0  0
  6 18  1  0  0  0  0
  6 19  1  0  0  0  0
  7  9  1  0  0  0  0
  7 20  1  0  0  0  0
  7 21  1  0  0  0  0
  7 22  1  0  0  0  0
  9 12  1  0  0  0  0
 10 12  2  0  0  0  0
 11 12  2  0  0  0  0
M  END
$$$$
