31
0 1 C9H17NO4
C                    -2.288593025062     0.160322364134    -0.493809413665
C                    -0.432715396683     0.945137332833     1.052409067752
C                    -0.168969019213    -1.163760674297    -0.289670139300
C                     0.481295325152     1.649406386465     0.035931286066
C                     0.688038881658    -0.369115984905    -1.287407035985
C                    -1.168556956615    -0.265611832973     0.469943415628
C                    -5.156519883345    -1.827973188000    -1.592792653629
C                     3.630012300506     0.583667699325    -0.007295067690
C                    -4.284948538793    -0.586611840238    -1.567310500765
N                     1.405197353324     0.758880528073    -0.680219018345
O                    -2.378576006040     1.228173002814    -1.067723017012
O                    -1.742990693533    -0.967533006698     1.578666913586
O                    -3.177082339667    -0.849560557147    -0.664107397942
O                     2.300944343957     0.186462993369     0.313523130161
H                     0.167365601681     0.569810559051     1.885602099689
H                    -1.156320410965     1.659215839671     1.456602230830
H                    -0.700177296686    -1.972911613897    -0.804488073441
H                     0.481717719693    -1.615537965461     0.464010577082
H                    -0.117365599709     2.150812906296    -0.728355120595
H                     1.082799233410     2.409600252998     0.541642583129
H                     1.427206225107    -1.023403944067    -1.757469908077
H                     0.070469010406     0.055889537948    -2.087118337873
H                    -4.593794176337    -2.695589462079    -1.950061778983
H                    -5.547589568018    -2.052623757350    -0.596027881938
H                    -6.004508704800    -1.667467109413    -2.266241357574
H                     4.268454450269     0.133947986743     0.759009192220
H                     3.736839283147     1.675378917267     0.017950294248
H                     3.927048025651     0.218028149397    -0.998206451500
H                    -4.826020160879     0.290900158808    -1.203721692448
H                    -3.877804530127    -0.347083988078    -2.553541719613
H                    -2.309548516689    -1.670006435052     1.217788281062
