
  -OEChem-05262117483D

 30 31  0     1  0  0  0  0  0999 V2000
    0.3214    2.5960   -0.8096 C   0  0  0  0  0  0  0  0  0  0  0  0
   -0.7541    2.6148    0.0873 C   0  0  0  0  0  0  0  0  0  0  0  0
    0.9343    1.3868   -1.1442 C   0  0  0  0  0  0  0  0  0  0  0  0
   -1.2236    1.4324    0.6686 C   0  0  0  0  0  0  0  0  0  0  0  0
    0.4556    0.2104   -0.5680 C   0  0  0  0  0  0  0  0  0  0  0  0
   -0.6091    0.2290    0.3403 C   0  0  0  0  0  0  0  0  0  0  0  0
    0.7306   -2.1462   -0.1913 C   0  0  0  0  0  0  0  0  0  0  0  0
   -0.0654   -1.9422    1.0841 C   0  0  1  0  0  0  0  0  0  0  0  0
    1.4170    0.9012    4.5258 C   0  0  0  0  0  0  0  0  0  0  0  0
    0.8800   -1.5718    2.2431 C   0  0  0  0  0  0  0  0  0  0  0  0
    0.1145   -1.3736    3.5586 C   0  0  0  0  0  0  0  0  0  0  0  0
    0.9945   -1.0669   -0.9086 N   0  3  0  0  0  0  0  0  0  0  0  0
    1.1622   -3.3597   -0.5232 N   0  0  0  0  0  0  0  0  0  0  0  0
   -1.0788   -0.9631    0.8519 O   0  0  0  0  0  0  0  0  0  0  0  0
    1.2043   -0.8672    4.9317 S   0  0  0  0  0  0  0  0  0  0  0  0
    0.6819    3.5198   -1.2499 H   0  0  0  0  0  0  0  0  0  0  0  0
   -1.2290    3.5575    0.3409 H   0  0  0  0  0  0  0  0  0  0  0  0
    1.7668    1.3617   -1.8434 H   0  0  0  0  0  0  0  0  0  0  0  0
   -2.0584    1.4299    1.3625 H   0  0  0  0  0  0  0  0  0  0  0  0
   -0.6118   -2.8601    1.3156 H   0  0  0  0  0  0  0  0  0  0  0  0
    2.0140    1.3348    5.3309 H   0  0  0  0  0  0  0  0  0  0  0  0
    0.4502    1.4107    4.4934 H   0  0  0  0  0  0  0  0  0  0  0  0
    1.9505    1.0497    3.5831 H   0  0  0  0  0  0  0  0  0  0  0  0
    1.4292   -0.6616    1.9836 H   0  0  0  0  0  0  0  0  0  0  0  0
    1.6221   -2.3677    2.3670 H   0  0  0  0  0  0  0  0  0  0  0  0
   -0.6857   -0.6386    3.4382 H   0  0  0  0  0  0  0  0  0  0  0  0
   -0.3499   -2.3133    3.8741 H   0  0  0  0  0  0  0  0  0  0  0  0
    1.5536   -1.1313   -1.7565 H   0  0  0  0  0  0  0  0  0  0  0  0
    1.7393   -3.5405   -1.3393 H   0  0  0  0  0  0  0  0  0  0  0  0
    0.9286   -4.1584    0.0561 H   0  0  0  0  0  0  0  0  0  0  0  0
  1  2  1  0  0  0  0
  1  3  2  0  0  0  0
  1 16  1  0  0  0  0
  2  4  2  0  0  0  0
  2 17  1  0  0  0  0
  3  5  1  0  0  0  0
  3 18  1  0  0  0  0
  4  6  1  0  0  0  0
  4 19  1  0  0  0  0
  5  6  2  0  0  0  0
  5 12  1  0  0  0  0
  6 14  1  0  0  0  0
  7  8  1  0  0  0  0
  7 12  2  0  0  0  0
  7 13  1  0  0  0  0
  8 10  1  0  0  0  0
  8 14  1  0  0  0  0
  8 20  1  0  0  0  0
  9 15  1  0  0  0  0
  9 21  1  0  0  0  0
  9 22  1  0  0  0  0
  9 23  1  0  0  0  0
 10 11  1  0  0  0  0
 10 24  1  0  0  0  0
 10 25  1  0  0  0  0
 11 15  1  0  0  0  0
 11 26  1  0  0  0  0
 11 27  1  0  0  0  0
 12 28  1  0  0  0  0
 13 29  1  0  0  0  0
 13 30  1  0  0  0  0
M  CHG  1  12   1
M  END
$$$$
