
  -OEChem-05262117483D

 34 34  0     0  0  0  0  0  0999 V2000
    1.5042   -1.3998   -0.1621 C   0  0  0  0  0  0  0  0  0  0  0  0
    0.3999   -1.1304    0.6569 C   0  0  0  0  0  0  0  0  0  0  0  0
    2.9193   -1.5127    1.7711 C   0  0  0  0  0  0  0  0  0  0  0  0
    2.7793   -1.5896    0.3761 C   0  0  0  0  0  0  0  0  0  0  0  0
    0.5527   -1.0442    2.0447 C   0  0  0  0  0  0  0  0  0  0  0  0
    1.8353   -1.2466    2.6031 C   0  0  0  0  0  0  0  0  0  0  0  0
   -4.1053    0.1360    3.0961 C   0  0  0  0  0  0  0  0  0  0  0  0
    1.4639   -2.1505    4.7661 C   0  0  0  0  0  0  0  0  0  0  0  0
    3.9609   -1.9246   -0.5042 C   0  0  0  0  0  0  0  0  0  0  0  0
   -2.6810   -0.1798    3.5657 C   0  0  0  0  0  0  0  0  0  0  0  0
    4.2066   -3.4379   -0.6004 C   0  0  0  0  0  0  0  0  0  0  0  0
   -1.7568   -0.4904    2.3974 C   0  0  0  0  0  0  0  0  0  0  0  0
    5.3321   -3.7169   -1.5068 N   0  0  0  0  0  0  0  0  0  0  0  0
    2.0546   -1.1230    3.9588 O   0  0  0  0  0  0  0  0  0  0  0  0
   -0.4565   -0.7604    2.9259 O   0  0  0  0  0  0  0  0  0  0  0  0
    1.3613   -1.4543   -1.2391 H   0  0  0  0  0  0  0  0  0  0  0  0
   -0.5709   -0.9746    0.2002 H   0  0  0  0  0  0  0  0  0  0  0  0
    3.8910   -1.6473    2.2408 H   0  0  0  0  0  0  0  0  0  0  0  0
   -4.1228    1.0075    2.4318 H   0  0  0  0  0  0  0  0  0  0  0  0
   -4.5436   -0.7077    2.5509 H   0  0  0  0  0  0  0  0  0  0  0  0
   -4.7571    0.3551    3.9473 H   0  0  0  0  0  0  0  0  0  0  0  0
    1.7676   -1.9403    5.7939 H   0  0  0  0  0  0  0  0  0  0  0  0
    1.8419   -3.1373    4.4686 H   0  0  0  0  0  0  0  0  0  0  0  0
    0.3726   -2.1354    4.6938 H   0  0  0  0  0  0  0  0  0  0  0  0
    4.8660   -1.4419   -0.1128 H   0  0  0  0  0  0  0  0  0  0  0  0
    3.8088   -1.5380   -1.5170 H   0  0  0  0  0  0  0  0  0  0  0  0
   -2.6879   -1.0378    4.2474 H   0  0  0  0  0  0  0  0  0  0  0  0
   -2.2671    0.6665    4.1246 H   0  0  0  0  0  0  0  0  0  0  0  0
    4.3413   -3.8432    0.4166 H   0  0  0  0  0  0  0  0  0  0  0  0
    3.3112   -3.9152   -1.0142 H   0  0  0  0  0  0  0  0  0  0  0  0
   -2.1223   -1.3626    1.8370 H   0  0  0  0  0  0  0  0  0  0  0  0
   -1.7067    0.3623    1.7060 H   0  0  0  0  0  0  0  0  0  0  0  0
    5.4659   -4.7235   -1.5904 H   0  0  0  0  0  0  0  0  0  0  0  0
    6.1927   -3.3481   -1.1030 H   0  0  0  0  0  0  0  0  0  0  0  0
  1  2  1  0  0  0  0
  1  4  2  0  0  0  0
  1 16  1  0  0  0  0
  2  5  2  0  0  0  0
  2 17  1  0  0  0  0
  3  4  1  0  0  0  0
  3  6  2  0  0  0  0
  3 18  1  0  0  0  0
  4  9  1  0  0  0  0
  5  6  1  0  0  0  0
  5 15  1  0  0  0  0
  6 14  1  0  0  0  0
  7 10  1  0  0  0  0
  7 19  1  0  0  0  0
  7 20  1  0  0  0  0
  7 21  1  0  0  0  0
  8 14  1  0  0  0  0
  8 22  1  0  0  0  0
  8 23  1  0  0  0  0
  8 24  1  0  0  0  0
  9 11  1  0  0  0  0
  9 25  1  0  0  0  0
  9 26  1  0  0  0  0
 10 12  1  0  0  0  0
 10 27  1  0  0  0  0
 10 28  1  0  0  0  0
 11 13  1  0  0  0  0
 11 29  1  0  0  0  0
 11 30  1  0  0  0  0
 12 15  1  0  0  0  0
 12 31  1  0  0  0  0
 12 32  1  0  0  0  0
 13 33  1  0  0  0  0
 13 34  1  0  0  0  0
M  END
$$$$
