41
0 1 C18H21NO
C                    -7.025019335426    -2.057673938893    -5.052251414308
C                     1.368730524045     1.963215362280    -3.453535315028
C                    -6.649318316936    -0.747261680397    -5.363946877511
C                    -6.470235276574    -2.685600062163    -3.931083769189
C                     2.179777241002     1.815060602588    -2.322450751395
C                     0.164622812697     1.256515681300    -3.534568163089
C                    -5.726160952227    -0.071960686878    -4.558420330837
C                    -5.548590226248    -2.006153314455    -3.130135150440
C                     1.784351570619     0.969905032961    -1.281551960030
C                    -0.225505852017     0.412072611745    -2.489825375548
C                    -5.163494327855    -0.690780659914    -3.433091357843
C                     0.577389085805     0.256173422952    -1.349907616577
C                    -2.909756798048     0.486449183094     0.255394527015
C                    -4.203807833834     0.049596504349    -2.530934438365
C                     0.115411088973    -0.596350055608    -0.191455912646
C                    -3.948949416250     1.409042063889    -0.377404656893
C                    -4.907948868915     0.653141925368    -1.302251393388
C                    -0.544712038497     0.246703415759     0.920778517352
N                    -1.671389524360     1.038115239860     0.441795601359
O                    -3.180203342187    -0.662246424569     0.610849246591
H                    -7.740173998206    -2.585808696917    -5.677806447958
H                     1.676164893594     2.617194340160    -4.265481500949
H                    -7.072161674625    -0.252372649970    -6.234941979831
H                    -6.754174479600    -3.705445003732    -3.683079694056
H                     3.121474117616     2.354133421806    -2.254096195536
H                    -0.468979080122     1.357573632199    -4.412359128485
H                    -5.436826321862     0.947241055667    -4.808429987599
H                    -5.120264523864    -2.498237398743    -2.259090972225
H                     2.423374079612     0.857792400794    -0.407335962408
H                    -1.159339710917    -0.138987415405    -2.563160785443
H                    -3.703422562518     0.848421000483    -3.092530643076
H                    -3.425920403377    -0.638158997621    -2.182798165528
H                     0.961143985645    -1.137328309667     0.248881339822
H                    -0.608882765867    -1.342367920846    -0.529933193233
H                    -3.459817061277     2.230730365216    -0.915117882270
H                    -4.514973548314     1.862812506308     0.445394990661
H                    -5.700292918049     1.333159300737    -1.635268745227
H                    -5.388099456758    -0.148810500216    -0.734579530493
H                    -0.913121630036    -0.411560029532     1.710129799479
H                     0.186100681608     0.933787587644     1.358344643395
H                    -1.461398417896     1.896988712654    -0.049423500444
