
  -OEChem-05262117483D

 34 34  0     0  0  0  0  0  0999 V2000
    1.9439   -0.4056   -0.3947 C   0  0  0  0  0  0  0  0  0  0  0  0
    1.0844    0.2838    0.4708 C   0  0  0  0  0  0  0  0  0  0  0  0
    2.7002   -1.7680    1.4287 C   0  0  0  0  0  0  0  0  0  0  0  0
    2.7601   -1.4424    0.0640 C   0  0  0  0  0  0  0  0  0  0  0  0
    1.0247   -0.0559    1.8263 C   0  0  0  0  0  0  0  0  0  0  0  0
    1.8540   -1.0956    2.3058 C   0  0  0  0  0  0  0  0  0  0  0  0
   -2.5113    3.1196    3.0940 C   0  0  0  0  0  0  0  0  0  0  0  0
    2.3132   -0.5677    4.5735 C   0  0  0  0  0  0  0  0  0  0  0  0
    3.7224   -2.1584   -0.8552 C   0  0  0  0  0  0  0  0  0  0  0  0
   -1.5072    2.0302    3.4860 C   0  0  0  0  0  0  0  0  0  0  0  0
    5.1287   -1.5412   -0.8220 C   0  0  0  0  0  0  0  0  0  0  0  0
   -0.6940    1.5548    2.2907 C   0  0  0  0  0  0  0  0  0  0  0  0
    6.0439   -2.3047   -1.6855 N   0  0  0  0  0  0  0  0  0  0  0  0
    1.7978   -1.5070    3.6204 O   0  0  0  0  0  0  0  0  0  0  0  0
    0.2021    0.5387    2.7456 O   0  0  0  0  0  0  0  0  0  0  0  0
    1.9655   -0.1281   -1.4465 H   0  0  0  0  0  0  0  0  0  0  0  0
    0.4562    1.0732    0.0739 H   0  0  0  0  0  0  0  0  0  0  0  0
    3.3115   -2.5704    1.8353 H   0  0  0  0  0  0  0  0  0  0  0  0
   -2.0065    3.9979    2.6755 H   0  0  0  0  0  0  0  0  0  0  0  0
   -3.2233    2.7556    2.3445 H   0  0  0  0  0  0  0  0  0  0  0  0
   -3.0865    3.4511    3.9638 H   0  0  0  0  0  0  0  0  0  0  0  0
    2.2429   -1.0556    5.5481 H   0  0  0  0  0  0  0  0  0  0  0  0
    1.7262    0.3552    4.5803 H   0  0  0  0  0  0  0  0  0  0  0  0
    3.3644   -0.3377    4.3559 H   0  0  0  0  0  0  0  0  0  0  0  0
    3.3436   -2.1267   -1.8847 H   0  0  0  0  0  0  0  0  0  0  0  0
    3.8073   -3.2152   -0.5812 H   0  0  0  0  0  0  0  0  0  0  0  0
   -2.0279    1.1697    3.9202 H   0  0  0  0  0  0  0  0  0  0  0  0
   -0.8201    2.4057    4.2527 H   0  0  0  0  0  0  0  0  0  0  0  0
    5.0541   -0.4721   -1.0833 H   0  0  0  0  0  0  0  0  0  0  0  0
    5.5122   -1.5894    0.2034 H   0  0  0  0  0  0  0  0  0  0  0  0
   -1.3531    1.1469    1.5116 H   0  0  0  0  0  0  0  0  0  0  0  0
   -0.1256    2.3883    1.8543 H   0  0  0  0  0  0  0  0  0  0  0  0
    6.9814   -1.9092   -1.6303 H   0  0  0  0  0  0  0  0  0  0  0  0
    5.7522   -2.2096   -2.6579 H   0  0  0  0  0  0  0  0  0  0  0  0
  1  2  1  0  0  0  0
  1  4  2  0  0  0  0
  1 16  1  0  0  0  0
  2  5  2  0  0  0  0
  2 17  1  0  0  0  0
  3  4  1  0  0  0  0
  3  6  2  0  0  0  0
  3 18  1  0  0  0  0
  4  9  1  0  0  0  0
  5  6  1  0  0  0  0
  5 15  1  0  0  0  0
  6 14  1  0  0  0  0
  7 10  1  0  0  0  0
  7 19  1  0  0  0  0
  7 20  1  0  0  0  0
  7 21  1  0  0  0  0
  8 14  1  0  0  0  0
  8 22  1  0  0  0  0
  8 23  1  0  0  0  0
  8 24  1  0  0  0  0
  9 11  1  0  0  0  0
  9 25  1  0  0  0  0
  9 26  1  0  0  0  0
 10 12  1  0  0  0  0
 10 27  1  0  0  0  0
 10 28  1  0  0  0  0
 11 13  1  0  0  0  0
 11 29  1  0  0  0  0
 11 30  1  0  0  0  0
 12 15  1  0  0  0  0
 12 31  1  0  0  0  0
 12 32  1  0  0  0  0
 13 33  1  0  0  0  0
 13 34  1  0  0  0  0
M  END
$$$$
