
  -OEChem-05262117483D

 30 31  0     1  0  0  0  0  0999 V2000
    0.4075    2.6739   -1.2088 C   0  0  0  0  0  0  0  0  0  0  0  0
   -0.6807    2.8096   -0.3369 C   0  0  0  0  0  0  0  0  0  0  0  0
    0.9750    1.4181   -1.4308 C   0  0  0  0  0  0  0  0  0  0  0  0
   -1.2077    1.7001    0.3315 C   0  0  0  0  0  0  0  0  0  0  0  0
    0.4388    0.3140   -0.7679 C   0  0  0  0  0  0  0  0  0  0  0  0
   -0.6367    0.4505    0.1170 C   0  0  0  0  0  0  0  0  0  0  0  0
    0.5858   -2.0193   -0.2175 C   0  0  0  0  0  0  0  0  0  0  0  0
   -0.1985   -1.6785    1.0400 C   0  0  1  0  0  0  0  0  0  0  0  0
    3.4906   -3.2522    4.5859 C   0  0  0  0  0  0  0  0  0  0  0  0
    0.7280   -1.2514    2.1912 C   0  0  0  0  0  0  0  0  0  0  0  0
    1.6256   -2.3767    2.7127 C   0  0  0  0  0  0  0  0  0  0  0  0
    0.9208   -1.0092   -1.0010 N   0  0  0  0  0  0  0  0  0  0  0  0
    0.9207   -3.2800   -0.4791 N   0  3  0  0  0  0  0  0  0  0  0  0
   -1.1614   -0.6747    0.7197 O   0  0  0  0  0  0  0  0  0  0  0  0
    2.5873   -1.7337    4.1313 S   0  0  0  0  0  0  0  0  0  0  0  0
    0.8132    3.5433   -1.7155 H   0  0  0  0  0  0  0  0  0  0  0  0
   -1.1187    3.7885   -0.1692 H   0  0  0  0  0  0  0  0  0  0  0  0
    1.8167    1.3012   -2.1093 H   0  0  0  0  0  0  0  0  0  0  0  0
   -2.0488    1.7895    1.0117 H   0  0  0  0  0  0  0  0  0  0  0  0
   -0.7887   -2.5502    1.3326 H   0  0  0  0  0  0  0  0  0  0  0  0
    4.1187   -2.9977    5.4421 H   0  0  0  0  0  0  0  0  0  0  0  0
    4.1332   -3.5917    3.7691 H   0  0  0  0  0  0  0  0  0  0  0  0
    2.8015   -4.0478    4.8810 H   0  0  0  0  0  0  0  0  0  0  0  0
    0.0672   -0.9035    2.9913 H   0  0  0  0  0  0  0  0  0  0  0  0
    1.3368   -0.3962    1.8815 H   0  0  0  0  0  0  0  0  0  0  0  0
    1.0187   -3.2294    3.0425 H   0  0  0  0  0  0  0  0  0  0  0  0
    2.3214   -2.7235    1.9395 H   0  0  0  0  0  0  0  0  0  0  0  0
    1.4693   -1.1670   -1.8436 H   0  0  0  0  0  0  0  0  0  0  0  0
    1.4531   -3.5544   -1.2995 H   0  0  0  0  0  0  0  0  0  0  0  0
    0.6472   -4.0197    0.1575 H   0  0  0  0  0  0  0  0  0  0  0  0
  1  2  1  0  0  0  0
  1  3  2  0  0  0  0
  1 16  1  0  0  0  0
  2  4  2  0  0  0  0
  2 17  1  0  0  0  0
  3  5  1  0  0  0  0
  3 18  1  0  0  0  0
  4  6  1  0  0  0  0
  4 19  1  0  0  0  0
  5  6  2  0  0  0  0
  5 12  1  0  0  0  0
  6 14  1  0  0  0  0
  7  8  1  0  0  0  0
  7 12  1  0  0  0  0
  7 13  2  0  0  0  0
  8 10  1  0  0  0  0
  8 14  1  0  0  0  0
  8 20  1  0  0  0  0
  9 15  1  0  0  0  0
  9 21  1  0  0  0  0
  9 22  1  0  0  0  0
  9 23  1  0  0  0  0
 10 11  1  0  0  0  0
 10 24  1  0  0  0  0
 10 25  1  0  0  0  0
 11 15  1  0  0  0  0
 11 26  1  0  0  0  0
 11 27  1  0  0  0  0
 12 28  1  0  0  0  0
 13 29  1  0  0  0  0
 13 30  1  0  0  0  0
M  CHG  1  13   1
M  END
$$$$
