31
0 1 C9H17NO4
C                    -0.299599059553     1.632782294975     1.676799673409
C                     1.388362929768     0.352023386372     0.303439346197
C                    -1.068539722660     0.110272534836    -0.179909636333
C                     1.624437106862    -0.915404505815    -0.520780348402
C                    -0.735824552176    -1.147834276501    -0.984745559121
C                    -0.020303090211     0.328269092353     0.931785112286
C                    -0.374429061687     5.066107723774     0.461940838008
C                     1.108857348042    -1.917467611410    -3.654824377435
C                    -0.497285250672     3.995784520453     1.529414596679
N                     0.602391703572    -1.002791988993    -1.571763442324
O                    -0.556546282465     1.667018049632     2.870681818343
O                    -0.096771716037    -0.742668422209     1.868443036498
O                    -0.236217790497     2.714371178394     0.888894394468
O                     0.864113729498    -2.233913038048    -2.288192993549
H                     2.136020117213     0.416434381363     1.100311517097
H                     1.486338582169     1.232410130032    -0.337817841115
H                    -1.082012458025     0.979533322349    -0.843530424079
H                    -2.058499434175     0.004168598769     0.275083766371
H                     2.602983778302    -0.869013820509    -1.007075392758
H                     1.602339968320    -1.803114263012     0.127545572214
H                    -0.791990738678    -2.038503118576    -0.342545129307
H                    -1.450499880948    -1.268629669508    -1.803769040434
H                     0.629392817286     5.072068312374     0.027395213149
H                    -1.099532515325     4.903388287419    -0.340726394860
H                    -0.564591342431     6.048982874294     0.904722333553
H                     1.300373851478    -2.872945051064    -4.151984927498
H                     1.983783649650    -1.263853088458    -3.763311209066
H                     0.239184754823    -1.430627112352    -4.114241717496
H                    -1.496779603084     3.963210345195     1.971112125625
H                     0.226285652846     4.131022080307     2.337667628387
H                    -0.330285283985    -0.341600452734     2.727225474936
