
  -OEChem-05262117483D

 41 42  0     0  0  0  0  0  0999 V2000
   -7.0250   -2.0577   -5.0523 C   0  0  0  0  0  0  0  0  0  0  0  0
    1.3687    1.9632   -3.4535 C   0  0  0  0  0  0  0  0  0  0  0  0
   -6.6493   -0.7473   -5.3639 C   0  0  0  0  0  0  0  0  0  0  0  0
   -6.4702   -2.6856   -3.9311 C   0  0  0  0  0  0  0  0  0  0  0  0
    2.1798    1.8151   -2.3225 C   0  0  0  0  0  0  0  0  0  0  0  0
    0.1646    1.2565   -3.5346 C   0  0  0  0  0  0  0  0  0  0  0  0
   -5.7262   -0.0720   -4.5584 C   0  0  0  0  0  0  0  0  0  0  0  0
   -5.5486   -2.0062   -3.1301 C   0  0  0  0  0  0  0  0  0  0  0  0
    1.7844    0.9699   -1.2816 C   0  0  0  0  0  0  0  0  0  0  0  0
   -0.2255    0.4121   -2.4898 C   0  0  0  0  0  0  0  0  0  0  0  0
   -5.1635   -0.6908   -3.4331 C   0  0  0  0  0  0  0  0  0  0  0  0
    0.5774    0.2562   -1.3499 C   0  0  0  0  0  0  0  0  0  0  0  0
   -2.9098    0.4864    0.2554 C   0  0  0  0  0  0  0  0  0  0  0  0
   -4.2038    0.0496   -2.5309 C   0  0  0  0  0  0  0  0  0  0  0  0
    0.1154   -0.5964   -0.1915 C   0  0  0  0  0  0  0  0  0  0  0  0
   -3.9489    1.4090   -0.3774 C   0  0  0  0  0  0  0  0  0  0  0  0
   -4.9079    0.6531   -1.3023 C   0  0  0  0  0  0  0  0  0  0  0  0
   -0.5447    0.2467    0.9208 C   0  0  0  0  0  0  0  0  0  0  0  0
   -1.6714    1.0381    0.4418 N   0  0  0  0  0  0  0  0  0  0  0  0
   -3.1802   -0.6622    0.6108 O   0  0  0  0  0  0  0  0  0  0  0  0
   -7.7402   -2.5858   -5.6778 H   0  0  0  0  0  0  0  0  0  0  0  0
    1.6762    2.6172   -4.2655 H   0  0  0  0  0  0  0  0  0  0  0  0
   -7.0722   -0.2524   -6.2349 H   0  0  0  0  0  0  0  0  0  0  0  0
   -6.7542   -3.7054   -3.6831 H   0  0  0  0  0  0  0  0  0  0  0  0
    3.1215    2.3541   -2.2541 H   0  0  0  0  0  0  0  0  0  0  0  0
   -0.4690    1.3576   -4.4124 H   0  0  0  0  0  0  0  0  0  0  0  0
   -5.4368    0.9472   -4.8084 H   0  0  0  0  0  0  0  0  0  0  0  0
   -5.1203   -2.4982   -2.2591 H   0  0  0  0  0  0  0  0  0  0  0  0
    2.4234    0.8578   -0.4073 H   0  0  0  0  0  0  0  0  0  0  0  0
   -1.1593   -0.1390   -2.5632 H   0  0  0  0  0  0  0  0  0  0  0  0
   -3.7034    0.8484   -3.0925 H   0  0  0  0  0  0  0  0  0  0  0  0
   -3.4259   -0.6382   -2.1828 H   0  0  0  0  0  0  0  0  0  0  0  0
    0.9611   -1.1373    0.2489 H   0  0  0  0  0  0  0  0  0  0  0  0
   -0.6089   -1.3424   -0.5299 H   0  0  0  0  0  0  0  0  0  0  0  0
   -3.4598    2.2307   -0.9151 H   0  0  0  0  0  0  0  0  0  0  0  0
   -4.5150    1.8628    0.4454 H   0  0  0  0  0  0  0  0  0  0  0  0
   -5.7003    1.3332   -1.6353 H   0  0  0  0  0  0  0  0  0  0  0  0
   -5.3881   -0.1488   -0.7346 H   0  0  0  0  0  0  0  0  0  0  0  0
   -0.9131   -0.4116    1.7101 H   0  0  0  0  0  0  0  0  0  0  0  0
    0.1861    0.9338    1.3583 H   0  0  0  0  0  0  0  0  0  0  0  0
   -1.4614    1.8970   -0.0494 H   0  0  0  0  0  0  0  0  0  0  0  0
  1  3  1  0  0  0  0
  1  4  2  0  0  0  0
  1 21  1  0  0  0  0
  2  5  1  0  0  0  0
  2  6  2  0  0  0  0
  2 22  1  0  0  0  0
  3  7  2  0  0  0  0
  3 23  1  0  0  0  0
  4  8  1  0  0  0  0
  4 24  1  0  0  0  0
  5  9  2  0  0  0  0
  5 25  1  0  0  0  0
  6 10  1  0  0  0  0
  6 26  1  0  0  0  0
  7 11  1  0  0  0  0
  7 27  1  0  0  0  0
  8 11  2  0  0  0  0
  8 28  1  0  0  0  0
  9 12  1  0  0  0  0
  9 29  1  0  0  0  0
 10 12  2  0  0  0  0
 10 30  1  0  0  0  0
 11 14  1  0  0  0  0
 12 15  1  0  0  0  0
 13 16  1  0  0  0  0
 13 19  1  0  0  0  0
 13 20  2  0  0  0  0
 14 17  1  0  0  0  0
 14 31  1  0  0  0  0
 14 32  1  0  0  0  0
 15 18  1  0  0  0  0
 15 33  1  0  0  0  0
 15 34  1  0  0  0  0
 16 17  1  0  0  0  0
 16 35  1  0  0  0  0
 16 36  1  0  0  0  0
 17 37  1  0  0  0  0
 17 38  1  0  0  0  0
 18 19  1  0  0  0  0
 18 39  1  0  0  0  0
 18 40  1  0  0  0  0
 19 41  1  0  0  0  0
M  END
$$$$
