
  -OEChem-05262117483D

 36 37  0     0  0  0  0  0  0999 V2000
   -0.6896    0.0878   -0.5329 C   0  0  0  0  0  0  0  0  0  0  0  0
   -1.6134    0.5478   -1.1782 C   0  0  0  0  0  0  0  0  0  0  0  0
    1.4955   -1.0438   -0.4075 C   0  0  0  0  0  0  0  0  0  0  0  0
    0.3811   -0.3958    1.6333 C   0  0  0  0  0  0  0  0  0  0  0  0
    0.3931   -0.4490    0.2306 C   0  0  0  0  0  0  0  0  0  0  0  0
    2.5596   -1.5758    0.3235 C   0  0  0  0  0  0  0  0  0  0  0  0
    1.4327   -0.9170    2.3918 C   0  0  0  0  0  0  0  0  0  0  0  0
    2.5321   -1.5099    1.7346 C   0  0  0  0  0  0  0  0  0  0  0  0
    3.3667   -3.5005    3.0269 C   0  0  0  0  0  0  0  0  0  0  0  0
   -2.4016    1.7170   -3.3227 C   0  0  0  0  0  0  0  0  0  0  0  0
   -3.1110    0.3910   -3.2572 C   0  0  0  0  0  0  0  0  0  0  0  0
   -2.6951    1.0868   -1.9637 C   0  0  0  0  0  0  0  0  0  0  0  0
    3.7193   -2.1984   -0.4237 C   0  0  0  0  0  0  0  0  0  0  0  0
    2.0379    0.5356    4.3804 C   0  0  0  0  0  0  0  0  0  0  0  0
    3.6798   -2.0942    2.5499 C   0  0  0  0  0  0  0  0  0  0  0  0
    1.3708   -0.7672    3.9004 C   0  0  0  0  0  0  0  0  0  0  0  0
    3.0239   -3.8084    4.1517 O   0  0  0  0  0  0  0  0  0  0  0  0
    3.4965   -4.4233    2.0343 O   0  0  0  0  0  0  0  0  0  0  0  0
    1.5125   -1.0883   -1.4929 H   0  0  0  0  0  0  0  0  0  0  0  0
   -0.4669    0.0616    2.1362 H   0  0  0  0  0  0  0  0  0  0  0  0
   -1.3650    1.7271   -3.6426 H   0  0  0  0  0  0  0  0  0  0  0  0
   -2.9748    2.5994   -3.5914 H   0  0  0  0  0  0  0  0  0  0  0  0
   -4.1733    0.3592   -3.4807 H   0  0  0  0  0  0  0  0  0  0  0  0
   -2.5563   -0.4998   -3.5325 H   0  0  0  0  0  0  0  0  0  0  0  0
   -3.4976    1.5444   -1.3904 H   0  0  0  0  0  0  0  0  0  0  0  0
    4.6538   -1.6537   -0.2418 H   0  0  0  0  0  0  0  0  0  0  0  0
    3.8812   -3.2376   -0.1250 H   0  0  0  0  0  0  0  0  0  0  0  0
    3.5369   -2.1792   -1.5010 H   0  0  0  0  0  0  0  0  0  0  0  0
    3.0960    0.5724    4.0993 H   0  0  0  0  0  0  0  0  0  0  0  0
    1.9754    0.6265    5.4701 H   0  0  0  0  0  0  0  0  0  0  0  0
    1.5513    1.4089    3.9340 H   0  0  0  0  0  0  0  0  0  0  0  0
    3.8783   -1.4972    3.4390 H   0  0  0  0  0  0  0  0  0  0  0  0
    4.5936   -2.1287    1.9541 H   0  0  0  0  0  0  0  0  0  0  0  0
    0.3198   -0.7576    4.2081 H   0  0  0  0  0  0  0  0  0  0  0  0
    1.8255   -1.6244    4.4017 H   0  0  0  0  0  0  0  0  0  0  0  0
    3.2355   -5.2805    2.4236 H   0  0  0  0  0  0  0  0  0  0  0  0
  1  2  3  0  0  0  0
  1  5  1  0  0  0  0
  2 12  1  0  0  0  0
  3  5  1  0  0  0  0
  3  6  2  0  0  0  0
  3 19  1  0  0  0  0
  4  5  2  0  0  0  0
  4  7  1  0  0  0  0
  4 20  1  0  0  0  0
  6  8  1  0  0  0  0
  6 13  1  0  0  0  0
  7  8  2  0  0  0  0
  7 16  1  0  0  0  0
  8 15  1  0  0  0  0
  9 15  1  0  0  0  0
  9 17  2  0  0  0  0
  9 18  1  0  0  0  0
 10 11  1  0  0  0  0
 10 12  1  0  0  0  0
 10 21  1  0  0  0  0
 10 22  1  0  0  0  0
 11 12  1  0  0  0  0
 11 23  1  0  0  0  0
 11 24  1  0  0  0  0
 12 25  1  0  0  0  0
 13 26  1  0  0  0  0
 13 27  1  0  0  0  0
 13 28  1  0  0  0  0
 14 16  1  0  0  0  0
 14 29  1  0  0  0  0
 14 30  1  0  0  0  0
 14 31  1  0  0  0  0
 15 32  1  0  0  0  0
 15 33  1  0  0  0  0
 16 34  1  0  0  0  0
 16 35  1  0  0  0  0
 18 36  1  0  0  0  0
M  END
$$$$
