36
0 1 C16H18O2
C                    -0.653872761430     0.421813901634    -0.244326235310
C                    -1.555616028374     0.851453016564    -0.939838453876
C                     1.500257567383    -0.748391489617     0.005759749973
C                     0.361406862507     0.068598104378     1.972189234087
C                     0.402731787293    -0.080354665131     0.576858728529
C                     2.537464485145    -1.243256765279     0.796811024473
C                     1.388716600065    -0.415701883684     2.785880223106
C                     2.494010664566    -1.058904538093     2.195045368807
C                     3.455653722530    -3.061434692606     3.446251270100
C                    -2.304235048317     1.772833039067    -3.215309651565
C                    -3.087096786888     0.510641074916    -2.970614939580
C                    -2.614737497373     1.345875116895    -1.783145586339
C                     3.678808598953    -1.986863767939     0.139454250248
C                     1.971409438549     1.089095219817     4.754454155532
C                     3.620087375541    -1.590870179281     3.049690736854
C                     1.280931663795    -0.204095648996     4.283469821871
O                     2.555335021804    -3.785804928884     3.103059936042
O                     4.450586265754    -3.542169391545     4.256425897722
H                     1.529811045661    -0.885165150371    -1.071633816519
H                    -0.493596403963     0.565121779084     2.423515629224
H                    -1.273119870435     1.679955612209    -3.539821903229
H                    -2.829637569150     2.643909687595    -3.595465061560
H                    -4.152399707179     0.511708928068    -3.181354112117
H                    -2.587977730802    -0.439649978273    -3.128164478632
H                    -3.382274385634     1.920381991396    -1.270484594384
H                     4.639896893988    -1.479760401430     0.289019478877
H                     3.773863912831    -3.002571506824     0.537865549038
H                     3.519157496110    -2.068242517975    -0.938347550003
H                     3.039670327153     1.089780319093     4.511263259344
H                     1.870270237780     1.216604543393     5.837726319906
H                     1.528069713965     1.961472130837     4.264010097256
H                     3.730170464936    -1.006954041840     3.968317339203
H                     4.578529456433    -1.501522306209     2.525353444454
H                     0.221511670057    -0.155375530901     4.554630485365
H                     1.684711475970    -1.064269363114     4.827180408373
H                     5.097651919093    -2.839765650538     4.440018189391
