25
0 1 C7H14N2O2
C                     1.208746468193     0.252353811262     3.350733291294
C                     0.015009185521    -2.475842037092     2.376804098484
C                     2.245726559436     1.340664875121     3.577840587012
C                     0.013645151883    -1.295245690381     0.143234184231
C                     1.137424503500    -4.323135146380     3.487160991863
C                     2.530817315573    -2.647578171566     2.347881092518
C                     0.004151797392    -1.105106973898     1.663798810655
N                     1.042832627147    -0.154015233255     2.053575366145
N                     1.190292952877    -3.114150172726     2.669385553834
O                     0.567763743934    -0.243857590680     4.274215237429
O                    -1.084078963825    -2.983275038670     2.606684642626
H                     1.743168031400     2.223947435230     3.981941689131
H                     2.957577410137     0.995935180578     4.332142520397
H                     2.791661124292     1.626051959913     2.673773295469
H                     0.962505214643    -1.713102690590    -0.210262807212
H                    -0.787382520649    -1.980551683961    -0.141682641941
H                    -0.156589124749    -0.340005412078    -0.365774876416
H                     1.528839889061    -5.183200892472     2.929683124669
H                     0.103329105403    -4.516750461886     3.764881727651
H                     1.740537211022    -4.186139739209     4.392969408723
H                     2.973553312461    -2.070142581668     3.170271035200
H                     2.540210491527    -2.036173542908     1.448280093676
H                     3.165108583420    -3.520981919212     2.163092913271
H                    -0.966936168889    -0.701927037008     1.963053508138
H                     1.549594531478     0.326940063789     1.322545974430
