25
0 1 C7H14N2O2
C                     2.305601055785    -0.267379369525     2.444001121528
C                    -0.124298196885    -2.244132312545     2.184210946970
C                     3.024514183829     0.179614545953     3.706778726099
C                     0.343964356127    -0.746093505829     0.142121292806
C                    -1.184832066317    -4.439140051560     2.102316587827
C                    -2.231363097115    -2.601672784097     0.846272821472
C                    -0.006113674275    -0.793506127581     1.639955260315
N                     0.936956337824    -0.042849992340     2.464856990254
N                    -1.133412779315    -3.036661774790     1.698211543338
O                     2.905200682808    -0.757378326266     1.494582787395
O                     0.677520558536    -2.653926657645     3.024109141009
H                     3.030942856131    -0.660176447366     4.410025546946
H                     4.056310746163     0.432318577276     3.459549324067
H                     2.542647606587     1.034301046945     4.191954121437
H                     1.225011417694    -1.347820933249    -0.072554783549
H                    -0.494042140511    -1.101565635335    -0.461570043537
H                     0.560928764079     0.286513152729    -0.144046471249
H                    -2.027866519055    -4.619215701368     2.781944769233
H                    -0.257600603305    -4.696528005004     2.610714147165
H                    -1.308523217565    -5.073556295189     1.216988435000
H                    -2.117966088356    -2.974566009473    -0.179939069169
H                    -2.313856035059    -1.516991516062     0.813293820356
H                    -3.173750359485    -2.992529845366     1.247391089240
H                    -0.970792045094    -0.291794574130     1.779098227361
H                     0.583170177495     0.142802523797     3.395988335847
