29
0 1 C12H13N3O
C                     1.767882258171    -1.235076908001    -0.221286886161
C                     1.616735429987    -2.413989857337     0.518242165786
C                     1.911555357856    -0.014567735308     0.446171579385
C                     1.585949254564    -2.375258985697     1.912966863981
C                     1.899944421380     0.035471002436     1.842337676925
C                     1.321754415283    -0.539800787139     6.099209379988
C                     1.988022517861    -1.784807149863     5.989379607724
C                     1.717478483404    -1.146314384300     2.570314552233
C                     1.106759562576    -0.137727666720     4.792931202031
C                     0.411621504048     1.093330537249     4.296183441944
C                    -1.341502340391     2.047277612285     2.897232443497
C                    -1.350102872384    -0.389055408662     3.310991119670
N                     2.191046847594    -2.127789273711     4.718040418603
N                     1.651429891326    -1.111840753903     3.989253002561
N                    -0.721713708472     0.903307530654     3.553592454236
O                     0.869155412455     2.207948735952     4.562381624433
H                     1.784795761969    -1.269286484262    -1.307169751596
H                     1.515381097516    -3.368025177965     0.007867711516
H                     2.053391286560     0.903277267010    -0.117956071516
H                     1.466393840181    -3.278645628344     2.501031306245
H                     2.053556485102     0.978381335312     2.356405195447
H                     1.024363633397    -0.006144948648     6.991148289702
H                     2.337687271445    -2.438169366412     6.779249785149
H                    -1.384556028915     1.876280743666     1.814459822409
H                    -0.750873637658     2.937927790280     3.105294968909
H                    -2.362110979928     2.197278427843     3.269155909301
H                    -2.432274538664    -0.293506345987     3.452599264044
H                    -0.981300414392    -1.136730466421     4.011709134922
H                    -1.160399922750    -0.737358441114     2.288398652981
