
  -OEChem-05262117483D

 35 35  0     1  0  0  0  0  0999 V2000
    2.7792   -4.1051   -5.6784 C   0  0  0  0  0  0  0  0  0  0  0  0
    2.9653   -1.3952    0.5021 C   0  0  0  0  0  0  0  0  0  0  0  0
    0.8564   -0.5406   -0.2457 C   0  0  0  0  0  0  0  0  0  0  0  0
    2.9307   -2.4484   -0.6002 C   0  0  0  0  0  0  0  0  0  0  0  0
    0.8230   -1.5932   -1.3495 C   0  0  0  0  0  0  0  0  0  0  0  0
    2.4211   -5.0458   -6.8207 C   0  0  0  0  0  0  0  0  0  0  0  0
    2.9533   -1.1680   -4.5776 C   0  0  0  0  0  0  0  0  0  0  0  0
    1.6176   -0.0559    1.9932 C   0  0  0  0  0  0  0  0  0  0  0  0
    2.2036   -2.9092   -2.8651 C   0  0  0  0  0  0  0  0  0  0  0  0
    1.9160   -2.2385   -4.2236 C   0  0  2  0  0  0  0  0  0  0  0  0
    1.6088   -1.0283    0.9087 N   0  0  0  0  0  0  0  0  0  0  0  0
    2.1802   -1.9570   -1.7576 N   0  0  0  0  0  0  0  0  0  0  0  0
    1.7830   -3.2582   -5.2785 N   0  0  0  0  0  0  0  0  0  0  0  0
    3.8983   -4.1231   -5.1637 O   0  0  0  0  0  0  0  0  0  0  0  0
    3.4960   -1.7982    1.3719 H   0  0  0  0  0  0  0  0  0  0  0  0
    3.5304   -0.5146    0.1396 H   0  0  0  0  0  0  0  0  0  0  0  0
    1.2962    0.3912   -0.6521 H   0  0  0  0  0  0  0  0  0  0  0  0
   -0.1681   -0.3153    0.0717 H   0  0  0  0  0  0  0  0  0  0  0  0
    3.9539   -2.6729   -0.9177 H   0  0  0  0  0  0  0  0  0  0  0  0
    2.4893   -3.3785   -0.1950 H   0  0  0  0  0  0  0  0  0  0  0  0
    0.2625   -2.4777   -0.9903 H   0  0  0  0  0  0  0  0  0  0  0  0
    0.2810   -1.1828   -2.2074 H   0  0  0  0  0  0  0  0  0  0  0  0
    3.0988   -4.8518   -7.6567 H   0  0  0  0  0  0  0  0  0  0  0  0
    2.5921   -6.0742   -6.4920 H   0  0  0  0  0  0  0  0  0  0  0  0
    1.3889   -4.9505   -7.1708 H   0  0  0  0  0  0  0  0  0  0  0  0
    3.9421   -1.6183   -4.6884 H   0  0  0  0  0  0  0  0  0  0  0  0
    2.6877   -0.6695   -5.5157 H   0  0  0  0  0  0  0  0  0  0  0  0
    2.9930   -0.4251   -3.7770 H   0  0  0  0  0  0  0  0  0  0  0  0
    2.1498   -0.4696    2.8561 H   0  0  0  0  0  0  0  0  0  0  0  0
    0.5901    0.1636    2.3020 H   0  0  0  0  0  0  0  0  0  0  0  0
    2.1043    0.8988    1.7147 H   0  0  0  0  0  0  0  0  0  0  0  0
    3.1970   -3.3583   -2.9202 H   0  0  0  0  0  0  0  0  0  0  0  0
    1.4814   -3.7335   -2.7151 H   0  0  0  0  0  0  0  0  0  0  0  0
    0.9317   -1.7613   -4.1739 H   0  0  0  0  0  0  0  0  0  0  0  0
    0.9025   -3.3094   -5.7702 H   0  0  0  0  0  0  0  0  0  0  0  0
  1  6  1  0  0  0  0
  1 13  1  0  0  0  0
  1 14  2  0  0  0  0
  2  4  1  0  0  0  0
  2 11  1  0  0  0  0
  2 15  1  0  0  0  0
  2 16  1  0  0  0  0
  3  5  1  0  0  0  0
  3 11  1  0  0  0  0
  3 17  1  0  0  0  0
  3 18  1  0  0  0  0
  4 12  1  0  0  0  0
  4 19  1  0  0  0  0
  4 20  1  0  0  0  0
  5 12  1  0  0  0  0
  5 21  1  0  0  0  0
  5 22  1  0  0  0  0
  6 23  1  0  0  0  0
  6 24  1  0  0  0  0
  6 25  1  0  0  0  0
  7 10  1  0  0  0  0
  7 26  1  0  0  0  0
  7 27  1  0  0  0  0
  7 28  1  0  0  0  0
  8 11  1  0  0  0  0
  8 29  1  0  0  0  0
  8 30  1  0  0  0  0
  8 31  1  0  0  0  0
  9 10  1  0  0  0  0
  9 12  1  0  0  0  0
  9 32  1  0  0  0  0
  9 33  1  0  0  0  0
 10 13  1  0  0  0  0
 10 34  1  0  0  0  0
 13 35  1  0  0  0  0
M  END
$$$$
