
  -OEChem-05262117483D

 36 37  0     1  0  0  0  0  0999 V2000
    0.9492   -0.0363    0.3247 C   0  0  0  0  0  0  0  0  0  0  0  0
    0.8189   -0.4661    3.4899 C   0  0  0  0  0  0  0  0  0  0  0  0
   -0.0088    0.7518    3.9142 C   0  0  0  0  0  0  0  0  0  0  0  0
    2.0230   -0.0150    2.6551 C   0  0  0  0  0  0  0  0  0  0  0  0
   -0.4384    1.5470    2.6822 C   0  0  0  0  0  0  0  0  0  0  0  0
    1.1656   -1.7916   -1.3736 C   0  0  0  0  0  0  0  0  0  0  0  0
    3.2017   -1.0069   -0.2995 C   0  0  0  0  0  0  0  0  0  0  0  0
    1.7389   -1.3901   -2.7316 C   0  0  0  0  0  0  0  0  0  0  0  0
    3.7547   -0.6160   -1.6729 C   0  0  0  0  0  0  0  0  0  0  0  0
    1.5927    0.8312    1.4370 C   0  0  2  0  0  0  0  0  0  0  0  0
    3.7695   -1.1604   -4.0236 C   0  0  0  0  0  0  0  0  0  0  0  0
    0.7398    1.9339    1.8802 N   0  0  0  0  0  0  0  0  0  0  0  0
    1.7404   -0.9667   -0.3086 N   0  0  0  0  0  0  0  0  0  0  0  0
    3.2017   -1.4747   -2.7179 N   0  0  0  0  0  0  0  0  0  0  0  0
   -0.2428    0.0972    0.0320 O   0  0  0  0  0  0  0  0  0  0  0  0
    1.1664   -1.0267    4.3654 H   0  0  0  0  0  0  0  0  0  0  0  0
    0.1936   -1.1492    2.9004 H   0  0  0  0  0  0  0  0  0  0  0  0
   -0.8962    0.4422    4.4778 H   0  0  0  0  0  0  0  0  0  0  0  0
    0.5940    1.3914    4.5715 H   0  0  0  0  0  0  0  0  0  0  0  0
    2.6769    0.6091    3.2756 H   0  0  0  0  0  0  0  0  0  0  0  0
    2.6061   -0.8822    2.3338 H   0  0  0  0  0  0  0  0  0  0  0  0
   -1.1562    0.9555    2.0992 H   0  0  0  0  0  0  0  0  0  0  0  0
   -0.9358    2.4737    2.9898 H   0  0  0  0  0  0  0  0  0  0  0  0
    0.0843   -1.6641   -1.3567 H   0  0  0  0  0  0  0  0  0  0  0  0
    1.4115   -2.8412   -1.1705 H   0  0  0  0  0  0  0  0  0  0  0  0
    3.5251   -2.0276   -0.0589 H   0  0  0  0  0  0  0  0  0  0  0  0
    3.6071   -0.3416    0.4590 H   0  0  0  0  0  0  0  0  0  0  0  0
    1.3561   -2.0683   -3.5022 H   0  0  0  0  0  0  0  0  0  0  0  0
    1.3925   -0.3686   -2.9808 H   0  0  0  0  0  0  0  0  0  0  0  0
    3.5267    0.4530   -1.8589 H   0  0  0  0  0  0  0  0  0  0  0  0
    4.8450   -0.7263   -1.6656 H   0  0  0  0  0  0  0  0  0  0  0  0
    2.4910    1.2946    1.0104 H   0  0  0  0  0  0  0  0  0  0  0  0
    3.3722   -1.8518   -4.7734 H   0  0  0  0  0  0  0  0  0  0  0  0
    4.8572   -1.2817   -3.9927 H   0  0  0  0  0  0  0  0  0  0  0  0
    3.5468   -0.1284   -4.3547 H   0  0  0  0  0  0  0  0  0  0  0  0
    0.4100    2.4337    1.0576 H   0  0  0  0  0  0  0  0  0  0  0  0
  1 10  1  0  0  0  0
  1 13  1  0  0  0  0
  1 15  2  0  0  0  0
  2  3  1  0  0  0  0
  2  4  1  0  0  0  0
  2 16  1  0  0  0  0
  2 17  1  0  0  0  0
  3  5  1  0  0  0  0
  3 18  1  0  0  0  0
  3 19  1  0  0  0  0
  4 10  1  0  0  0  0
  4 20  1  0  0  0  0
  4 21  1  0  0  0  0
  5 12  1  0  0  0  0
  5 22  1  0  0  0  0
  5 23  1  0  0  0  0
  6  8  1  0  0  0  0
  6 13  1  0  0  0  0
  6 24  1  0  0  0  0
  6 25  1  0  0  0  0
  7  9  1  0  0  0  0
  7 13  1  0  0  0  0
  7 26  1  0  0  0  0
  7 27  1  0  0  0  0
  8 14  1  0  0  0  0
  8 28  1  0  0  0  0
  8 29  1  0  0  0  0
  9 14  1  0  0  0  0
  9 30  1  0  0  0  0
  9 31  1  0  0  0  0
 10 12  1  0  0  0  0
 10 32  1  0  0  0  0
 11 14  1  0  0  0  0
 11 33  1  0  0  0  0
 11 34  1  0  0  0  0
 11 35  1  0  0  0  0
 12 36  1  0  0  0  0
M  END
$$$$
