35
0 1 C10H21N3O
C                     4.599553069043    -1.386615343197    -4.427815040115
C                     2.824151901222    -1.207193698212     0.338392411146
C                     0.582468806020    -0.473029794084    -0.075248401387
C                     2.671434808458    -2.290509673168    -0.723696503729
C                     0.421203516889    -1.557379717808    -1.135174785965
C                     5.029263226012     0.072254089183    -4.467409497212
C                     2.541768378651    -3.740281681446    -4.985592844951
C                     1.666715116846     0.102407834338     2.004799441021
C                     1.577789246724    -2.846211118924    -2.832338981768
C                     2.842596335857    -2.968450461911    -3.697557342235
N                     1.534289964530    -0.894842923120     0.950639802138
N                     1.713419297315    -1.869465491537    -1.751804325189
N                     3.332161668916    -1.615924656416    -3.968074362195
O                     5.345668033008    -2.289791865449    -4.810218685947
H                     3.508407943714    -1.560474245592     1.117446915483
H                     3.280004338458    -0.310540872613    -0.126425674483
H                     0.905298073066     0.466059895207    -0.566630902529
H                    -0.386918225953    -0.284113053615     0.398992367117
H                     3.644004539722    -2.468963130236    -1.190380626957
H                     2.347726318768    -3.231467574975    -0.242684272510
H                    -0.028398945899    -2.453031758174    -0.669129305546
H                    -0.262754572375    -1.204950219677    -1.914739649971
H                     5.977215061925     0.174182690055    -3.932541567736
H                     5.208319325963     0.356828151400    -5.508204495759
H                     4.293721868313     0.757384110173    -4.036327670578
H                     1.794946132302    -3.209367187285    -5.585827415834
H                     3.452502001272    -3.853286993233    -5.575785733209
H                     2.153184604470    -4.737225225074    -4.748229322292
H                     2.350008765913    -0.265067844092     2.777261095826
H                     0.691873241517     0.279246512440     2.470773165010
H                     2.053221632346     1.072088469703     1.636528753208
H                     1.311682691268    -3.850243742721    -2.456318700084
H                     0.751494611239    -2.512234506389    -3.470972693681
H                     3.621751103400    -3.515749616040    -3.152686883956
H                     2.882554152486    -0.893432094342    -3.412906141856
