
  -OEChem-05262117483D

 28 27  0     1  0  0  0  0  0999 V2000
   -0.7344   -3.2457    1.0941 C   0  0  0  0  0  0  0  0  0  0  0  0
   -3.9250   -2.8850    1.3080 C   0  0  0  0  0  0  0  0  0  0  0  0
    0.2612   -3.4516   -1.1775 C   0  0  0  0  0  0  0  0  0  0  0  0
    0.8706   -1.4098    0.2094 C   0  0  0  0  0  0  0  0  0  0  0  0
   -3.1467   -1.1763    3.0142 C   0  0  0  0  0  0  0  0  0  0  0  0
   -4.7578   -4.7393   -0.0674 C   0  0  0  0  0  0  0  0  0  0  0  0
    0.4847   -2.8941    0.2413 C   0  0  0  0  0  0  0  0  0  0  0  0
   -2.7815   -2.4437    2.2518 C   0  0  2  0  0  0  0  0  0  0  0  0
   -3.8594   -4.1927    0.9401 N   0  0  0  0  0  0  0  0  0  0  0  0
   -1.5564   -2.2300    1.4717 N   0  0  0  0  0  0  0  0  0  0  0  0
   -0.9659   -4.4238    1.4048 O   0  0  0  0  0  0  0  0  0  0  0  0
   -4.8007   -2.1055    0.9293 O   0  0  0  0  0  0  0  0  0  0  0  0
   -0.5648   -2.9309   -1.6756 H   0  0  0  0  0  0  0  0  0  0  0  0
    1.1613   -3.3153   -1.7857 H   0  0  0  0  0  0  0  0  0  0  0  0
    0.0249   -4.5176   -1.1395 H   0  0  0  0  0  0  0  0  0  0  0  0
    0.1233   -0.8025   -0.3169 H   0  0  0  0  0  0  0  0  0  0  0  0
    1.8127   -1.2826   -0.3328 H   0  0  0  0  0  0  0  0  0  0  0  0
    1.0095   -0.9987    1.2148 H   0  0  0  0  0  0  0  0  0  0  0  0
   -3.3821   -0.3613    2.3239 H   0  0  0  0  0  0  0  0  0  0  0  0
   -4.0366   -1.3483    3.6241 H   0  0  0  0  0  0  0  0  0  0  0  0
   -2.3221   -0.8777    3.6685 H   0  0  0  0  0  0  0  0  0  0  0  0
   -4.7453   -5.8297   -0.0014 H   0  0  0  0  0  0  0  0  0  0  0  0
   -4.4676   -4.4383   -1.0819 H   0  0  0  0  0  0  0  0  0  0  0  0
   -5.7708   -4.3778    0.1175 H   0  0  0  0  0  0  0  0  0  0  0  0
    1.3038   -3.4600    0.6986 H   0  0  0  0  0  0  0  0  0  0  0  0
   -2.5641   -3.2592    2.9466 H   0  0  0  0  0  0  0  0  0  0  0  0
   -2.9937   -4.6840    1.1567 H   0  0  0  0  0  0  0  0  0  0  0  0
   -1.3888   -1.2981    1.1163 H   0  0  0  0  0  0  0  0  0  0  0  0
  1  7  1  0  0  0  0
  1 10  1  0  0  0  0
  1 11  2  0  0  0  0
  2  8  1  0  0  0  0
  2  9  1  0  0  0  0
  2 12  2  0  0  0  0
  3  7  1  0  0  0  0
  3 13  1  0  0  0  0
  3 14  1  0  0  0  0
  3 15  1  0  0  0  0
  4  7  1  0  0  0  0
  4 16  1  0  0  0  0
  4 17  1  0  0  0  0
  4 18  1  0  0  0  0
  5  8  1  0  0  0  0
  5 19  1  0  0  0  0
  5 20  1  0  0  0  0
  5 21  1  0  0  0  0
  6  9  1  0  0  0  0
  6 22  1  0  0  0  0
  6 23  1  0  0  0  0
  6 24  1  0  0  0  0
  7 25  1  0  0  0  0
  8 10  1  0  0  0  0
  8 26  1  0  0  0  0
  9 27  1  0  0  0  0
 10 28  1  0  0  0  0
M  END
$$$$
