
  -OEChem-05262117483D

 29 30  0     0  0  0  0  0  0999 V2000
    1.6767   -1.4027   -0.2866 C   0  0  0  0  0  0  0  0  0  0  0  0
    2.8547   -1.6097    0.4397 C   0  0  0  0  0  0  0  0  0  0  0  0
    0.4628   -1.2574    0.3920 C   0  0  0  0  0  0  0  0  0  0  0  0
    2.8268   -1.6590    1.8342 C   0  0  0  0  0  0  0  0  0  0  0  0
    0.4225   -1.3190    1.7860 C   0  0  0  0  0  0  0  0  0  0  0  0
    1.1210   -1.3358    6.0718 C   0  0  0  0  0  0  0  0  0  0  0  0
    2.1334   -2.2995    5.8596 C   0  0  0  0  0  0  0  0  0  0  0  0
    1.6079   -1.5071    2.5026 C   0  0  0  0  0  0  0  0  0  0  0  0
    0.7929   -0.8776    4.8031 C   0  0  0  0  0  0  0  0  0  0  0  0
   -0.0267    0.3111    4.4070 C   0  0  0  0  0  0  0  0  0  0  0  0
   -2.1088    1.5557    4.6292 C   0  0  0  0  0  0  0  0  0  0  0  0
   -2.0399   -0.7744    5.4457 C   0  0  0  0  0  0  0  0  0  0  0  0
    2.4066   -2.4460    4.5632 N   0  0  0  0  0  0  0  0  0  0  0  0
    1.5895   -1.5684    3.9247 N   0  0  0  0  0  0  0  0  0  0  0  0
   -1.3227    0.3482    4.8549 N   0  0  0  0  0  0  0  0  0  0  0  0
    0.4833    1.2202    3.7502 O   0  0  0  0  0  0  0  0  0  0  0  0
    1.7042   -1.3586   -1.3719 H   0  0  0  0  0  0  0  0  0  0  0  0
    3.8020   -1.7255   -0.0800 H   0  0  0  0  0  0  0  0  0  0  0  0
   -0.4589   -1.1064   -0.1633 H   0  0  0  0  0  0  0  0  0  0  0  0
    3.7311   -1.8153    2.4116 H   0  0  0  0  0  0  0  0  0  0  0  0
   -0.5251   -1.2301    2.3075 H   0  0  0  0  0  0  0  0  0  0  0  0
    0.7109   -0.9873    7.0101 H   0  0  0  0  0  0  0  0  0  0  0  0
    2.6680   -2.8954    6.5889 H   0  0  0  0  0  0  0  0  0  0  0  0
   -2.8775    1.3825    3.8650 H   0  0  0  0  0  0  0  0  0  0  0  0
   -1.4482    2.3527    4.2919 H   0  0  0  0  0  0  0  0  0  0  0  0
   -2.6045    1.8534    5.5603 H   0  0  0  0  0  0  0  0  0  0  0  0
   -2.2775   -0.5811    6.4996 H   0  0  0  0  0  0  0  0  0  0  0  0
   -1.4496   -1.6866    5.3832 H   0  0  0  0  0  0  0  0  0  0  0  0
   -2.9825   -0.9308    4.9070 H   0  0  0  0  0  0  0  0  0  0  0  0
  1  2  1  0  0  0  0
  1  3  2  0  0  0  0
  1 17  1  0  0  0  0
  2  4  2  0  0  0  0
  2 18  1  0  0  0  0
  3  5  1  0  0  0  0
  3 19  1  0  0  0  0
  4  8  1  0  0  0  0
  4 20  1  0  0  0  0
  5  8  2  0  0  0  0
  5 21  1  0  0  0  0
  6  7  1  0  0  0  0
  6  9  2  0  0  0  0
  6 22  1  0  0  0  0
  7 13  2  0  0  0  0
  7 23  1  0  0  0  0
  8 14  1  0  0  0  0
  9 10  1  0  0  0  0
  9 14  1  0  0  0  0
 10 15  1  0  0  0  0
 10 16  2  0  0  0  0
 11 15  1  0  0  0  0
 11 24  1  0  0  0  0
 11 25  1  0  0  0  0
 11 26  1  0  0  0  0
 12 15  1  0  0  0  0
 12 27  1  0  0  0  0
 12 28  1  0  0  0  0
 12 29  1  0  0  0  0
 13 14  1  0  0  0  0
M  END
$$$$
