
  -OEChem-05262117483D

 29 30  0     0  0  0  0  0  0999 V2000
    2.0497   -1.0399   -0.1594 C   0  0  0  0  0  0  0  0  0  0  0  0
    3.1988   -1.1807    0.6276 C   0  0  0  0  0  0  0  0  0  0  0  0
    0.7982   -0.9389    0.4564 C   0  0  0  0  0  0  0  0  0  0  0  0
    3.1045   -1.1981    2.0199 C   0  0  0  0  0  0  0  0  0  0  0  0
    0.6887   -0.9725    1.8489 C   0  0  0  0  0  0  0  0  0  0  0  0
    1.1820   -0.7082    6.1465 C   0  0  0  0  0  0  0  0  0  0  0  0
    2.2553   -1.6270    6.0479 C   0  0  0  0  0  0  0  0  0  0  0  0
    1.8478   -1.0833    2.6260 C   0  0  0  0  0  0  0  0  0  0  0  0
    0.8970   -0.3564    4.8391 C   0  0  0  0  0  0  0  0  0  0  0  0
   -0.1284    0.6125    4.3339 C   0  0  0  0  0  0  0  0  0  0  0  0
   -0.6114    2.5886    2.9913 C   0  0  0  0  0  0  0  0  0  0  0  0
    1.7464    2.0437    3.4923 C   0  0  0  0  0  0  0  0  0  0  0  0
    2.6037   -1.8483    4.7810 N   0  0  0  0  0  0  0  0  0  0  0  0
    1.7646   -1.0686    4.0445 N   0  0  0  0  0  0  0  0  0  0  0  0
    0.3383    1.7053    3.6557 N   0  0  0  0  0  0  0  0  0  0  0  0
   -1.3271    0.4012    4.5369 O   0  0  0  0  0  0  0  0  0  0  0  0
    2.1285   -1.0204   -1.2429 H   0  0  0  0  0  0  0  0  0  0  0  0
    4.1741   -1.2706    0.1568 H   0  0  0  0  0  0  0  0  0  0  0  0
   -0.1020   -0.8530   -0.1461 H   0  0  0  0  0  0  0  0  0  0  0  0
    3.9846   -1.3034    2.6448 H   0  0  0  0  0  0  0  0  0  0  0  0
   -0.2872   -0.9358    2.3212 H   0  0  0  0  0  0  0  0  0  0  0  0
    0.6860   -0.3374    7.0326 H   0  0  0  0  0  0  0  0  0  0  0  0
    2.7798   -2.1441    6.8421 H   0  0  0  0  0  0  0  0  0  0  0  0
   -0.5532    3.6004    3.4101 H   0  0  0  0  0  0  0  0  0  0  0  0
   -1.6180    2.1995    3.1358 H   0  0  0  0  0  0  0  0  0  0  0  0
   -0.3845    2.6393    1.9192 H   0  0  0  0  0  0  0  0  0  0  0  0
    2.0918    1.8253    2.4744 H   0  0  0  0  0  0  0  0  0  0  0  0
    2.3625    1.4904    4.1995 H   0  0  0  0  0  0  0  0  0  0  0  0
    1.8827    3.1135    3.6855 H   0  0  0  0  0  0  0  0  0  0  0  0
  1  2  1  0  0  0  0
  1  3  2  0  0  0  0
  1 17  1  0  0  0  0
  2  4  2  0  0  0  0
  2 18  1  0  0  0  0
  3  5  1  0  0  0  0
  3 19  1  0  0  0  0
  4  8  1  0  0  0  0
  4 20  1  0  0  0  0
  5  8  2  0  0  0  0
  5 21  1  0  0  0  0
  6  7  1  0  0  0  0
  6  9  2  0  0  0  0
  6 22  1  0  0  0  0
  7 13  2  0  0  0  0
  7 23  1  0  0  0  0
  8 14  1  0  0  0  0
  9 10  1  0  0  0  0
  9 14  1  0  0  0  0
 10 15  1  0  0  0  0
 10 16  2  0  0  0  0
 11 15  1  0  0  0  0
 11 24  1  0  0  0  0
 11 25  1  0  0  0  0
 11 26  1  0  0  0  0
 12 15  1  0  0  0  0
 12 27  1  0  0  0  0
 12 28  1  0  0  0  0
 12 29  1  0  0  0  0
 13 14  1  0  0  0  0
M  END
$$$$
