30   
torsion grid (-165,)
C        3.4267117631   -1.1098315080   -1.4133788988
C        2.3669828566   -3.2914704295   -2.4971761570
C        2.1746600959   -1.5966803305   -0.9624395232
C        4.0806330852   -1.7950926387   -2.4260659970
C        1.4411726912   -0.9094752613    0.0584811256
C        5.3255369105   -1.0052520532   -4.4571477054
C        6.4928412489   -2.4243635564   -2.7059588975
C       -0.6663646327   -0.1572089711    1.6090707017
C       -1.1312630032   -2.0010036791   -0.4863138819
C        5.4254130859   -1.3454904963   -2.9599553828
N        1.6489008823   -2.7156136864   -1.5289272339
N        3.5465327674   -2.9089681896   -2.9854804305
O        0.1242965498   -2.7195208713    1.7497804223
S        0.0880615504   -1.5829212654    0.7860360256
H        3.8648593629   -0.2192728654   -0.9704521795
H        1.9320877450   -4.1889075369   -2.9381289924
H        1.9093959169   -0.1369400746    0.6582491734
H        5.0197654713   -1.8878612232   -5.0259264122
H        6.2947208643   -0.6635546514   -4.8369298033
H        4.5897643935   -0.2136789963   -4.6358648595
H        6.2238086771   -3.3511237787   -3.2205196770
H        6.5877840781   -2.6442107425   -1.6372400398
H        7.4688817197   -2.0905706390   -3.0750997932
H       -1.5403345467   -0.5276548032    2.1470145835
H        0.0669655177    0.2269004229    2.3200826343
H       -0.9314552323    0.6044758734    0.8761959277
H       -2.0405461351   -2.3055871928    0.0356160860
H       -1.2924305194   -1.1360449258   -1.1304546540
H       -0.6942134714   -2.8239950531   -1.0491247112
H        5.7123077495   -0.4377325433   -2.4152853699
30   
torsion grid (-150,)
C        3.5251649381   -1.1285994661   -1.3489860119
C        2.3753860102   -3.2020242449   -2.5442787283
C        2.2709509764   -1.6113102884   -0.8936917770
C        4.1316360005   -1.7605285121   -2.4226795817
C        1.5990325591   -0.9645902836    0.1914237833
C        5.3444662191   -0.8613311089   -4.4278480446
C        6.5145695221   -2.4369832774   -2.8181840528
C       -0.6286032041    0.0039378534    1.4546968826
C       -0.9545494357   -2.0825075662   -0.4095108520
C        5.4744404202   -1.3122132965   -2.9625424350
N        1.7013548525   -2.6774564515   -1.5161024747
N        3.5501028576   -2.8187749799   -3.0416911846
O        0.1234635709   -2.5046763184    2.0003417338
S        0.1771973810   -1.5164596582    0.8850559436
H        3.9999080384   -0.2810944429   -0.8616043117
H        1.9024139219   -4.0550675378   -3.0320917964
H        2.1052382594   -0.2221956423    0.7985750121
H        4.9953743797   -1.6907792564   -5.0492935904
H        6.3132434151   -0.5219071223   -4.8106943980
H        4.6296688368   -0.0372626885   -4.5273953744
H        6.2030976721   -3.3158701741   -3.3896498977
H        6.6318679140   -2.7363079579   -1.7712156678
H        7.4899938999   -2.1055896419   -3.1910780542
H       -1.5257653435   -0.2878177639    2.0037063893
H        0.0695882937    0.5046748903    2.1277434790
H       -0.8589390715    0.6397269670    0.6000304197
H       -1.9414636873   -2.1312177853    0.0560630151
H       -0.9262038608   -1.3929415736   -1.2528079316
H       -0.6060794674   -3.0654319764   -0.7154370812
H        5.8040283679   -0.4551008075   -2.3627710213
30   
torsion grid (-135,)
C        3.5573545982   -1.1880691210   -1.2881223280
C        2.3188909500   -3.1000518892   -2.6481803202
C        2.2786606589   -1.6469321452   -0.8724602635
C        4.1377047070   -1.7557673358   -2.4099145029
C        1.6535105035   -1.0505858614    0.2679336065
C        5.3910703137   -0.7438652824   -4.3341792420
C        6.4884105125   -2.5025808711   -2.8694153797
C       -0.6821044173    0.0625513545    1.2757008627
C       -0.8622664148   -2.2919435458   -0.2513034278
C        5.4999846379   -1.3241492356   -2.9132810604
N        1.6638422802   -2.6303940172   -1.5812278108
N        3.5107858975   -2.7328010014   -3.1138638300
O        0.1427520883   -2.2666620727    2.2453143907
S        0.2015640920   -1.4947847846    0.9712661660
H        4.0696334454   -0.4069257354   -0.7327231276
H        1.8087356972   -3.8880982926   -3.2034933287
H        2.2019815925   -0.3492391134    0.8884421060
H        5.0049963785   -1.5003493421   -5.0232079749
H        6.3743292009   -0.4169472677   -4.6900399472
H        4.7143579450    0.1171306605   -4.3601701146
H        6.1380396506   -3.3144647107   -3.5129363714
H        6.5918489123   -2.8953388874   -1.8522936339
H        7.4778605019   -2.1844527948   -3.2159838554
H       -1.6030016135   -0.1694887463    1.8147058849
H       -0.0302828956    0.6764422060    1.9000483187
H       -0.8746073032    0.5597429530    0.3247661517
H       -1.8563699931   -2.3034015284    0.2018154931
H       -0.8339804034   -1.7442592776   -1.1918820118
H       -0.4797501337   -3.2984363120   -0.3993264021
H        5.8674510697   -0.5372071711   -2.2434785627
30   
torsion grid (-120,)
C        3.5723138177   -1.1881800213   -1.2898173201
C        2.1665923844   -2.8224871984   -2.8351268139
C        2.2417796640   -1.5386107471   -0.9336606456
C        4.1140994757   -1.7134140650   -2.4505624598
C        1.6670908078   -0.9791873343    0.2517310397
C        5.5119992673   -0.6790075800   -4.2595630827
C        6.3813540512   -2.6680994280   -2.9440271142
C       -0.8545914748    0.0524283776    1.0570441677
C       -0.7131647586   -2.5550170891    0.0180033198
C        5.5258879653   -1.3900457241   -2.8950833025
N        1.5381907494   -2.3739839886   -1.7431226858
N        3.4025564715   -2.5512848756   -3.2478638493
O        0.3113489137   -1.8617371554    2.4353204735
S        0.2427813315   -1.4005868310    1.0202045389
H        4.1537723061   -0.5229720224   -0.6571730950
H        1.5862570534   -3.4952450958   -3.4679734443
H        2.2714476848   -0.3560477700    0.9037270089
H        5.0637652385   -1.3259227331   -5.0189581655
H        6.5324210601   -0.4301693379   -4.5711901292
H        4.9314749638    0.2489139417   -4.2172919605
H        5.9608767680   -3.3777160553   -3.6621675748
H        6.4193786311   -3.1571567830   -1.9647819688
H        7.4067040923   -2.4301107157   -3.2478557867
H       -1.7711491877   -0.2108643958    1.5900630868
H       -0.3100868584    0.8244386786    1.6039055260
H       -1.0524145899    0.3798709817    0.0353015203
H       -1.6466791617   -2.6876982515    0.5700527448
H       -0.8592811931   -2.1604924676   -0.9851202915
H       -0.1489988771   -3.4840068977   -0.0340625661
H        5.9600267548   -0.7095093714   -2.1526420714
30   
torsion grid (-105,)
C        3.6114732203   -1.1673414459   -1.2582272027
C        2.0346919391   -2.4866250688   -2.9377260165
C        2.2436848538   -1.3776995529   -0.9378199784
C        4.0984744439   -1.6590456282   -2.4575697720
C        1.7089900803   -0.8540420847    0.2793031194
C        5.6295276228   -0.6527904842   -4.1708218505
C        6.2396418853   -2.8367513815   -3.0301651974
C       -1.0071230927   -0.0336758555    0.7876300651
C       -0.4792144353   -2.7400068205    0.2337433215
C        5.5437821413   -1.4736145404   -2.8720636111
N        1.4498115339   -2.0459284500   -1.8186981271
N        3.3004619027   -2.3380500255   -3.3216841526
O        0.3654250377   -1.4863325377    2.4992376233
S        0.2783100469   -1.3027541414    1.0250038182
H        4.2618197604   -0.6353070410   -0.5692135340
H        1.3850630011   -3.0293330564   -3.6257160643
H        2.3410010257   -0.3304984682    0.9884980927
H        5.1150652603   -1.1743118265   -4.9828926507
H        6.6756488975   -0.5030131029   -4.4596931630
H        5.1639903518    0.3312145857   -4.0494210258
H        5.7438691858   -3.4271709294   -3.8058469637
H        6.2094438229   -3.4078388586   -2.0960309443
H        7.2890339415   -2.6993352405   -3.3132547259
H       -1.9339987143   -0.3641452514    1.2629958859
H       -0.6228092122    0.8609284380    1.2804760349
H       -1.1378555870    0.1453978631   -0.2813610663
H       -1.3548243578   -2.9620479711    0.8480849228
H       -0.7186507780   -2.5177055811   -0.8033144980
H        0.2484280946   -3.5498614528    0.2817824713
H        6.0489250457   -0.9158195776   -2.0742889825
30   
torsion grid (-90,)
C        3.6905090833   -1.1901171599   -1.2422149741
C        1.9528820746   -2.2193749514   -2.9710157221
C        2.3166921074   -1.2908314169   -0.8999420305
C        4.0992230976   -1.6350570226   -2.4884419211
C        1.8267341564   -0.8122107219    0.3503702923
C        5.6868155700   -0.6622658699   -4.1696796797
C        6.0997299252   -2.9720699104   -3.2015843091
C       -0.9794118320   -0.2229902332    0.4618927270
C       -0.2018530295   -2.9313910711    0.4218995773
C        5.5466795372   -1.5622430830   -2.9294463869
N        1.4387933942   -1.8111085244   -1.8057934555
N        3.2191826935   -2.1651240126   -3.3773609178
O        0.3551188730   -1.2837004989    2.5006429714
S        0.3629522919   -1.3109016123    1.0142443510
H        4.4039502839   -0.7754593686   -0.5352725786
H        1.2389742230   -2.6425775878   -3.6789122913
H        2.4855058872   -0.4738715800    1.1421918645
H        5.1062905982   -1.0709238519   -5.0015725903
H        6.7364991346   -0.5953487522   -4.4761248294
H        5.3243995473    0.3512542175   -3.9670587311
H        5.5314124284   -3.4536233535   -4.0023396521
H        6.0326424895   -3.6033771967   -2.3089904003
H        7.1513779099   -2.9180398372   -3.5037699853
H       -1.9302777946   -0.5917119168    0.8544825596
H       -0.7386586230    0.7558010412    0.8788743606
H       -0.9730184584   -0.1909559948   -0.6297005178
H       -1.1202407143   -3.1409808796    0.9745329560
H       -0.3415543938   -2.8963199134   -0.6562730197
H        0.5819721572   -3.6417575045    0.6884900570
H        6.1214622119   -1.1156468372   -2.1091471769
30   
torsion grid (-75,)
C        3.7199572324   -1.2017420675   -1.2132530188
C        1.9107045847   -2.0868330374   -2.9506938211
C        2.3499472183   -1.2655133530   -0.8469600407
C        4.0868857283   -1.6058781668   -2.4855988368
C        1.8912954323   -0.8304140272    0.4282924061
C        5.6776094827   -0.6116209507   -4.1505721603
C        6.0178248049   -2.9818978346   -3.3082604608
C       -0.8840494584   -0.2313074490    0.1409505037
C       -0.1628643675   -2.9237697264    0.5809312114
C        5.5268754614   -1.5673967436   -2.9540243810
N        1.4354156572   -1.7184016093   -1.7556605961
N        3.1696437941   -2.0603294836   -3.3799518115
O        0.2122906591   -1.0227096791    2.4597834256
S        0.3577806266   -1.2318896385    0.9969501410
H        4.4614534181   -0.8427101150   -0.5047584306
H        1.1676354159   -2.4508570081   -3.6614721284
H        2.5491495729   -0.5846273202    1.2534624737
H        5.0646522529   -0.9547337050   -4.9888018563
H        6.7227131394   -0.5698317524   -4.4764529684
H        5.3599325376    0.4035127758   -3.8894231526
H        5.4150938517   -3.3998714622   -4.1194657053
H        5.9434136874   -3.6546439848   -2.4470604039
H        7.0645900142   -2.9532673143   -3.6301673141
H       -1.8790422478   -0.5466903815    0.4636539545
H       -0.6793018124    0.7955965483    0.4458402129
H       -0.7387220987   -0.3606316104   -0.9332551390
H       -1.1884554107   -3.0415232525    0.9371567966
H       -0.0705684177   -3.0618740316   -0.4955450789
H        0.5149634899   -3.5803523987    1.1286251397
H        6.1352327556   -1.1853933013   -2.1253772220
30   
torsion grid (-60,)
C        3.7258469684   -1.2682557685   -1.1582938549
C        1.9004280729   -2.1094342033   -2.9013006470
C        2.3626149150   -1.3692182826   -0.7715431777
C        4.0767971603   -1.6144842733   -2.4513301731
C        1.9290373913   -1.0212461407    0.5357947165
C        5.6241598207   -0.5301790352   -4.1020407230
C        6.0129616077   -2.9263678854   -3.3610882540
C       -0.7853951141   -0.2421984941   -0.0067263499
C       -0.2664971885   -2.9026536319    0.7256411681
C        5.5076463749   -1.5346719302   -2.9421947520
N        1.4404739888   -1.8029976265   -1.6825193186
N        3.1507906892   -2.0454974536   -3.3494678112
O        0.1212927933   -0.8671188052    2.4582763066
S        0.3362799734   -1.2172133638    1.0323837579
H        4.4735796790   -0.9252871727   -0.4484240849
H        1.1504412082   -2.4545825980   -3.6142890137
H        2.5738574831   -0.7056033791    1.3455042996
H        5.0017996074   -0.8488776695   -4.9429824223
H        6.6627867961   -0.4600814190   -4.4434449831
H        5.2968452066    0.4691040763   -3.7955007116
H        5.4027326820   -3.3206093434   -4.1785488774
H        5.9628627025   -3.6341048107   -2.5266360960
H        7.0535998589   -2.8689143319   -3.6986879675
H       -1.8124778062   -0.4710686552    0.2861196905
H       -0.5430144373    0.8002749519    0.2043850034
H       -0.5828011746   -0.4963485708   -1.0479996174
H       -1.3282163281   -2.9335471770    0.9800140653
H       -0.0806041532   -3.1426638702   -0.3215621063
H        0.3114928867   -3.5442790900    1.3924216792
H        6.1247455803   -1.1769068740   -2.1092036135
30   
torsion grid (-45,)
C        3.7540418477   -1.3516655455   -1.1590785074
C        1.9132284723   -2.1664944655   -2.8978200256
C        2.4025484545   -1.5034657929   -0.7490329949
C        4.0860381774   -1.6362902174   -2.4720854633
C        1.9980349997   -1.2526941525    0.5910486931
C        5.5709586180   -0.4521434708   -4.1123964940
C        6.0354081012   -2.8625496785   -3.4668210963
C       -0.6488474571   -0.2553650654   -0.1118820027
C       -0.3516757199   -2.8561460558    0.8507857280
C        5.5037608362   -1.5002603221   -2.9878964200
N        1.4729734221   -1.9257464011   -1.6571710481
N        3.1518560698   -2.0530545084   -3.3682368213
O        0.1680931166   -0.7214583363    2.4300378756
S        0.3797872475   -1.2093289021    1.0454042031
H        4.5079389936   -1.0182653399   -0.4511518946
H        1.1565493763   -2.4998754856   -3.6093033386
H        2.6391915233   -0.8281839658    1.3532530015
H        4.9394478718   -0.7563092853   -4.9518754842
H        6.6001899466   -0.3430291257   -4.4715003799
H        5.2252063232    0.5267520878   -3.7631658176
H        5.4189359416   -3.2428051729   -4.2862420713
H        6.0198241141   -3.6008229019   -2.6579046799
H        7.0672537767   -2.7661378705   -3.8220634440
H       -1.6884344261   -0.3587763203    0.2062235896
H       -0.3171564448    0.7802959681   -0.0219879023
H       -0.4756186449   -0.6440432789   -1.1152756352
H       -1.4239649512   -2.7900640554    1.0483113586
H       -0.1372525979   -3.1925258847   -0.1649391885
H        0.1440794979   -3.4862614092    1.5905471711
H        6.1285011914   -1.1567699336   -2.1545931038
30   
torsion grid (-30,)
C        3.7526419095   -1.4277629808   -1.1540748591
C        1.9257292349   -2.1667641867   -2.9392561213
C        2.4010876974   -1.6077600579   -0.7595009682
C        4.0936928580   -1.6469385734   -2.4781683352
C        1.9952979973   -1.4471395430    0.5976504247
C        5.5817669047   -0.3874606509   -4.0598597660
C        6.0572807005   -2.8188665481   -3.5073415358
C       -0.6004493862   -0.3405850180   -0.2285554111
C       -0.4652798185   -2.8075047902    1.0183952077
C        5.5136833809   -1.4797916787   -2.9785163968
N        1.4797903377   -1.9954928148   -1.6897273521
N        3.1665681850   -2.0231509961   -3.3976550482
O        0.2159406094   -0.5684651284    2.3622516681
S        0.3850749361   -1.2066548837    1.0338270317
H        4.5005346924   -1.1221139185   -0.4274915038
H        1.1747669610   -2.4685507916   -3.6705614181
H        2.6468753530   -1.0200853053    1.3518358387
H        4.9579456978   -0.6618118884   -4.9151801925
H        6.6126970835   -0.2577624634   -4.4070119471
H        5.2273887712    0.5746700770   -3.6745038793
H        5.4488734449   -3.1699257334   -4.3456394981
H        6.0407032353   -3.5887484488   -2.7284953010
H        7.0909072921   -2.7021951533   -3.8511220405
H       -1.6245814891   -0.3021837143    0.1483637756
H       -0.1828100795    0.6640354971   -0.3143638054
H       -0.5087476324   -0.8858967646   -1.1663022880
H       -1.5285510320   -2.6548168731    1.2182124662
H       -0.2917615310   -3.2599272840    0.0398710995
H        0.0006633907   -3.3983125269    1.8082086990
H        6.1305233733   -1.1661897916   -2.1277352690
30   
torsion grid (-15,)
C        3.7401730549   -1.4948530412   -1.2001278437
C        1.9425138599   -2.0166886502   -3.0851313210
C        2.3700655590   -1.6434878966   -0.8583167797
C        4.1146285432   -1.6314810135   -2.5263982396
C        1.9471165840   -1.5551781900    0.5024218891
C        5.7074667590   -0.3209680921   -3.9572486092
C        6.0571680223   -2.8081319900   -3.5902812334
C       -0.6789515772   -0.6037881625   -0.3210619471
C       -0.4927806008   -2.8089531781    1.3434333895
C        5.5562588373   -1.4916914121   -2.9704604995
N        1.4661545467   -1.9237523463   -1.8388086549
N        3.2021732248   -1.8947035807   -3.4974882194
O        0.2742571441   -0.4206111476    2.2394318516
S        0.3754573101   -1.2455704723    1.0082761819
H        4.4766923465   -1.2729836938   -0.4326696899
H        1.2024214080   -2.2284690405   -3.8579679022
H        2.6380557005   -1.2893443572    1.2949445463
H        5.1002661857   -0.4971003586   -4.8496214313
H        6.7538327628   -0.2119692487   -4.2629354214
H        5.3832661290    0.6227145884   -3.5055029695
H        5.4611029888   -3.0627236552   -4.4712000641
H        5.9816521243   -3.6360593896   -2.8771933754
H        7.1054621591   -2.7126869261   -3.8939112670
H       -1.6487491860   -0.4198310633    0.1464457739
H       -0.2304468451    0.3287404526   -0.6659423173
H       -0.7144219341   -1.3274599677   -1.1319638456
H       -1.5308343071   -2.6005220859    1.6144575440
H       -0.4220180295   -3.4356077288    0.4521413158
H        0.0389905644   -3.2699738454    2.1773225894
H        6.1584651555   -1.2758289009   -2.0796866575
30   
torsion grid (0,)
C        3.7012776756   -1.5079362981   -1.2681426100
C        1.9510584658   -1.7119982729   -3.2522112085
C        2.3085282000   -1.5493931285   -0.9900472772
C        4.1214712670   -1.5785454010   -2.5855544092
C        1.8613863489   -1.5098794374    0.3682893708
C        5.8880101580   -0.3192197442   -3.8477085998
C        5.9962209905   -2.8485865913   -3.6645769736
C       -0.8307945586   -0.8753500528   -0.4197700247
C       -0.4108672411   -2.7035213828    1.6462242369
C        5.5883546539   -1.5414479195   -2.9624565634
N        1.4295593155   -1.6637146707   -2.0216187176
N        3.2333036397   -1.6811150148   -3.6077597109
O        0.2031100418   -0.1653456440    2.0075318682
S        0.3195774591   -1.1915680560    0.9361536064
H        4.4208514550   -1.4159916357   -0.4591278812
H        1.2292048537   -1.7945358251   -4.0658482239
H        2.5771526641   -1.4002857746    1.1766182366
H        5.3082998609   -0.3711613661   -4.7736006315
H        6.9526652119   -0.2849538950   -4.1038074108
H        5.6291148983    0.6138502533   -3.3358887276
H        5.4191542243   -2.9802633989   -4.5842527615
H        5.8154178590   -3.7169764593   -3.0219475253
H        7.0612241068   -2.8284407748   -3.9207589707
H       -1.7873247878   -0.6839468431    0.0721111701
H       -0.4771687872    0.0082547336   -0.9494396720
H       -0.8540300978   -1.7240899594   -1.0990536053
H       -1.4179841746   -2.4812690409    2.0074637922
H       -0.4121701955   -3.4862959753    0.8857757355
H        0.2374561244   -2.9837005445    2.4783935989
H        6.1670543111   -1.4496465417   -2.0353952936
30   
torsion grid (15,)
C        3.6839442070   -1.5247535985   -1.3017351971
C        1.9882578332   -1.3563669343   -3.3342142930
C        2.2865274596   -1.4312351191   -1.0597214574
C        4.1368550378   -1.5271806095   -2.6099509070
C        1.8102359165   -1.4549022104    0.2896477339
C        6.0707570720   -0.3656953814   -3.7088988268
C        5.8963765802   -2.8974806980   -3.7595250605
C       -0.9299290659   -1.2631495730   -0.5051704229
C       -0.2162373153   -2.6166437328    1.8653563749
C        5.6106088003   -1.6215787871   -2.9483016632
N        1.4357258936   -1.3466719816   -2.1163826364
N        3.2765992795   -1.4422699273   -3.6571982565
O       -0.0229085330    0.0054781083    1.7023471540
S        0.2576249533   -1.1841554860    0.8490806161
H        4.3828453636   -1.5897219762   -0.4721271762
H        1.2883899802   -1.2852929883   -4.1678585230
H        2.5181649057   -1.4498158066    1.1127633705
H        5.5194819539   -0.2690838055   -4.6484696029
H        7.1406512743   -0.4275360179   -3.9365239208
H        5.8982247753    0.5405061736   -3.1185200731
H        5.3384506611   -2.8808134319   -4.7000345920
H        5.6012799414   -3.7946249233   -3.2046063336
H        6.9649849475   -2.9732781993   -3.9889555684
H       -1.9069409860   -1.2306621172   -0.0171595651
H       -0.7673317122   -0.3850587860   -1.1259990387
H       -0.7773445289   -2.1626660738   -1.0981075974
H       -1.2048695349   -2.4299417611    2.2905587299
H       -0.1942878502   -3.5180454251    1.2516327431
H        0.5274686610   -2.6818257426    2.6617592473
H        6.1651356757   -1.6785830040   -2.0037764664
30   
torsion grid (30,)
C        2.9141838344   -1.0921486579   -2.2256952125
C        3.2021475948   -3.4838392758   -1.1126459771
C        1.8748516938   -1.6386086995   -1.4268366111
C        4.0718027778   -1.8299322907   -2.4096006427
C        0.6823843817   -0.8814655543   -1.2015164759
C        5.4639187531   -2.2532854277   -4.4530569979
C        6.4942827475   -1.1731345332   -2.4001726419
C       -0.2109031388   -2.5750680972    0.9165847359
C       -1.2176050945    0.0632302930    0.5700871473
C        5.2224171902   -1.3203611925   -3.2534025084
N        2.0408047784   -2.8675077352   -0.8698340544
N        4.2294510406   -3.0528346938   -1.8419291432
O       -1.8883272988   -1.9175170854   -1.0587838166
S       -0.6755809942   -1.3919926353   -0.3671118115
H        2.7998309615   -0.1138839030   -2.6850945696
H        3.3169702234   -4.4676682484   -0.6560694516
H        0.5058018480    0.0424784345   -1.7420434114
H        5.7254996112   -3.2566531143   -4.1053870123
H        6.2834764952   -1.8738731062   -5.0733018866
H        4.5690425159   -2.3330074099   -5.0794226872
H        6.7870980860   -2.1425396326   -1.9871588974
H        6.3341807937   -0.4820206283   -1.5655082999
H        7.3204634097   -0.7890257117   -3.0086157432
H       -1.0790731645   -2.6406604386    1.5765204399
H       -0.0174412332   -3.5179992813    0.4122897950
H        0.6859626575   -2.2402651876    1.4362170993
H       -2.1619264212   -0.1861280683    1.0577745398
H       -0.4463984597    0.3481236655    1.2861916470
H       -1.3750935142    0.8603432228   -0.1586160462
H        4.9422417489   -0.3305770194   -3.6339001691
30   
torsion grid (45,)
C        2.9342886542   -1.0789831617   -2.1407119052
C        3.1243191294   -3.5508866830   -1.1898776999
C        1.8812058056   -1.6304146467   -1.3668369533
C        4.0559040333   -1.8548853370   -2.3870896607
C        0.7202410689   -0.8510720207   -1.0617359509
C        5.4029846177   -2.2023406192   -4.4744790253
C        6.5067206761   -1.3133712512   -2.3686880031
C       -0.1383197944   -2.4787734898    1.1187911806
C       -1.3719494000    0.0037326169    0.4771054534
C        5.2196554072   -1.3429991512   -3.2112439173
N        1.9957922528   -2.8995428916   -0.8927385411
N        4.1628315152   -3.1177321655   -1.9030367607
O       -1.7302729395   -2.1953928837   -0.9936353421
S       -0.6368416378   -1.4614762257   -0.2924306532
H        2.8592680902   -0.0686095321   -2.5340609833
H        3.1988834565   -4.5670532542   -0.8011795500
H        0.5371526418    0.0963131523   -1.5563539969
H        5.6207506756   -3.2380822158   -4.1990497685
H        6.2324632917   -1.8200897314   -5.0796067992
H        4.4982638592   -2.1977618160   -5.0916941253
H        6.7581861899   -2.3212379454   -2.0266356300
H        6.3889512844   -0.6742767932   -1.4868680766
H        7.3429991389   -0.9271529526   -2.9618027645
H       -1.0360733475   -2.6178986679    1.7250457339
H        0.2143065536   -3.4178672115    0.6998736177
H        0.6626892920   -1.9845373405    1.6686361310
H       -2.3218326455   -0.3052808811    0.9165020032
H       -0.6910372719    0.4173959592    1.2210095603
H       -1.5521950136    0.7241529232   -0.3224874929
H        4.9822737005   -0.3176344997   -3.5199040104
30   
torsion grid (60,)
C        3.0021220894   -1.0610360221   -2.0364179523
C        3.1058000212   -3.5912851232   -1.2324756787
C        1.9508887732   -1.6089446878   -1.2609751439
C        4.0782334552   -1.8722095663   -2.3641501415
C        0.8279637630   -0.8113982083   -0.8650492452
C        5.3410418063   -2.1562164306   -4.5130574691
C        6.5515113560   -1.4474119819   -2.3974543096
C       -0.1032413378   -2.3875871489    1.3140271130
C       -1.4615053863   -0.0673551630    0.4037946412
C        5.2390368554   -1.3665026555   -3.1963066646
N        2.0219980814   -2.9060371017   -0.8582402751
N        4.1393927291   -3.1642629203   -1.9577030174
O       -1.4939781722   -2.3836296363   -0.9538834196
S       -0.5488287699   -1.5075717651   -0.2051179493
H        2.9617409623   -0.0273698725   -2.3698241992
H        3.1452027048   -4.6302598024   -0.9040476639
H        0.6422138152    0.1548009338   -1.3208466571
H        5.5161878110   -3.2156837654   -4.3060009002
H        6.1691963338   -1.7778093637   -5.1224061959
H        4.4190189643   -2.0721662040   -5.0981429852
H        6.7641827442   -2.4846301754   -2.1236735115
H        6.4922170557   -0.8577133207   -1.4762460846
H        7.3867468363   -1.0656303632   -2.9948973725
H       -1.0322568805   -2.7504874574    1.7579075937
H        0.5357481535   -3.2087079657    0.9918829891
H        0.4379791368   -1.7117235170    1.9769580151
H       -2.3928412581   -0.4419300269    0.8310437942
H       -0.8672532790    0.4766262890    1.1377017828
H       -1.6808656086    0.5595652255   -0.4619600006
H        5.0421241666   -0.3145340681   -3.4363052357
30   
torsion grid (75,)
C        3.0732182371   -1.0299588489   -1.9468277814
C        3.1215499806   -3.5971973357   -1.2550810031
C        2.0380154431   -1.5784801450   -1.1546309981
C        4.1078179627   -1.8620314879   -2.3521908958
C        0.9495619901   -0.7818953825   -0.6612456213
C        5.2804036967   -2.0947317839   -4.5582232346
C        6.5902563964   -1.5132498156   -2.4630917401
C       -0.1719234428   -2.3618170742    1.4199233056
C       -1.5293541508   -0.1721662154    0.2738955757
C        5.2526058892   -1.3582071104   -3.2075090172
N        2.0816378821   -2.8921256072   -0.8042890899
N        4.1389765127   -3.1713277490   -2.0053702866
O       -1.2402888930   -2.5166842816   -1.0199166270
S       -0.4625513235   -1.5639548981   -0.1808289002
H        3.0539756303    0.0177658102   -2.2352629539
H        3.1387022235   -4.6503590047   -0.9737755187
H        0.7533333382    0.1957903103   -1.0903094941
H        5.4285544152   -3.1668188953   -4.4012094455
H        6.0973800411   -1.7168326325   -5.1828026366
H        4.3406542704   -1.9579553143   -5.1038507766
H        6.7792229271   -2.5672756890   -2.2409638487
H        6.5837692105   -0.9619626034   -1.5165860856
H        7.4148997821   -1.1320770617   -3.0754732464
H       -1.1114575518   -2.8151778057    1.7422790145
H        0.5864960124   -3.1206528891    1.2264663258
H        0.1942277912   -1.6156487709    2.1254320200
H       -2.4429724883   -0.5987268739    0.6901907218
H       -1.0248743800    0.4767838980    0.9894398400
H       -1.7612688475    0.3639012831   -0.6476713283
H        5.0814294585   -0.2914424843   -3.3965893236
30   
torsion grid (90,)
C        3.1180595516   -1.0111533474   -1.8569288276
C        3.1024728492   -3.6052174483   -1.2634288582
C        2.0996717008   -1.5559758274   -1.0435832787
C        4.1063552270   -1.8625546338   -2.3348036638
C        1.0539010214   -0.7564034459   -0.4624952237
C        5.1922471973   -2.0523197445   -4.5896012514
C        6.5928554764   -1.5885055905   -2.5241156933
C       -0.3483791129   -2.2099788079    1.5503416150
C       -1.5363627764   -0.1380003551    0.0978473252
C        5.2357489160   -1.3645911068   -3.2139289466
N        2.1123647476   -2.8812852756   -0.7387206812
N        4.1030460663   -3.1839896421   -2.0404924134
O       -1.0519639773   -2.5563263616   -1.0053556382
S       -0.4079746487   -1.5393832930   -0.1332229719
H        3.1233119243    0.0466910413   -2.1066052582
H        3.0937545660   -4.6685421698   -1.0233564782
H        0.8834491815    0.2436414564   -0.8518141876
H        5.3103174625   -3.1334976931   -4.4754060717
H        5.9988849676   -1.6781832078   -5.2297214120
H        4.2389683904   -1.8664403344   -5.0958704485
H        6.7546052921   -2.6553583050   -2.3460052210
H        6.6374331974   -1.0719985808   -1.5592081232
H        7.4078039837   -1.2117287336   -3.1520353825
H       -1.3179905249   -2.6577326643    1.7785169794
H        0.4353634102   -2.9689336294    1.5337673267
H       -0.0888036338   -1.4034594227    2.2360831053
H       -2.4676121318   -0.5409013882    0.4983398784
H       -1.0962217636    0.5958877799    0.7731160518
H       -1.7127409072    0.2901787688   -0.8898759648
H        5.0932220535   -0.2867558390   -3.3590872092
30   
torsion grid (105,)
C        3.1559590147   -1.0658185143   -1.7743317990
C        3.1573263562   -3.6900290256   -1.3420032542
C        2.1690860566   -1.6612568210   -0.9570981373
C        4.1250689255   -1.8849049290   -2.3402753005
C        1.1485490079   -0.8895333603   -0.2953420975
C        5.1293574162   -1.9362503975   -4.6401609767
C        6.6031815209   -1.5940454869   -2.6022816145
C       -0.5502535089   -2.0978282657    1.6813634543
C       -1.4898466873   -0.1954775336   -0.1039884114
C        5.2220604454   -1.3323581571   -3.2281063600
N        2.1922538782   -3.0006187939   -0.7316188964
N        4.1292989684   -3.2215591545   -2.1294996161
O       -0.8951469250   -2.7223049942   -0.8948085630
S       -0.3597319847   -1.6184409380   -0.0611294859
H        3.1519534892    0.0050632477   -1.9611420342
H        3.1556989283   -4.7662102588   -1.1682290172
H        1.0234353357    0.1479315878   -0.5927199109
H        5.2511028509   -3.0220999268   -4.5951676980
H        5.9125155556   -1.5229123075   -5.2853701560
H        4.1584587602   -1.7224209467   -5.0998749962
H        6.7710944249   -2.6692911099   -2.4939787868
H        6.6824143940   -1.1359610817   -1.6104739763
H        7.3951138228   -1.1788441733   -3.2354719150
H       -1.5588699051   -2.4891840871    1.8318510251
H        0.1948694732   -2.8747271068    1.8627294178
H       -0.3451282249   -1.2248400719    2.3013717795
H       -2.4643139401   -0.5445113204    0.2409676170
H       -1.1108133828    0.6066292048    0.5303886089
H       -1.5513169035    0.1222034610   -1.1456456326
H        5.0744090523   -0.2479840386   -3.3029706373
30   
torsion grid (120,)
C        3.1771129743   -1.1583541142   -1.6856733337
C        3.1458092822   -3.8065553031   -1.4902379048
C        2.1932374385   -1.8116418567   -0.9051826796
C        4.1259162689   -1.9343045000   -2.3380140182
C        1.2087450137   -1.0565733784   -0.1741520448
C        5.1001357680   -1.7915916858   -4.6475179491
C        6.6037169515   -1.6483751705   -2.6080526747
C       -0.6759340270   -1.8097506314    1.8726853294
C       -1.4466637977   -0.2685671023   -0.2926343600
C        5.2179047779   -1.3169571732   -3.1888601924
N        2.2016957482   -3.1638523471   -0.8006993724
N        4.1134132226   -3.2845323174   -2.2493797084
O       -0.8213157171   -2.9030545551   -0.5625341158
S       -0.3391550544   -1.6656928011    0.0875503044
H        3.1855201936   -0.0750424483   -1.7777237624
H        3.1305203509   -4.8939912985   -1.4131710827
H        1.1784118100    0.0198498826   -0.3133331044
H        5.2081923094   -2.8785146445   -4.7006822083
H        5.8804405851   -1.3318487609   -5.2642523140
H        4.1263795720   -1.5263175059   -5.0732941426
H        6.7593857314   -2.7308517386   -2.5972444402
H        6.7012994213   -1.2807850569   -1.5808428413
H        7.3927576034   -1.1879536686   -3.2130549037
H       -1.7227529843   -2.0860048394    2.0197261186
H       -0.0137664586   -2.5959382373    2.2404371613
H       -0.4307375804   -0.8593485724    2.3490934108
H       -2.4510900875   -0.5364941584    0.0404369232
H       -1.0951887930    0.6343330308    0.2096296566
H       -1.4207678057   -0.1465767290   -1.3762443674
H        5.0826994821   -0.2285452748   -3.1650955534
30   
torsion grid (135,)
C        3.1992939483   -1.0400681940   -1.7441050696
C        2.5748209039   -3.5083720729   -2.5017322071
C        1.9507631859   -1.6066918567   -1.3943621256
C        4.0837863864   -1.8025068125   -2.4955663331
C        0.9740096413   -0.8554087377   -0.6479769383
C        5.5457399995   -1.2247044798   -4.4514788377
C        6.5659418127   -2.1283450733   -2.3105638099
C       -0.0282786190   -0.5794322147    1.9220525968
C       -1.7737561556   -1.5570330125   -0.1118133693
C        5.4400474283   -1.2731027291   -2.9172568931
N        1.6384181750   -2.8611091351   -1.8059410483
N        3.7766876476   -3.0632662120   -2.8792060982
O        0.1891336544   -3.0370620659    0.8613955031
S       -0.0452274083   -1.6346845645    0.4438281430
H        3.4628777127   -0.0346897923   -1.4251304739
H        2.3204715377   -4.5230503820   -2.8090179447
H        1.2588693873    0.1243633475   -0.2758121725
H        5.4341957866   -2.2291554382   -4.8694241894
H        6.5197240426   -0.8256436466   -4.7559391118
H        4.7651412320   -0.5887099008   -4.8827387730
H        6.4856588320   -3.1613439531   -2.6604892286
H        6.5125892323   -2.1356339430   -1.2165190448
H        7.5459285238   -1.7351424063   -2.6032049164
H       -0.8180473201   -0.9282155744    2.5903081033
H        0.9525925293   -0.7394224044    2.3705704682
H       -0.1736199581    0.4692712671    1.6560564024
H       -2.4153377199   -2.0104626881    0.6473260281
H       -2.0412756111   -0.5182587090   -0.3129701473
H       -1.7947842767   -2.1385330572   -1.0354492665
H        5.5328883131   -0.2508015597   -2.5302825202
30   
torsion grid (150,)
C        3.2757444055   -0.9734230563   -1.6631212126
C        2.4620296493   -3.3621754855   -2.5041205679
C        2.0066166782   -1.4721908822   -1.2934013442
C        4.0823892888   -1.7606864765   -2.4752251055
C        1.0843813875   -0.7174825773   -0.4846769893
C        5.5203315810   -1.1928442002   -4.4516057698
C        6.5394959067   -2.2643505982   -2.3887106112
C       -0.2009195672   -0.4411205097    1.9220734590
C       -1.5530189020   -1.8090302130   -0.2300231623
C        5.4585441268   -1.3060305848   -2.9183565284
N        1.5976347440   -2.6870309786   -1.7448461506
N        3.6777770944   -2.9793072315   -2.9028909381
O        0.4278039893   -2.9102343258    1.1269571084
S        0.0681247675   -1.5888841377    0.5472738593
H        3.6149584852   -0.0018707921   -1.3129525722
H        2.1302279631   -4.3427342511   -2.8459350646
H        1.4541236850    0.1756886053    0.0116144628
H        5.3265906705   -2.1665753413   -4.9102669806
H        6.5100865610   -0.8473505625   -4.7701896391
H        4.7734198188   -0.4852962874   -4.8275070097
H        6.3772059732   -3.2714606954   -2.7828248716
H        6.5182518523   -2.3204276028   -1.2950514542
H        7.5351961768   -1.9250688041   -2.6952298763
H       -0.9996442435   -0.8562657346    2.5387334843
H        0.7376849239   -0.4358668424    2.4767326964
H       -0.4564538498    0.5564318838    1.5614336545
H       -2.2047469878   -2.3517771145    0.4578380482
H       -1.9556791536   -0.8341930039   -0.5081852611
H       -1.3440092253   -2.4053107436   -1.1203850198
H        5.6343619641   -0.3119847051   -2.4891397918
30   
torsion grid (165,)
C        3.3593532736   -0.9786256520   -1.5588495935
C        2.4370193492   -3.3082624899   -2.4526008139
C        2.0958981553   -1.4570690281   -1.1443173611
C        4.1021299614   -1.7533858778   -2.4402358617
C        1.2370792193   -0.7100251487   -0.2649398839
C        5.4567363779   -1.1455401503   -4.4626646915
C        6.5440946490   -2.3284415338   -2.4975644841
C       -0.3827194281   -0.3708017811    1.9043331111
C       -1.3417130060   -1.9179621432   -0.3270868222
C        5.4674977127   -1.3194514638   -2.9338567915
N        1.6335192557   -2.6447281822   -1.6192222914
N        3.6409146681   -2.9418017067   -2.8970733202
O        0.4576306260   -2.8514394195    1.3791091585
S        0.1343592690   -1.5848400879    0.6658116449
H        3.7415683818   -0.0301650313   -1.1904741364
H        2.0600512213   -4.2644025265   -2.8161438684
H        1.6528086300    0.1257362211    0.2906798091
H        5.2121209445   -2.0940184532   -4.9490889653
H        6.4393018299   -0.8146007520   -4.8168195098
H        4.7134458480   -0.4028954677   -4.7722112228
H        6.3331376511   -3.3135871745   -2.9229228926
H        6.5748449481   -2.4288148922   -1.4073519176
H        7.5330818819   -2.0042850046   -2.8399327503
H       -1.2266628081   -0.8043339113    2.4426038103
H        0.4663711744   -0.2556194821    2.5789531129
H       -0.6508848378    0.5769190818    1.4363926053
H       -2.0534071435   -2.4701294182    0.2898576209
H       -1.7487398405   -0.9754066553   -0.6948652511
H       -0.9772936859   -2.5322838190   -1.1519373327
H        5.6936495957   -0.3491494633   -2.4751097259
30   
torsion grid (180,)
C        3.3862419495   -1.0416698724   -1.5135491848
C        2.3971229578   -3.3046273110   -2.4966650893
C        2.1277255233   -1.5214155154   -1.0796636487
C        4.0869700209   -1.7789829638   -2.4575280665
C        1.3292026936   -0.7984321788   -0.1311018065
C        5.3906749378   -1.0869765002   -4.4868151387
C        6.5154978958   -2.3883180585   -2.6200497678
C       -0.5878159560   -0.2855796930    1.7308297943
C       -1.2411750250   -1.9650958654   -0.4810570899
C        5.4438930742   -1.3410750893   -2.9702056329
N        1.6345582966   -2.6785672223   -1.5970978702
N        3.5902203288   -2.9340484697   -2.9630682935
O        0.2832272667   -2.8132166946    1.5239180512
S        0.0942531013   -1.5962458917    0.6852092758
H        3.7955231072   -0.1190329376   -1.1104159929
H        1.9914982773   -4.2340463278   -2.8970484915
H        1.7675250055    0.0024504647    0.4553774943
H        5.1148299196   -2.0044092842   -5.0143277195
H        6.3680490523   -0.7539510352   -4.8531154398
H        4.6520193859   -0.3169430903   -4.7343677513
H        6.2754976912   -3.3463947877   -3.0895708331
H        6.5769148283   -2.5462062219   -1.5379964968
H        7.4992327786   -2.0618540071   -2.9750688849
H       -1.4427588057   -0.7150024163    2.2547887057
H        0.1901532152   -0.0245691226    2.4497791954
H       -0.8736512149    0.5777786560    1.1300659195
H       -2.0446680045   -2.4478671260    0.0785440020
H       -1.5646709778   -1.0407964585   -0.9609098346
H       -0.7961763327   -2.6467432429   -1.2060288474
H        5.7004657400   -0.3999626016   -2.4686951029
