13   
torsion grid (-165,)
C       -0.0474091596   -5.5935502103    2.9993336093
C       -0.4779453458   -6.2967960844    1.7329978531
C        0.2572722853   -2.7258012040    1.1937976182
N       -0.7027605077   -3.6047502839    1.8686879465
O        0.2648211225   -6.1497490448    4.0269055981
O       -0.0012172369   -4.2141160535    2.9883228997
H       -1.5398111254   -6.1234916918    1.5436133130
H        0.0651429976   -5.9210983046    0.8627689384
H       -0.2935215166   -7.3628328648    1.8669102983
H        0.9920301727   -3.3367117666    0.6631343712
H        0.7818545326   -2.0491580966    1.8807409827
H       -0.3023468726   -2.1383666436    0.4584105600
H       -1.3851290855   -3.0224972343    2.3563778752
13   
torsion grid (-150,)
C       -0.0442030364   -5.6131367615    2.9858018454
C       -0.4033551019   -6.3100585323    1.6937495494
C        0.2321413822   -2.7179090386    1.1561632448
N       -0.6644561087   -3.5978701622    1.9106343456
O        0.0922981726   -6.1640190886    4.0530604534
O        0.1414507217   -4.2429349747    2.9377637764
H       -1.4621908031   -6.1573971074    1.4711912070
H        0.1649808378   -5.9133142085    0.8498313312
H       -0.2094786221   -7.3755463420    1.8212084894
H        0.8972337750   -3.3264409170    0.5383137564
H        0.8364846641   -2.0634206836    1.7978117018
H       -0.3925084614   -2.1064800117    0.4966331791
H       -1.2815880602   -3.0175502127    2.4808225208
13   
torsion grid (-135,)
C       -0.0831416756   -5.6133325911    2.9986127798
C       -0.3460937359   -6.3268478135    1.6930874064
C        0.1780795228   -2.7192342179    1.1396696665
N       -0.6610502719   -3.5698318112    1.9870489654
O       -0.1271821171   -6.1266728193    4.0907750722
O        0.2305590217   -4.2618239173    2.9110210721
H       -1.3509226496   -6.0843587760    1.3393111379
H        0.3597742358   -6.0097184993    0.9216172439
H       -0.2696647846   -7.4013391596    1.8623592958
H        0.7380536406   -3.3463169124    0.4416619796
H        0.8815660872   -2.0999120487    1.7116150861
H       -0.4923409594   -2.0719098933    0.5645166653
H       -1.1828629064   -2.9723151736    2.6300454562
13   
torsion grid (-120,)
C       -0.0694234592   -5.5631804817    3.0162770663
C       -0.2383062021   -6.3500526613    1.7414310402
C        0.0516082580   -2.6959319374    1.0929287885
N       -0.6649063592   -3.5061796010    2.0793586231
O       -0.2188058427   -5.9913711419    4.1336691981
O        0.3432920842   -4.2375086969    2.8400476001
H       -0.8482568531   -5.7904178019    1.0295418551
H        0.7485602846   -6.5056859458    1.2923153473
H       -0.6944474309   -7.3158853225    1.9592416949
H        0.4533157094   -3.3489838814    0.3140817388
H        0.8711709516   -2.1099319941    1.5295014710
H       -0.6786398358   -2.0181206139    0.6381416709
H       -1.0477324296   -2.8876747427    2.7961072601
13   
torsion grid (-105,)
C       -0.0891609726   -5.6310643799    2.9803835432
C       -0.1835341065   -6.4550119086    1.7240973533
C        0.0205077256   -2.6765275629    1.1794265763
N       -0.6215300645   -3.5372458077    2.1730101023
O       -0.3904258737   -5.9893207959    4.0903830136
O        0.4392923208   -4.3438971271    2.7731913004
H       -0.7123698183   -5.8881922589    0.9535956288
H        0.8280234406   -6.6555940521    1.3555200404
H       -0.6966568324   -7.3959669781    1.9239904243
H        0.3346927160   -3.2831036364    0.3264222178
H        0.8898520208   -2.1349477528    1.5755223744
H       -0.7324765099   -1.9575353405    0.8393074246
H       -0.9213833667   -2.9628753758    2.9627546617
13   
torsion grid (-90,)
C       -0.1863266649   -5.6033025688    2.9282790747
C       -0.1849557766   -6.5340499661    1.7477243850
C       -0.0028380128   -2.5972868971    1.1939705636
N       -0.6219997356   -3.4733963104    2.1876785434
O       -0.6279860256   -5.8372781417    4.0242893920
O        0.4379465767   -4.3721056666    2.6516752362
H       -0.6948054660   -6.0439238157    0.9123818631
H        0.8471961418   -6.7223196711    1.4356053123
H       -0.6808800046   -7.4726540607    1.9962556476
H        0.2200587617   -3.1752356800    0.2938668602
H        0.9183783755   -2.1186536154    1.5523937610
H       -0.7393100257   -1.8266058771    0.9423563088
H       -0.8283305293   -2.9274987642    3.0266556276
13   
torsion grid (-75,)
C       -0.2351328988   -5.6036575963    2.8280412078
C       -0.1361981385   -6.6644511935    1.7676971683
C       -0.0019961675   -2.4902868095    1.2153194282
N       -0.6165243157   -3.4099509948    2.1715433101
O       -0.7354123342   -5.7256222892    3.9184861272
O        0.4118805034   -4.4205652849    2.4505428766
H       -0.6871839491   -6.3271748537    0.8831516342
H        0.9090911468   -6.7878323247    1.4685507375
H       -0.5445992208   -7.6089677619    2.1279012514
H        0.1235946666   -2.9998981386    0.2571616867
H        0.9697579516   -2.1002200822    1.5470873340
H       -0.7010011562   -1.6578828994    1.0810780827
H       -0.7130412992   -2.9309244261    3.0698421526
13   
torsion grid (-60,)
C       -0.2631928729   -5.5875774827    2.7429305975
C       -0.0904613555   -6.7836200794    1.8467244268
C        0.0104507310   -2.3680713764    1.2576355429
N       -0.6302351942   -3.3596804039    2.1204578418
O       -0.7570108796   -5.5870963396    3.8465552066
O        0.3411479304   -4.4604645790    2.2074745594
H       -0.7172644675   -6.6514774167    0.9582465963
H        0.9464926533   -6.8451438173    1.5038336718
H       -0.3751560792   -7.6957626510    2.3714896966
H        0.0749807436   -2.7654818822    0.2420829361
H        1.0131246027   -2.0727980840    1.5953723172
H       -0.6432744248   -1.4897140888    1.2490134161
H       -0.6533410111   -2.9931023080    3.0757046825
13   
torsion grid (-45,)
C       -0.3380061404   -5.5585990013    2.6283449589
C       -0.1224414423   -6.8694408270    1.9194768467
C        0.0337097623   -2.2658909172    1.3142364284
N       -0.7181927966   -3.3357175193    1.9697881019
O       -0.7832432577   -5.4171955734    3.7483262311
O        0.1613638696   -4.5117663026    1.8970523901
H       -0.8747214088   -6.9702350209    1.1297364385
H        0.8593506701   -6.8861389642    1.4390361149
H       -0.2201123820   -7.6948546002    2.6248393248
H        0.1355830127   -2.4981344495    0.2515416016
H        1.0295782452   -2.0968539920    1.7457992619
H       -0.5659649849   -1.3556102271    1.4149630762
H       -0.7619196435   -3.1389795310    2.9741224455
13   
torsion grid (-30,)
C       -0.3625334132   -5.5284125207    2.5290178548
C       -0.0868525155   -6.8990390868    1.9677395594
C        0.1049579563   -2.2433091692    1.3883722299
N       -0.7848554624   -3.3186281193    1.8300203589
O       -0.7538968751   -5.2831318778    3.6550227168
O       -0.0263872549   -4.5586203563    1.6351170307
H       -0.9623522460   -7.2240894796    1.3953746742
H        0.7675445445   -6.8793155515    1.2877632921
H        0.0832099225   -7.6013847641    2.7842758933
H        0.2692730041   -2.3294193150    0.3116573961
H        1.0746488280   -2.2317964901    1.9042873072
H       -0.4218043030   -1.3036469251    1.5831797414
H       -0.8873180232   -3.2686639503    2.8486756352
13   
torsion grid (-15,)
C       -0.4164102531   -5.4663442673    2.4327915477
C       -0.0712328142   -6.8573341082    1.9665932090
C        0.1440788493   -2.2680859580    1.4595387575
N       -0.8971686134   -3.2706617021    1.6998630663
O       -0.7523237533   -5.1608849785    3.5640390545
O       -0.2829760449   -4.5670543737    1.4255959275
H       -0.9999598703   -7.3768890278    1.7084998562
H        0.5694664846   -6.8370220287    1.0835550839
H        0.4091277958   -7.4002353064    2.7820156612
H        0.4045447071   -2.2625898508    0.3985586328
H        1.0531306365   -2.4234795696    2.0567344984
H       -0.2939896383   -1.2971016528    1.7123921369
H       -1.0879743162   -3.3136853140    2.7064185750
13   
torsion grid (0,)
C       -0.4862931254   -5.3590234263    2.3328198696
C       -0.0239649955   -6.7358290915    1.9283114550
C        0.1291318581   -2.3104288263    1.5448393515
N       -1.0450216159   -3.1892735081    1.5541205954
O       -0.7912243243   -5.0208544494    3.4628839776
O       -0.5638632005   -4.5313460253    1.2570359733
H       -0.8651086698   -7.4289245391    2.0243942506
H        0.3437461287   -6.7550535847    0.9018781495
H        0.7568137535   -7.0618330968    2.6191617165
H        0.5413438210   -2.2698846618    0.5341034733
H        0.9146872640   -2.6172317648    2.2491861139
H       -0.2260458128   -1.3105314348    1.8148747835
H       -1.3794197486   -3.2688967890    2.5196162647
13   
torsion grid (15,)
C       -0.5760751694   -5.2959232236    2.2625112877
C        0.0429311533   -6.6311501341    1.9383939736
C        0.2744171026   -2.4137304401    1.6126635558
N       -0.9908374810   -3.1219235247    1.3956815627
O       -1.0023417714   -4.9533458128    3.3492366374
O       -0.6650107985   -4.5167681009    1.1444492343
H       -0.3608374945   -7.3907699040    2.6089969380
H       -0.1279118354   -6.9031794887    0.8953874254
H        1.1237998935   -6.5622187713    2.1014750039
H        0.8530977153   -2.4218172890    0.6863063008
H        0.8806749661   -2.8296423294    2.4296620035
H        0.0166724134   -1.3770142990    1.8527393783
H       -1.5024732380   -3.1527939706    2.2823228323
13   
torsion grid (30,)
C       -0.6206055193   -5.2923897415    2.2463941158
C        0.1180747028   -6.5535603684    1.8819368343
C        0.3545934095   -2.5163779332    1.7176987432
N       -0.9689664077   -3.0792738386    1.4402352775
O       -1.1060423856   -5.0388321937    3.3307604135
O       -0.7946605863   -4.4917845135    1.1451713379
H       -0.0999571760   -7.3330144221    2.6124227204
H       -0.1500593044   -6.8795651136    0.8744732198
H        1.1935402066   -6.3455046093    1.8879054555
H        0.9614720881   -2.5699453521    0.8110745018
H        0.8852259327   -3.0073318989    2.5463680455
H        0.2008424058   -1.4625147771    1.9716983119
H       -1.5209535183   -3.0777568956    2.3023685603
13   
torsion grid (45,)
C       -0.9082203767   -5.1648728103    2.1340212218
C       -0.6747787620   -6.5484463928    2.6862579527
C        0.0030904233   -2.4354325748    0.7691266427
N        0.3905244680   -3.2072765933    1.9579390678
O       -1.9812482526   -4.6218303104    2.0109612007
O        0.2718391271   -4.6343352466    1.6513722374
H       -1.6251951962   -7.0715979811    2.7923386056
H        0.0019659303   -7.1089978623    2.0356005418
H       -0.1903849028   -6.4630614322    3.6648832830
H       -1.0788184865   -2.4958785590    0.6484398531
H        0.4985174775   -2.7777995764   -0.1496058879
H        0.2813997245   -1.3937401973    0.9647094031
H        1.4034516914   -3.1451691950    2.0647754892
13   
torsion grid (60,)
C       -0.9440900492   -5.2251083780    2.0106884101
C       -0.6588160842   -6.5118143097    2.7390601206
C        0.0107762796   -2.4038421110    0.8192080695
N        0.3904024314   -3.2987550642    1.9201405637
O       -2.0370317976   -4.7561127243    1.8013399102
O        0.2186577417   -4.6844306548    1.4724494980
H       -1.5890318358   -7.0325816388    2.9668788751
H       -0.0029213154   -7.1446319669    2.1339771356
H       -0.1219397516   -6.2829749822    3.6659867495
H       -1.0722181564   -2.4386803365    0.6963322322
H        0.4979700866   -2.6579442326   -0.1317888803
H        0.3023544516   -1.3908686716    1.1194568576
H        1.4054467950   -3.2755985423    2.0210959540
13   
torsion grid (75,)
C       -0.9598551054   -5.2754043543    1.8435883823
C       -0.6362963862   -6.4215230606    2.7620757793
C        0.0293640067   -2.3841482215    0.8892078561
N        0.4140940826   -3.4056850911    1.8704479028
O       -2.0639125571   -4.8893295831    1.5499169349
O        0.1908246206   -4.7231063305    1.2648672415
H       -1.5491411428   -6.9067692147    3.1083126325
H        0.0047397365   -7.1392408950    2.2409563861
H       -0.0653756829   -6.0385373010    3.6147094535
H       -1.0559060069   -2.3933232180    0.7791607764
H        0.4978165629   -2.5324484257   -0.0927181604
H        0.3366035249   -1.4158071191    1.3007982208
H        1.4307109572   -3.4130832537    1.9553452892
13   
torsion grid (90,)
C       -0.9856920424   -5.3450881763    1.7039495001
C       -0.6324120579   -6.3192327698    2.7935653973
C        0.0139875810   -2.4127155203    0.9871944161
N        0.4264096864   -3.5378941634    1.8341428988
O       -2.0961398538   -5.0698366621    1.3251339584
O        0.1462582232   -4.7725659667    1.0945513746
H       -1.5331317947   -6.7453101379    3.2361128770
H       -0.0019524886   -7.1127393493    2.3799251824
H       -0.0440387378   -5.7982224404    3.5553591303
H       -1.0749561651   -2.4045540615    0.9159470351
H        0.4436015295   -2.4548563447   -0.0219197526
H        0.3426955186   -1.4966767594    1.4913635551
H        1.4452903592   -3.5630391426    1.8790168883
13   
torsion grid (105,)
C       -1.0050275097   -5.4152397500    1.6158341093
C       -0.6194078286   -6.2286846365    2.8223270969
C        0.0111836525   -2.4303717804    1.0655328213
N        0.4411321679   -3.6232673348    1.8037826091
O       -2.1157636748   -5.3019456625    1.1615827421
O        0.0810640815   -4.7828163888    0.9868155852
H       -1.5089342465   -6.6197160045    3.3167310239
H        0.0215025082   -7.0569697637    2.5020986399
H       -0.0404347692   -5.6076796282    3.5106706158
H       -1.0798551093   -2.3973734139    1.0488851877
H        0.3891572177   -2.4016247009    0.0357409901
H        0.3816356967   -1.5608646196    1.6202956939
H        1.4603189695   -3.6708754403    1.7909127976
13   
torsion grid (120,)
C       -1.0160470904   -5.4602795081    1.5247320406
C       -0.6260677177   -6.1359907893    2.8144893271
C        0.0362496223   -2.4177447448    1.1320976508
N        0.4770270501   -3.6696008090    1.7581821351
O       -2.1018406037   -5.5151805582    1.0014647958
O        0.0114285701   -4.7514665933    0.8935127873
H       -1.5087422534   -6.5644560471    3.2893555306
H        0.0937727713   -6.9313275222    2.5928927059
H       -0.1390549128   -5.4207493905    3.4803368576
H       -1.0504282940   -2.3436290286    1.2096995035
H        0.3285555359   -2.3358323959    0.0777297124
H        0.4857956879   -1.5991022879    1.7051862897
H        1.4901727950   -3.7451943819    1.6611458047
13   
torsion grid (135,)
C       -1.0099169514   -5.5128628378    1.4125855576
C       -0.5939045021   -6.0444269057    2.7638270701
C        0.0881665202   -2.4478479835    1.1906950398
N        0.5571902852   -3.7683142908    1.6260588049
O       -2.0814822842   -5.7061777570    0.8895421391
O       -0.0724563181   -4.7394706046    0.7381082396
H       -1.2673512444   -6.8562349231    3.0404252118
H        0.4422464015   -6.3907381037    2.7481903758
H       -0.6593281654   -5.2466303737    3.5076429297
H       -0.9693567180   -2.3424164901    1.4433281249
H        0.2196346956   -2.2753077550    0.1151728098
H        0.6590584209   -1.7036271746    1.7567479963
H        1.5425177680   -3.8619798988    1.3771048785
13   
torsion grid (150,)
C        0.0704539249   -5.5050476845    2.9035764968
C       -0.6168722809   -6.3446556845    1.8519748562
C        0.3382277017   -2.6499741599    1.3144031438
N       -0.6981245661   -3.6138826992    1.7017301187
O        0.9060095493   -5.9127833170    3.6765704001
O       -0.2839740838   -4.1701104992    2.9822627599
H       -1.6861313033   -6.1284865142    1.8036054667
H       -0.2005707698   -6.1237438616    0.8658583383
H       -0.4432255028   -7.3938342522    2.0928449043
H        1.2470600708   -3.1919605415    1.0416430359
H        0.5751451446   -1.9273769499    2.1054193122
H       -0.0307719453   -2.1206327104    0.4293737682
H       -1.5397102961   -3.0984205017    1.9618417402
13   
torsion grid (165,)
C        0.0143164275   -5.5456000193    2.9694297193
C       -0.5828247113   -6.3224566690    1.8192117677
C        0.3169411918   -2.7034698161    1.2843991779
N       -0.7170785369   -3.6210304362    1.7755000135
O        0.6833486135   -6.0264175754    3.8551408883
O       -0.2144964058   -4.1855495328    3.0186487135
H       -1.6484003151   -6.1108386850    1.7083001715
H       -0.1054870642   -6.0406858861    0.8772734646
H       -0.4179288788   -7.3821292451    2.0146605428
H        1.1693441912   -3.2845367086    0.9232955645
H        0.6633453180   -1.9933719335    2.0459734502
H       -0.1134857853   -2.1555716979    0.4394491445
H       -1.5085537578   -3.0685492886    2.1075106805
13   
torsion grid (180,)
C       -0.0098681363   -5.5401911501    3.0213768388
C       -0.5185616082   -6.2841013239    1.8085400660
C        0.2963425505   -2.7140308437    1.2337376403
N       -0.7104104399   -3.5961720074    1.8334173894
O        0.4842083472   -6.0611172680    3.9949831391
O       -0.1088972893   -4.1646084858    3.0292362794
H       -1.5849443139   -6.1001852905    1.6591948052
H       -0.0116115340   -5.9500800077    0.9001373408
H       -0.3366394811   -7.3460914400    1.9733542356
H        1.0922755401   -3.3231294916    0.7975114816
H        0.7362301365   -2.0086692159    1.9503732266
H       -0.1975231336   -2.1592771889    0.4291038104
H       -1.4483735390   -3.0170232671    2.2360912097
