18
0 1 C8F2H4O4
C                     0.554051090206    -0.986104274527    -1.806222528237
C                     0.171835487495    -0.969611900537    -0.467268435412
C                     0.796108372389    -2.198759166222    -2.482385218050
C                     0.008225355934    -2.160252750388     0.276999160327
C                     0.632683696274    -3.352245394007    -1.744056583438
C                     0.251223605159    -3.347657163002    -0.406079944423
C                    -0.401852808071    -2.059703217077     1.701719522569
C                     0.520994744549    -5.462277322064    -1.050081434165
O                    -0.609266763310    -1.008439569273     2.279866638853
O                     0.803487801510    -4.664654836089    -2.155966690154
O                     0.178662630236    -4.653367967736     0.035096763021
O                    -0.524499273544    -3.266774304930     2.304040745029
F                     1.589325526879    -6.223757221513    -0.739256652686
F                    -0.489818237431    -6.308843381795    -1.331727717629
H                     0.668762543405    -0.049442778369    -2.342613556728
H                    -0.012798738227    -0.032378924742     0.046782149439
H                     1.094546157845    -2.230538157469    -3.525130430414
H                    -0.794314064762    -3.085083452814     3.225047755808
