
  -OEChem-05262117483D

 38 40  0     0  0  0  0  0  0999 V2000
   -6.6651   -2.3176    1.1590 C   0  0  0  0  0  0  0  0  0  0  0  0
   -0.4435   -1.3525   -0.5307 C   0  0  0  0  0  0  0  0  0  0  0  0
   -1.1414   -0.5465    0.3544 C   0  0  0  0  0  0  0  0  0  0  0  0
   -5.8799   -1.0347   -0.4722 C   0  0  0  0  0  0  0  0  0  0  0  0
   -4.9884   -2.0761   -0.6002 C   0  0  0  0  0  0  0  0  0  0  0  0
   -2.5233   -1.7282   -0.9383 C   0  0  0  0  0  0  0  0  0  0  0  0
    1.0323   -1.4728   -0.5743 C   0  0  0  0  0  0  0  0  0  0  0  0
   -0.6247    0.3326    1.4476 C   0  0  0  0  0  0  0  0  0  0  0  0
    1.1586    1.0072   -0.2349 C   0  0  0  0  0  0  0  0  0  0  0  0
    0.2906    1.4892    0.9537 C   0  0  0  0  0  0  0  0  0  0  0  0
   -5.9185    0.2182   -1.3012 C   0  0  0  0  0  0  0  0  0  0  0  0
    1.1873    1.9289    2.1209 C   0  0  0  0  0  0  0  0  0  0  0  0
   -0.5676    2.6667    0.4650 C   0  0  0  0  0  0  0  0  0  0  0  0
   -3.8180   -2.2078   -1.5365 C   0  0  0  0  0  0  0  0  0  0  0  0
   -6.8262   -1.1892    0.5298 N   0  0  0  0  0  0  0  0  0  0  0  0
   -1.3158   -2.0836   -1.3203 N   0  0  0  0  0  0  0  0  0  0  0  0
   -2.4689   -0.7943    0.0772 N   0  0  0  0  0  0  0  0  0  0  0  0
    1.7019   -0.3488   -0.0935 N   0  0  0  0  0  0  0  0  0  0  0  0
    1.6355   -2.4778   -0.9377 O   0  0  0  0  0  0  0  0  0  0  0  0
   -5.3422   -3.2994    0.5934 S   0  0  0  0  0  0  0  0  0  0  0  0
   -7.2956   -2.6500    1.9773 H   0  0  0  0  0  0  0  0  0  0  0  0
   -1.4522    0.7513    2.0311 H   0  0  0  0  0  0  0  0  0  0  0  0
   -0.0428   -0.2932    2.1327 H   0  0  0  0  0  0  0  0  0  0  0  0
    0.5681    1.0689   -1.1554 H   0  0  0  0  0  0  0  0  0  0  0  0
    2.0018    1.6943   -0.3537 H   0  0  0  0  0  0  0  0  0  0  0  0
   -6.8599    0.2770   -1.8573 H   0  0  0  0  0  0  0  0  0  0  0  0
   -5.8695    1.1021   -0.6568 H   0  0  0  0  0  0  0  0  0  0  0  0
   -5.0927    0.2651   -2.0138 H   0  0  0  0  0  0  0  0  0  0  0  0
    1.7749    2.8144    1.8536 H   0  0  0  0  0  0  0  0  0  0  0  0
    1.8818    1.1284    2.3979 H   0  0  0  0  0  0  0  0  0  0  0  0
    0.5912    2.1787    3.0061 H   0  0  0  0  0  0  0  0  0  0  0  0
    0.0541    3.4535    0.0222 H   0  0  0  0  0  0  0  0  0  0  0  0
   -1.1285    3.1139    1.2931 H   0  0  0  0  0  0  0  0  0  0  0  0
   -1.2854    2.3411   -0.2968 H   0  0  0  0  0  0  0  0  0  0  0  0
   -3.6717   -3.2441   -1.8513 H   0  0  0  0  0  0  0  0  0  0  0  0
   -4.0289   -1.6416   -2.4504 H   0  0  0  0  0  0  0  0  0  0  0  0
   -3.2690   -0.4242    0.5769 H   0  0  0  0  0  0  0  0  0  0  0  0
    2.7063   -0.4497   -0.1885 H   0  0  0  0  0  0  0  0  0  0  0  0
  1 15  2  0  0  0  0
  1 20  1  0  0  0  0
  1 21  1  0  0  0  0
  2  3  2  0  0  0  0
  2  7  1  0  0  0  0
  2 16  1  0  0  0  0
  3  8  1  0  0  0  0
  3 17  1  0  0  0  0
  4  5  2  0  0  0  0
  4 11  1  0  0  0  0
  4 15  1  0  0  0  0
  5 14  1  0  0  0  0
  5 20  1  0  0  0  0
  6 14  1  0  0  0  0
  6 16  2  0  0  0  0
  6 17  1  0  0  0  0
  7 18  1  0  0  0  0
  7 19  2  0  0  0  0
  8 10  1  0  0  0  0
  8 22  1  0  0  0  0
  8 23  1  0  0  0  0
  9 10  1  0  0  0  0
  9 18  1  0  0  0  0
  9 24  1  0  0  0  0
  9 25  1  0  0  0  0
 10 12  1  0  0  0  0
 10 13  1  0  0  0  0
 11 26  1  0  0  0  0
 11 27  1  0  0  0  0
 11 28  1  0  0  0  0
 12 29  1  0  0  0  0
 12 30  1  0  0  0  0
 12 31  1  0  0  0  0
 13 32  1  0  0  0  0
 13 33  1  0  0  0  0
 13 34  1  0  0  0  0
 14 35  1  0  0  0  0
 14 36  1  0  0  0  0
 17 37  1  0  0  0  0
 18 38  1  0  0  0  0
M  END
$$$$
