
  -OEChem-05262117483D

 38 40  0     0  0  0  0  0  0999 V2000
   -6.6927    0.4136   -1.1095 C   0  0  0  0  0  0  0  0  0  0  0  0
   -0.2246   -0.2628   -1.2922 C   0  0  0  0  0  0  0  0  0  0  0  0
   -0.9685   -0.2961   -0.1176 C   0  0  0  0  0  0  0  0  0  0  0  0
   -5.5625   -1.4941   -1.1979 C   0  0  0  0  0  0  0  0  0  0  0  0
   -4.7478   -0.7497   -2.0209 C   0  0  0  0  0  0  0  0  0  0  0  0
   -2.2387   -0.7600   -1.8989 C   0  0  0  0  0  0  0  0  0  0  0  0
    1.2255   -0.0283   -1.5198 C   0  0  0  0  0  0  0  0  0  0  0  0
   -0.7027   -0.0251    1.3330 C   0  0  0  0  0  0  0  0  0  0  0  0
    1.5289    1.0293    0.7909 C   0  0  0  0  0  0  0  0  0  0  0  0
    0.7796    0.0671    1.7450 C   0  0  0  0  0  0  0  0  0  0  0  0
   -5.3740   -2.9349   -0.8137 C   0  0  0  0  0  0  0  0  0  0  0  0
    1.4329   -1.3236    1.7516 C   0  0  0  0  0  0  0  0  0  0  0  0
    0.8366    0.6713    3.1594 C   0  0  0  0  0  0  0  0  0  0  0  0
   -3.4594   -1.1464   -2.6888 C   0  0  0  0  0  0  0  0  0  0  0  0
   -6.6630   -0.8187   -0.6910 N   0  0  0  0  0  0  0  0  0  0  0  0
   -1.0378   -0.5547   -2.3815 N   0  0  0  0  0  0  0  0  0  0  0  0
   -2.2471   -0.6214   -0.5290 N   0  0  0  0  0  0  0  0  0  0  0  0
    1.9759    0.4471   -0.4657 N   0  0  0  0  0  0  0  0  0  0  0  0
    1.7631   -0.2799   -2.5973 O   0  0  0  0  0  0  0  0  0  0  0  0
   -5.3806    0.8715   -2.1595 S   0  0  0  0  0  0  0  0  0  0  0  0
   -7.4679    1.1248   -0.8433 H   0  0  0  0  0  0  0  0  0  0  0  0
   -1.1980    0.9187    1.6024 H   0  0  0  0  0  0  0  0  0  0  0  0
   -1.1864   -0.8031    1.9384 H   0  0  0  0  0  0  0  0  0  0  0  0
    0.9019    1.9152    0.6137 H   0  0  0  0  0  0  0  0  0  0  0  0
    2.4325    1.3802    1.2974 H   0  0  0  0  0  0  0  0  0  0  0  0
   -5.3672   -3.0394    0.2761 H   0  0  0  0  0  0  0  0  0  0  0  0
   -6.2054   -3.5401   -1.1899 H   0  0  0  0  0  0  0  0  0  0  0  0
   -4.4422   -3.3471   -1.2057 H   0  0  0  0  0  0  0  0  0  0  0  0
    2.5026   -1.2493    1.9756 H   0  0  0  0  0  0  0  0  0  0  0  0
    1.3309   -1.8277    0.7883 H   0  0  0  0  0  0  0  0  0  0  0  0
    0.9718   -1.9547    2.5196 H   0  0  0  0  0  0  0  0  0  0  0  0
    1.8607    0.6607    3.5478 H   0  0  0  0  0  0  0  0  0  0  0  0
    0.2102    0.1025    3.8553 H   0  0  0  0  0  0  0  0  0  0  0  0
    0.4841    1.7097    3.1654 H   0  0  0  0  0  0  0  0  0  0  0  0
   -3.4605   -2.2302   -2.8481 H   0  0  0  0  0  0  0  0  0  0  0  0
   -3.3651   -0.6960   -3.6801 H   0  0  0  0  0  0  0  0  0  0  0  0
   -3.0647   -0.6955    0.0654 H   0  0  0  0  0  0  0  0  0  0  0  0
    2.9448    0.5825   -0.7268 H   0  0  0  0  0  0  0  0  0  0  0  0
  1 15  2  0  0  0  0
  1 20  1  0  0  0  0
  1 21  1  0  0  0  0
  2  3  2  0  0  0  0
  2  7  1  0  0  0  0
  2 16  1  0  0  0  0
  3  8  1  0  0  0  0
  3 17  1  0  0  0  0
  4  5  2  0  0  0  0
  4 11  1  0  0  0  0
  4 15  1  0  0  0  0
  5 14  1  0  0  0  0
  5 20  1  0  0  0  0
  6 14  1  0  0  0  0
  6 16  2  0  0  0  0
  6 17  1  0  0  0  0
  7 18  1  0  0  0  0
  7 19  2  0  0  0  0
  8 10  1  0  0  0  0
  8 22  1  0  0  0  0
  8 23  1  0  0  0  0
  9 10  1  0  0  0  0
  9 18  1  0  0  0  0
  9 24  1  0  0  0  0
  9 25  1  0  0  0  0
 10 12  1  0  0  0  0
 10 13  1  0  0  0  0
 11 26  1  0  0  0  0
 11 27  1  0  0  0  0
 11 28  1  0  0  0  0
 12 29  1  0  0  0  0
 12 30  1  0  0  0  0
 12 31  1  0  0  0  0
 13 32  1  0  0  0  0
 13 33  1  0  0  0  0
 13 34  1  0  0  0  0
 14 35  1  0  0  0  0
 14 36  1  0  0  0  0
 17 37  1  0  0  0  0
 18 38  1  0  0  0  0
M  END
$$$$
