20
0 1 C7H9IN2O
C                     2.824178201329    -0.507487623249     5.335616100220
C                     2.700046933396     0.892977123651     5.172756876413
C                     2.292770424048     1.104200959012     3.854164596595
C                     2.822688768568    -0.364641188327     0.915408903277
C                     1.890670384384     2.335447047350     3.100155081245
C                     4.252618171352    -0.589353057566     1.345182365717
C                     1.731609382924    -0.502968195865     1.989368760560
N                     2.484504503986    -1.139958807247     4.211900128158
N                     2.160758331587    -0.153211518907     3.329395606718
O                     2.496382532076    -0.110120687435    -0.230972554234
I                     3.604145933237     2.411727286088     6.452705164906
H                     3.134357211982    -1.065274143634     6.209272588194
H                     2.139843195013     2.268065013369     2.037567617936
H                     0.809396128568     2.497622685328     3.179832103207
H                     2.392706201754     3.211178391541     3.513479657478
H                     4.337813093426    -1.509998682644     1.931945889310
H                     4.900602428702    -0.622133892399     0.468629542699
H                     4.572359281907     0.224805861694     2.005478036709
H                     1.427954116550    -1.553271053650     2.021014621404
H                     0.867626593035     0.092200519246     1.688000518714
