
  -OEChem-05262117483D

 20 21  0     0  0  0  0  0  0999 V2000
    1.7561   -1.3469   -0.1219 C   0  0  0  0  0  0  0  0  0  0  0  0
    0.9894   -0.2943    0.3800 C   0  0  0  0  0  0  0  0  0  0  0  0
    2.6602   -1.7455    2.1036 C   0  0  0  0  0  0  0  0  0  0  0  0
   -0.5648    0.3393    6.5741 C   0  0  0  0  0  0  0  0  0  0  0  0
   -1.4955   -0.3566    5.8361 C   0  0  0  0  0  0  0  0  0  0  0  0
    1.8674   -0.7099    2.6229 C   0  0  0  0  0  0  0  0  0  0  0  0
    2.5802   -2.0522    0.7535 C   0  0  0  0  0  0  0  0  0  0  0  0
    1.0548    0.0049    1.7372 C   0  0  0  0  0  0  0  0  0  0  0  0
    0.7406   -0.2153    4.8820 C   0  0  0  0  0  0  0  0  0  0  0  0
    1.9911   -0.3898    4.0878 C   0  0  0  0  0  0  0  0  0  0  0  0
    0.6893    0.4029    6.0356 N   0  0  0  0  0  0  0  0  0  0  0  0
    3.0878   -0.3446    4.6216 O   0  0  0  0  0  0  0  0  0  0  0  0
    3.3317   -3.0687    0.2645 F   0  0  0  0  0  0  0  0  0  0  0  0
    0.3321    1.0571    2.1948 F   0  0  0  0  0  0  0  0  0  0  0  0
   -0.7813   -0.9457    4.3862 S   0  0  0  0  0  0  0  0  0  0  0  0
    1.7285   -1.6150   -1.1733 H   0  0  0  0  0  0  0  0  0  0  0  0
    0.3525    0.3006   -0.2667 H   0  0  0  0  0  0  0  0  0  0  0  0
    3.3268   -2.2986    2.7574 H   0  0  0  0  0  0  0  0  0  0  0  0
   -0.7636    0.8201    7.5260 H   0  0  0  0  0  0  0  0  0  0  0  0
   -2.5339   -0.5491    6.0739 H   0  0  0  0  0  0  0  0  0  0  0  0
  1  2  1  0  0  0  0
  1  7  2  0  0  0  0
  1 16  1  0  0  0  0
  2  8  2  0  0  0  0
  2 17  1  0  0  0  0
  3  6  2  0  0  0  0
  3  7  1  0  0  0  0
  3 18  1  0  0  0  0
  4  5  2  0  0  0  0
  4 11  1  0  0  0  0
  4 19  1  0  0  0  0
  5 15  1  0  0  0  0
  5 20  1  0  0  0  0
  6  8  1  0  0  0  0
  6 10  1  0  0  0  0
  7 13  1  0  0  0  0
  8 14  1  0  0  0  0
  9 10  1  0  0  0  0
  9 11  2  0  0  0  0
  9 15  1  0  0  0  0
 10 12  2  0  0  0  0
M  END
$$$$
