
  -OEChem-05262117483D

 27 27  0     0  0  0  0  0  0999 V2000
    1.7361   -1.6501   -0.3916 C   0  0  0  0  0  0  0  0  0  0  0  0
    0.6502   -1.2313    0.3809 C   0  0  0  0  0  0  0  0  0  0  0  0
    3.0903   -1.7985    1.6017 C   0  0  0  0  0  0  0  0  0  0  0  0
    2.9695   -1.9395    0.2042 C   0  0  0  0  0  0  0  0  0  0  0  0
    2.0308   -1.3844    2.3979 C   0  0  0  0  0  0  0  0  0  0  0  0
    0.7945   -1.0984    1.7683 C   0  0  0  0  0  0  0  0  0  0  0  0
    4.1567   -2.3894   -0.5772 C   0  0  0  0  0  0  0  0  0  0  0  0
    2.1611   -1.2337    3.8927 C   0  0  0  0  0  0  0  0  0  0  0  0
    4.0246   -2.5397   -2.0852 C   0  0  0  0  0  0  0  0  0  0  0  0
   -2.3951    0.0259    3.1974 C   0  0  0  0  0  0  0  0  0  0  0  0
   -1.4899   -0.3871    2.0501 C   0  0  0  0  0  0  0  0  0  0  0  0
    5.2250   -2.6363   -0.0233 O   0  0  0  0  0  0  0  0  0  0  0  0
   -0.2047   -0.6969    2.6050 O   0  0  0  0  0  0  0  0  0  0  0  0
    1.6033   -1.7466   -1.4647 H   0  0  0  0  0  0  0  0  0  0  0  0
   -0.2942   -1.0134   -0.1038 H   0  0  0  0  0  0  0  0  0  0  0  0
    4.0521   -2.0260    2.0523 H   0  0  0  0  0  0  0  0  0  0  0  0
    1.9460   -0.2065    4.2059 H   0  0  0  0  0  0  0  0  0  0  0  0
    1.4479   -1.8779    4.4179 H   0  0  0  0  0  0  0  0  0  0  0  0
    3.1707   -1.4929    4.2202 H   0  0  0  0  0  0  0  0  0  0  0  0
    3.7449   -1.5890   -2.5517 H   0  0  0  0  0  0  0  0  0  0  0  0
    3.2504   -3.2714   -2.3402 H   0  0  0  0  0  0  0  0  0  0  0  0
    4.9812   -2.8719   -2.4902 H   0  0  0  0  0  0  0  0  0  0  0  0
   -2.4924   -0.7857    3.9241 H   0  0  0  0  0  0  0  0  0  0  0  0
   -1.9925    0.9041    3.7102 H   0  0  0  0  0  0  0  0  0  0  0  0
   -3.3912    0.2723    2.8159 H   0  0  0  0  0  0  0  0  0  0  0  0
   -1.3876    0.4248    1.3184 H   0  0  0  0  0  0  0  0  0  0  0  0
   -1.8887   -1.2694    1.5329 H   0  0  0  0  0  0  0  0  0  0  0  0
  1  2  1  0  0  0  0
  1  4  2  0  0  0  0
  1 14  1  0  0  0  0
  2  6  2  0  0  0  0
  2 15  1  0  0  0  0
  3  4  1  0  0  0  0
  3  5  2  0  0  0  0
  3 16  1  0  0  0  0
  4  7  1  0  0  0  0
  5  6  1  0  0  0  0
  5  8  1  0  0  0  0
  6 13  1  0  0  0  0
  7  9  1  0  0  0  0
  7 12  2  0  0  0  0
  8 17  1  0  0  0  0
  8 18  1  0  0  0  0
  8 19  1  0  0  0  0
  9 20  1  0  0  0  0
  9 21  1  0  0  0  0
  9 22  1  0  0  0  0
 10 11  1  0  0  0  0
 10 23  1  0  0  0  0
 10 24  1  0  0  0  0
 10 25  1  0  0  0  0
 11 13  1  0  0  0  0
 11 26  1  0  0  0  0
 11 27  1  0  0  0  0
M  END
$$$$
