20
0 1 C7H9IN2O
C                     3.362111892516    -1.369801986186     4.845576238081
C                     3.252991477011    -0.060243311698     5.368454319031
C                     2.406939676985     0.644456793814     4.509403555997
C                     2.181121748000     0.807150554491     1.264207642481
C                     1.974890980086     2.076668368571     4.478712759474
C                     1.642352147324     0.765646947729    -0.150108063903
C                     1.391370397318    -0.021703510073     2.287601204091
N                     2.677056459054    -1.476063638229     3.708322780531
N                     2.093782954417    -0.253620275205     3.526639897824
O                     3.162553964560     1.450847317537     1.581685604985
I                     3.637572771734     0.517145514810     7.438537294178
H                     3.903088871258    -2.217821732758     5.243773823363
H                     2.732907996786     2.682389819198     3.973566565462
H                     1.030601352102     2.205507355723     3.943235149059
H                     1.845999699642     2.453890819166     5.494770781922
H                     0.548646307014     0.825263904113    -0.166153426028
H                     2.073399249349     1.576523179664    -0.738962710621
H                     1.920048747339    -0.192494867431    -0.605990992331
H                     1.151758638820    -1.002748204871     1.870229316507
H                     0.440117114748     0.492261819037     2.473952863867
