
  -OEChem-05262117483D

 19 20  0     0  0  0  0  0  0999 V2000
    1.7411    1.1289    0.1687 C   0  0  0  0  0  0  0  0  0  0  0  0
    1.2541    2.2378   -0.4230 C   0  0  0  0  0  0  0  0  0  0  0  0
   -0.9154    1.1497   -0.8878 C   0  0  0  0  0  0  0  0  0  0  0  0
    0.9335   -0.0869    0.2677 C   0  0  0  0  0  0  0  0  0  0  0  0
   -0.4683   -0.0564   -0.2671 C   0  0  0  0  0  0  0  0  0  0  0  0
   -0.1041    2.2589   -0.9714 C   0  0  0  0  0  0  0  0  0  0  0  0
   -0.8305   -2.2294    0.4645 C   0  0  0  0  0  0  0  0  0  0  0  0
    0.6441   -2.3274    0.8494 C   0  0  0  0  0  0  0  0  0  0  0  0
   -1.2922   -1.0779   -0.1706 N   0  0  0  0  0  0  0  0  0  0  0  0
    1.4680   -1.1359    0.7920 N   0  0  0  0  0  0  0  0  0  0  0  0
   -0.4957    3.4158   -1.5997 N   0  0  0  0  0  0  0  0  0  0  0  0
   -1.5759   -3.1723    0.7014 O   0  0  0  0  0  0  0  0  0  0  0  0
    2.7461    1.0851    0.5777 H   0  0  0  0  0  0  0  0  0  0  0  0
    1.8634    3.1345   -0.5123 H   0  0  0  0  0  0  0  0  0  0  0  0
   -1.9288    1.1610   -1.2795 H   0  0  0  0  0  0  0  0  0  0  0  0
    0.7194   -2.7506    1.8573 H   0  0  0  0  0  0  0  0  0  0  0  0
    1.1158   -3.0772    0.1983 H   0  0  0  0  0  0  0  0  0  0  0  0
   -1.4756    3.5292   -1.8268 H   0  0  0  0  0  0  0  0  0  0  0  0
   -0.0009    4.2727   -1.3908 H   0  0  0  0  0  0  0  0  0  0  0  0
  1  2  2  0  0  0  0
  1  4  1  0  0  0  0
  1 13  1  0  0  0  0
  2  6  1  0  0  0  0
  2 14  1  0  0  0  0
  3  5  1  0  0  0  0
  3  6  2  0  0  0  0
  3 15  1  0  0  0  0
  4  5  1  0  0  0  0
  4 10  2  0  0  0  0
  5  9  2  0  0  0  0
  6 11  1  0  0  0  0
  7  8  1  0  0  0  0
  7  9  1  0  0  0  0
  7 12  2  0  0  0  0
  8 10  1  0  0  0  0
  8 16  1  0  0  0  0
  8 17  1  0  0  0  0
 11 18  1  0  0  0  0
 11 19  1  0  0  0  0
M  END
$$$$
