38
0 1 C14H18N4OS
C                    -6.665070901186    -2.317649568897     1.158988919344
C                    -0.443537964951    -1.352487434856    -0.530700039804
C                    -1.141409975203    -0.546474272694     0.354370721227
C                    -5.879906537942    -1.034703216333    -0.472196530481
C                    -4.988441067203    -2.076058587087    -0.600197263889
C                    -2.523302803386    -1.728190247255    -0.938279619524
C                     1.032298434001    -1.472786814188    -0.574268940552
C                    -0.624723960841     0.332587728736     1.447643017232
C                     1.158590988665     1.007223916925    -0.234863652474
C                     0.290566221530     1.489178374627     0.953703388931
C                    -5.918482487662     0.218208059065    -1.301222995689
C                     1.187314865246     1.928904427416     2.120892544166
C                    -0.567555041734     2.666748737878     0.464980744121
C                    -3.818010357587    -2.207767947850    -1.536470201097
N                    -6.826231836571    -1.189197735971     0.529809233472
N                    -1.315798583987    -2.083569786625    -1.320259177449
N                    -2.468923537198    -0.794317350953     0.077233519733
N                     1.701898823683    -0.348773079401    -0.093499390001
O                     1.635536614731    -2.477829748406    -0.937747404837
S                    -5.342198244497    -3.299353893670     0.593422160435
H                    -7.295568741031    -2.649998225953     1.977290952198
H                    -1.452175425333     0.751340647130     2.031137522148
H                    -0.042771308980    -0.293193988555     2.132687078676
H                     0.568113445402     1.068917512854    -1.155359684447
H                     2.001791444294     1.694328139335    -0.353715658050
H                    -6.859854687599     0.277044182724    -1.857256637731
H                    -5.869459357404     1.102072084385    -0.656839752215
H                    -5.092664513842     0.265092948259    -2.013835385314
H                     1.774925612137     2.814441060189     1.853642283297
H                     1.881845719384     1.128422590593     2.397924931531
H                     0.591242733509     2.178737630038     3.006064399212
H                     0.054065352976     3.453479497416     0.022177478226
H                    -1.128513058729     3.113922499523     1.293063527609
H                    -1.285420155480     2.341117953761    -0.296776745818
H                    -3.671679153147    -3.244118503423    -1.851296498932
H                    -4.028869976148    -1.641580479948    -2.450410335984
H                    -3.269000526996    -0.424211799372     0.576881181518
H                     2.706343983449    -0.449683157021    -0.188510962092
