26
0 1 C10H13NO2
C                     1.758346103828    -1.108236707842    -0.152071729405
C                     2.294694501802    -0.030342243369     0.561320794432
C                     1.251637725772    -2.211771766127     0.541640418795
C                     2.319980091791    -0.058926575920     1.958036453088
C                     1.272912681681    -2.238189864140     1.940057170513
C                     1.807499432846    -1.160926962085     2.657532592869
C                     1.290997736198     0.610038070845     6.867304306785
C                     0.994963521259     0.648850721531     8.357094860068
C                     0.607365143836    -0.271235436233     4.661280781026
C                     1.786214179148    -1.133996086063     4.168457769557
N                     0.520411242006    -0.249607116950     6.121773109951
O                     2.172674021218     1.298348113490     6.357229768991
O                     1.661714418664    -2.467735148060     4.669389167630
H                     1.742472232161    -1.090370573937    -1.238901726795
H                     2.698965337511     0.827952891650     0.030575298305
H                     0.841997302447    -3.056265049307    -0.007274112272
H                     2.748388134149     0.776369236915     2.508706074459
H                     0.892866070522    -3.098024984219     2.481962416043
H                     1.925423002298     0.481381877376     8.905070810683
H                     0.637977897304     1.649735116640     8.616184388124
H                     0.252003024980    -0.087053122558     8.677888631098
H                    -0.323855050610    -0.687761920890     4.268382662089
H                     0.722253919027     0.751158102159     4.292274140008
H                     2.714412962226    -0.680185674889     4.537541485236
H                    -0.274538507465    -0.690357752071     6.563522016713
H                     1.658163158029    -2.398281215963     5.637919599285
