40
0 1 C12H22N6
C                     1.570424888570    -2.549300136724     3.175497596799
C                     2.707421044285    -2.147228841966     2.515365124059
C                     1.168468250639    -2.199912211614     1.014997387272
C                     1.509621437503    -2.836729628586     4.644906344761
C                     0.984809108012    -1.191325001899    -1.184795097997
C                    -0.000997493750    -3.366396751518    -0.773845871261
C                     2.070540041379    -1.849699050519    -2.040442161462
C                     1.114816920621    -4.013151518537    -1.596119447875
C                     3.945007300036    -2.683092370738     4.444952851549
C                    -0.848717091008    -2.776371162635     2.421177946562
C                     5.124596596056    -2.230439058453     2.335385250035
C                     2.577640089947    -3.711538738610    -3.490455866139
N                     2.464454302272    -1.943912887964     1.174731835526
N                     0.567789837662    -2.562023869373     2.198604350137
N                     2.777851980391    -2.398443551656     5.270119323554
N                     3.945847442943    -1.967371916975     3.153864678966
N                     0.422137043698    -2.089754111349    -0.163904851516
N                     1.568172615110    -3.092754839585    -2.640570637606
H                     0.692695302439    -2.304803389933     5.149227334539
H                     1.360145560446    -3.904832446666     4.857244246320
H                     1.386591561973    -0.307766332997    -0.685914780210
H                     0.156427757450    -0.881893808605    -1.833317428027
H                    -0.855821559650    -3.157404488206    -1.427370016037
H                    -0.333348865486    -4.050208417448     0.011123823562
H                     2.349693371003    -1.163850205790    -2.849151185173
H                     2.963222953084    -2.028772454565    -1.419003994217
H                     1.942601909634    -4.308648994323    -0.922993684906
H                     0.731768207769    -4.923968767033    -2.071748999634
H                     4.845452796913    -2.390747859775     4.993872970727
H                     3.979751615160    -3.774582159768     4.281908410426
H                    -1.154711034897    -2.294068506329     3.354072140197
H                    -1.401603112916    -2.328239320359     1.593401133336
H                    -1.096395812117    -3.842885422479     2.482230618928
H                     6.019851398966    -1.934043838821     2.891625694531
H                     5.067407340670    -1.639646310784     1.420017998296
H                     5.220060699330    -3.293455658021     2.052580814620
H                     2.864423731607    -3.016873865052    -4.286954300342
H                     2.166616545563    -4.612861748889    -3.957788215574
H                     3.492911756406    -3.996066524280    -2.937282876721
H                     2.734649593072    -1.390112214998     5.408151960393
