30
0 1 C10H16N4
C                    -4.308239564623     1.794393221493    -0.059124985623
C                    -3.527710465655     0.796791032158     0.524782314559
C                    -3.931100914531     2.181855028861    -1.350744457418
C                    -2.208934550761     0.682751205383    -1.332367471710
C                     0.590725933754    -0.476597623257    -0.332486428343
C                    -0.942047874566    -2.245152719668    -1.313355235219
C                     1.527030896766    -1.622487924941     0.097324362257
C                     0.074826520148    -3.297870932747    -0.831353559035
C                    -0.239547378798    -0.898599911979    -1.556539352647
C                     0.049103480526    -2.886338446889     1.577464289582
N                    -2.482784185917     0.231415851275    -0.087219670501
N                    -2.898334095198     1.646133118494    -1.997389504834
N                     0.842763519298    -2.893734248753     0.349718782577
N                    -1.156764242475     0.149533673792    -2.012923840527
H                    -5.152757555088     2.241124770910     0.453988717435
H                    -3.745791469272     0.430915881952     1.528072206389
H                    -4.482305497019     2.954531900038    -1.886782831632
H                    -0.084987733321    -0.208543118863     0.482560265064
H                     1.178902169996     0.415781831777    -0.578102300266
H                    -1.419326818774    -2.582721979788    -2.241198786927
H                    -1.731287050502    -2.107651636046    -0.571081139992
H                     2.271397549187    -1.799319231604    -0.691841506760
H                     2.082375153197    -1.338426376143     0.997714729452
H                    -0.435115400546    -4.242068997198    -0.611708207040
H                     0.793107461345    -3.505291222237    -1.637068228207
H                     0.457609279117    -1.038783918767    -2.393051728014
H                     0.702811239210    -2.654035181307     2.424962246257
H                    -0.366468802368    -3.886358319897     1.741151998522
H                    -0.786174440828    -2.166377807265     1.586074330890
H                    -1.027377361113     0.544634503453    -2.934176262529
