
  -OEChem-05262117483D

 34 35  0     0  0  0  0  0  0999 V2000
   -2.7976    4.1779   -1.2658 C   0  0  0  0  0  0  0  0  0  0  0  0
   -3.8913    3.3322   -0.9216 C   0  0  0  0  0  0  0  0  0  0  0  0
   -1.5368    3.6641   -1.4042 C   0  0  0  0  0  0  0  0  0  0  0  0
   -3.6462    2.0012   -0.7368 C   0  0  0  0  0  0  0  0  0  0  0  0
   -1.2551    2.2579   -1.2081 C   0  0  0  0  0  0  0  0  0  0  0  0
   -2.6723   -0.4240    0.7119 C   0  0  0  0  0  0  0  0  0  0  0  0
   -2.2995   -0.5264    3.1246 C   0  0  0  0  0  0  0  0  0  0  0  0
   -0.5850    0.5498    1.7455 C   0  0  0  0  0  0  0  0  0  0  0  0
   -1.2043   -1.3377    3.8135 C   0  0  0  0  0  0  0  0  0  0  0  0
    0.4781   -0.2791    2.4652 C   0  0  0  0  0  0  0  0  0  0  0  0
    1.0954   -1.3221    4.5534 C   0  0  0  0  0  0  0  0  0  0  0  0
   -2.2102    0.0262   -0.6806 C   0  0  0  0  0  0  0  0  0  0  0  0
   -2.3871    1.4753   -0.8677 N   0  0  0  0  0  0  0  0  0  0  0  0
   -1.8712   -0.1478    1.7768 N   0  0  0  0  0  0  0  0  0  0  0  0
    0.0578   -0.5974    3.8293 N   0  0  0  0  0  0  0  0  0  0  0  0
   -0.1353    1.7349   -1.3074 O   0  0  0  0  0  0  0  0  0  0  0  0
   -3.7649   -0.9940    0.8169 O   0  0  0  0  0  0  0  0  0  0  0  0
   -2.9681    5.2408   -1.4208 H   0  0  0  0  0  0  0  0  0  0  0  0
   -4.8985    3.7162   -0.8091 H   0  0  0  0  0  0  0  0  0  0  0  0
   -0.6858    4.2833   -1.6670 H   0  0  0  0  0  0  0  0  0  0  0  0
   -4.4220    1.2900   -0.4709 H   0  0  0  0  0  0  0  0  0  0  0  0
   -3.2209   -1.1012    3.0411 H   0  0  0  0  0  0  0  0  0  0  0  0
   -2.4981    0.3856    3.7023 H   0  0  0  0  0  0  0  0  0  0  0  0
   -0.6974    1.5144    2.2577 H   0  0  0  0  0  0  0  0  0  0  0  0
   -0.2659    0.7493    0.7246 H   0  0  0  0  0  0  0  0  0  0  0  0
   -1.5070   -1.5410    4.8464 H   0  0  0  0  0  0  0  0  0  0  0  0
   -1.0989   -2.3118    3.2970 H   0  0  0  0  0  0  0  0  0  0  0  0
    0.6797   -1.1960    1.8767 H   0  0  0  0  0  0  0  0  0  0  0  0
    1.4071    0.2992    2.5060 H   0  0  0  0  0  0  0  0  0  0  0  0
    0.7696   -1.5015    5.5830 H   0  0  0  0  0  0  0  0  0  0  0  0
    2.0099   -0.7214    4.5867 H   0  0  0  0  0  0  0  0  0  0  0  0
    1.3410   -2.2985    4.0945 H   0  0  0  0  0  0  0  0  0  0  0  0
   -2.8418   -0.5063   -1.3932 H   0  0  0  0  0  0  0  0  0  0  0  0
   -1.1661   -0.1982   -0.8918 H   0  0  0  0  0  0  0  0  0  0  0  0
  1  2  1  0  0  0  0
  1  3  2  0  0  0  0
  1 18  1  0  0  0  0
  2  4  2  0  0  0  0
  2 19  1  0  0  0  0
  3  5  1  0  0  0  0
  3 20  1  0  0  0  0
  4 13  1  0  0  0  0
  4 21  1  0  0  0  0
  5 13  1  0  0  0  0
  5 16  2  0  0  0  0
  6 12  1  0  0  0  0
  6 14  1  0  0  0  0
  6 17  2  0  0  0  0
  7  9  1  0  0  0  0
  7 14  1  0  0  0  0
  7 22  1  0  0  0  0
  7 23  1  0  0  0  0
  8 10  1  0  0  0  0
  8 14  1  0  0  0  0
  8 24  1  0  0  0  0
  8 25  1  0  0  0  0
  9 15  1  0  0  0  0
  9 26  1  0  0  0  0
  9 27  1  0  0  0  0
 10 15  1  0  0  0  0
 10 28  1  0  0  0  0
 10 29  1  0  0  0  0
 11 15  1  0  0  0  0
 11 30  1  0  0  0  0
 11 31  1  0  0  0  0
 11 32  1  0  0  0  0
 12 13  1  0  0  0  0
 12 33  1  0  0  0  0
 12 34  1  0  0  0  0
M  END
$$$$
