26
0 1 C11H12N2O
C                     1.156737079809    -4.165021372128    -3.187081217148
C                     1.641365750420    -4.734298748096    -2.001736214068
C                     0.225163638407    -3.128136305237    -3.114059048411
C                     1.198214100708    -4.271859816747    -0.763668724562
C                    -0.230095194294    -2.649835001242    -1.878238540593
C                     0.261309495248    -3.229998076320    -0.701793319219
C                     0.518966471802     1.813783618602    -0.675819343764
C                     1.295912141452     0.871630744694    -0.126775624665
C                    -0.632123488112    -0.448570964110     0.316776929702
C                    -0.976384411023     1.745753760588    -0.458121078148
C                    -1.112100267699    -1.835177549424     0.703289763578
N                    -1.453495484344     0.371945580119    -0.218756286655
N                     0.705064650401    -0.179576916162     0.604356395678
O                    -0.103940887176    -2.840104292203     0.571503285821
H                     1.502585968277    -4.526152993693    -4.151514367247
H                     2.365474694867    -5.544056960879    -2.041200223691
H                    -0.156026085488    -2.674201775549    -4.025161576341
H                     1.558627845761    -4.706298854732     0.164550220167
H                    -0.940792592138    -1.831877076453    -1.851852177337
H                     0.954674153940     2.603488126518    -1.279527163977
H                     2.375672415976     0.834579370393    -0.226814650137
H                    -1.276278222282     2.369453165556     0.399516189055
H                    -1.515272764357     2.145305055259    -1.324075614075
H                    -2.006136380785    -2.072207468186     0.121072237356
H                    -1.372340047091    -1.845845185188     1.765230413583
H                     1.274964296435    -0.997839821653     0.786649255664
