
  -OEChem-05262117483D

 26 26  0     1  0  0  0  0  0999 V2000
    1.8173   -0.5434    0.2180 C   0  0  0  0  0  0  0  0  0  0  0  0
    2.7391    0.1188    1.0338 C   0  0  0  0  0  0  0  0  0  0  0  0
    0.9910   -1.5311    0.7665 C   0  0  0  0  0  0  0  0  0  0  0  0
    2.8279   -0.2067    2.3913 C   0  0  0  0  0  0  0  0  0  0  0  0
    1.0767   -1.8478    2.1231 C   0  0  0  0  0  0  0  0  0  0  0  0
    1.9961   -1.1858    2.9466 C   0  0  0  0  0  0  0  0  0  0  0  0
    0.0738    1.3310    4.0195 C   0  0  0  0  0  0  0  0  0  0  0  0
    0.4369    2.7552    3.6380 C   0  0  0  0  0  0  0  0  0  0  0  0
    0.8926   -0.6990    5.1652 C   0  0  0  0  0  0  0  0  0  0  0  0
    2.0274   -1.4547    4.4327 C   0  0  1  0  0  0  0  0  0  0  0  0
    0.9218    0.7329    4.9268 N   0  0  0  0  0  0  0  0  0  0  0  0
   -0.9017    0.7565    3.5464 O   0  0  0  0  0  0  0  0  0  0  0  0
    1.8892   -2.8618    4.6538 O   0  0  0  0  0  0  0  0  0  0  0  0
    1.7448   -0.2945   -0.8377 H   0  0  0  0  0  0  0  0  0  0  0  0
    3.3919    0.8805    0.6144 H   0  0  0  0  0  0  0  0  0  0  0  0
    0.2718   -2.0479    0.1363 H   0  0  0  0  0  0  0  0  0  0  0  0
    3.5567    0.3026    3.0193 H   0  0  0  0  0  0  0  0  0  0  0  0
    0.4308   -2.6081    2.5509 H   0  0  0  0  0  0  0  0  0  0  0  0
    0.9283    2.7299    2.6600 H   0  0  0  0  0  0  0  0  0  0  0  0
   -0.4783    3.3421    3.5408 H   0  0  0  0  0  0  0  0  0  0  0  0
    1.1072    3.2404    4.3541 H   0  0  0  0  0  0  0  0  0  0  0  0
    0.9620   -0.8947    6.2442 H   0  0  0  0  0  0  0  0  0  0  0  0
   -0.0711   -1.0661    4.8093 H   0  0  0  0  0  0  0  0  0  0  0  0
    2.9937   -1.1074    4.8322 H   0  0  0  0  0  0  0  0  0  0  0  0
    1.7608    1.2371    5.1817 H   0  0  0  0  0  0  0  0  0  0  0  0
    1.8323   -3.0156    5.6107 H   0  0  0  0  0  0  0  0  0  0  0  0
  1  2  1  0  0  0  0
  1  3  2  0  0  0  0
  1 14  1  0  0  0  0
  2  4  2  0  0  0  0
  2 15  1  0  0  0  0
  3  5  1  0  0  0  0
  3 16  1  0  0  0  0
  4  6  1  0  0  0  0
  4 17  1  0  0  0  0
  5  6  2  0  0  0  0
  5 18  1  0  0  0  0
  6 10  1  0  0  0  0
  7  8  1  0  0  0  0
  7 11  1  0  0  0  0
  7 12  2  0  0  0  0
  8 19  1  0  0  0  0
  8 20  1  0  0  0  0
  8 21  1  0  0  0  0
  9 10  1  0  0  0  0
  9 11  1  0  0  0  0
  9 22  1  0  0  0  0
  9 23  1  0  0  0  0
 10 13  1  0  0  0  0
 10 24  1  0  0  0  0
 11 25  1  0  0  0  0
 13 26  1  0  0  0  0
M  END
$$$$
