38   
torsion grid (-45,)
C        0.6171483161    1.0431529985    1.9803806283
C        0.6253149156    0.3770046165    0.7589085924
C        2.8649796642   -0.4214368293    1.2341323768
C        0.5682991985    1.7895006694    4.9295503160
C        2.8721492781    0.2534127293    2.4635104516
C        1.7267397379    0.9856880913    2.8342750060
C        1.7609987348   -0.3502929240    0.3911225965
C        2.1736269937    2.9045973389    5.8209365877
C        2.6891151587    2.3870580067    4.6416317991
C        2.8786128110    3.7374226557    6.7607103171
C        4.2556705952    4.9653821809    7.8573507733
C        4.0908138217   -0.0029742585    3.3310569935
C        4.0290928939    2.3865062697    3.9915252082
C        6.4819806136    4.7796253529    8.9672839413
C        5.6925803006    0.8134236200    4.9977932157
C        5.5080505560    5.6967665307    8.2018514083
N        0.8479659371    2.5250011950    5.9765458135
N        4.1665253750    4.0809901155    6.7312450904
N        3.0498739525    5.3278984094    8.2288548496
N        1.6563619081    1.6713386300    4.0763852745
N        4.6146654019    1.0433360617    4.0365412112
O        4.5800881606   -1.1341585805    3.3428795825
O        2.3690412590    4.0467117743    7.9698430729
Cl       1.7881896057   -1.1874217535   -1.1462080426
H       -0.2490929975    1.6313455930    2.2668543695
H       -0.2321650984    0.4298117402    0.0961198998
H        3.7281545377   -1.0215920813    0.9688201541
H       -0.3720557715    1.2921662032    4.7329727193
H        3.9532950980    2.7272182142    2.9523007112
H        4.6845804214    3.0710526630    4.5279748508
H        6.0368983502    4.4281500083    9.9029357419
H        7.4004198276    5.3232240737    9.2077467170
H        6.7486662142    3.9058927037    8.3651050284
H        6.5793696370    1.3920994968    4.7175361722
H        5.3715982032    1.1224112944    5.9978817710
H        5.9386471582   -0.2469370463    4.9969272513
H        5.9826050693    6.0511763600    7.2811490408
H        5.2420968920    6.5630297826    8.8137550825
38   
torsion grid (-30,)
C        0.6683720634    1.0137813804    1.9217302449
C        0.7083707847    0.3305526223    0.7103628800
C        2.9432730835   -0.4439498055    1.2451700556
C        0.5488578132    1.8005380159    4.8565093255
C        2.9178065112    0.2480049439    2.4647795847
C        1.7592277098    0.9765988330    2.8006427552
C        1.8572499660   -0.3929178132    0.3778238089
C        2.1252321251    2.9390430371    5.7694481526
C        2.6717716362    2.4097280390    4.6112121142
C        2.8058877923    3.7847388264    6.7227739957
C        4.1671035959    4.9603105684    7.8427166981
C        4.1194926729    0.0134460799    3.3615160306
C        4.0240115435    2.4109979789    3.9867130484
C        6.4749136337    4.6903971677    8.7711913377
C        5.6804021698    0.8666315858    5.0478898417
C        5.4219261357    5.6733649133    8.2281664007
N        0.7998780480    2.5522501319    5.9000733074
N        4.0798533423    4.1372929503    6.7124018130
N        2.9868615837    5.2495219064    8.3436226028
N        1.6559562895    1.6780719946    4.0313334168
N        4.6217115696    1.0743644726    4.0610038232
O        4.6166919798   -1.1137014691    3.4004614900
O        2.2106751877    4.1293027383    7.8811313205
Cl       1.9241997563   -1.2511530224   -1.1467211602
H       -0.2082485150    1.5992925897    2.1807821977
H       -0.1347206071    0.3674232654    0.0282990832
H        3.8165957618   -1.0408735280    1.0071147217
H       -0.3837128148    1.2943680831    4.6460945654
H        3.9649655033    2.7356585408    2.9413008433
H        4.6640753563    3.1089353256    4.5240492443
H        6.1101358090    4.1809043946    9.6683536991
H        7.3934147438    5.2249226091    9.0313220439
H        6.7203801761    3.9310052843    8.0227892838
H        6.5669813364    1.4518664714    4.7808074131
H        5.3345545324    1.1822203499    6.0377409289
H        5.9378374968   -0.1909157996    5.0642554069
H        5.8205094389    6.1912378688    7.3492454649
H        5.1729855255    6.4237009796    8.9830569814
38   
torsion grid (-15,)
C        0.6645756432    1.0166388886    1.9307075881
C        0.7116377578    0.3203936666    0.7270302483
C        2.9461969981   -0.4419736694    1.2803094294
C        0.5286525542    1.8337620127    4.8552294151
C        2.9133136053    0.2629958784    2.4923086414
C        1.7512435844    0.9919665548    2.8152968709
C        1.8639429230   -0.4035047106    0.4076793776
C        2.0982133745    2.9837926966    5.7661789630
C        2.6518956381    2.4455971709    4.6167223555
C        2.7766982620    3.8279715389    6.7257452016
C        4.1522593472    4.9753298389    7.8495179313
C        4.1124382461    0.0417636111    3.3958981028
C        4.0062747769    2.4448370835    3.9969712326
C        6.4929211161    4.6236018899    8.6799284769
C        5.6657912492    0.9172579711    5.0776331865
C        5.4249837862    5.6462159461    8.2550870344
N        0.7738159747    2.5947348751    5.8941291430
N        4.0446132761    4.1858057756    6.7136577047
N        3.0053750354    5.1797196966    8.4539682806
N        1.6398099040    1.7055981973    4.0380795650
N        4.6088443819    1.1112665561    4.0863620972
O        4.6134900230   -1.0831943771    3.4478554883
O        2.1420314081    4.2394848483    7.8356564113
Cl       1.9401564854   -1.2782979915   -1.1070959349
H       -0.2147155960    1.6026254252    2.1793960998
H       -0.1284867781    0.3476016560    0.0408538661
H        3.8222868806   -1.0388902862    1.0526461685
H       -0.4022216374    1.3244254247    4.6450531483
H        3.9496120490    2.7584829882    2.9480854682
H        4.6422652980    3.1504400267    4.5289482235
H        6.1569534413    4.0436515348    9.5450215972
H        7.4218195579    5.1344963637    8.9507803846
H        6.7096042582    3.9266827150    7.8649496494
H        6.5505737376    1.5038588012    4.8074792677
H        5.3162729998    1.2402616983    6.0638710739
H        5.9278530189   -0.1389514846    5.1044938029
H        5.7936219732    6.2348582167    7.4080531203
H        5.2053562954    6.3365877615    9.0736053156
38   
torsion grid (0,)
C        0.6727010683    1.0175091896    1.9305456490
C        0.7245401087    0.3134444080    0.7315728840
C        2.9576372688   -0.4425856323    1.2972628880
C        0.5265084762    1.8491372017    4.8518399140
C        2.9199893046    0.2702570751    2.5045287342
C        1.7560761298    0.9999995698    2.8193209668
C        1.8784609670   -0.4114546484    0.4205454828
C        2.0926678617    3.0032352820    5.7633759856
C        2.6493076836    2.4640707631    4.6162072543
C        2.7736115331    3.8389229314    6.7304620941
C        4.1464286667    4.9671261294    7.8574371623
C        4.1170004411    0.0566141704    3.4128316040
C        4.0043823007    2.4631023429    3.9979906986
C        6.5181054535    4.5548414946    8.5906495058
C        5.6645014730    0.9460921590    5.0926861630
C        5.4285350755    5.5994335551    8.2981192049
N        0.7691875408    2.6113551828    5.8905450381
N        4.0395600671    4.1914091246    6.7198552387
N        3.0277190414    5.0894182183    8.5344962973
N        1.6394445202    1.7205593439    4.0375076933
N        4.6103888929    1.1317135407    4.0968239418
O        4.6195042874   -1.0672538105    3.4736658060
O        2.0976151233    4.3318522234    7.7813818020
Cl       1.9607148855   -1.2963962664   -1.0880846836
H       -0.2081145426    1.6040522496    2.1724271666
H       -0.1133428071    0.3353055768    0.0424747529
H        3.8352246940   -1.0398986835    1.0765242115
H       -0.4033840364    1.3383393792    4.6408697508
H        3.9478351339    2.7691890836    2.9469087844
H        4.6384127267    3.1737230022    4.5254668754
H        6.2123138945    3.8893340490    9.4038662244
H        7.4494968434    5.0481405703    8.8848245455
H        6.7174125544    3.9429951346    7.7061775003
H        6.5515701257    1.5273282694    4.8183077845
H        5.3133836728    1.2810799875    6.0743182171
H        5.9239150855   -0.1103970953    5.1319175831
H        5.7673715593    6.2745752522    7.5041502895
H        5.2254352236    6.2074251527    9.1834489279
38   
torsion grid (15,)
C        0.6655591699    1.0203443837    1.9259482966
C        0.7177493805    0.3012206573    0.7359965547
C        2.9523338070   -0.4448068494    1.3110456296
C        0.5188418775    1.8885111268    4.8368267379
C        2.9143861855    0.2832139461    2.5091975685
C        1.7493370256    1.0153523076    2.8143804197
C        1.8727369080   -0.4259804354    0.4344706094
C        2.0858755538    3.0509912006    5.7363972941
C        2.6415233271    2.5003226481    4.5938401540
C        2.7723127399    3.8805934159    6.7028927032
C        4.1623274090    4.9968663076    7.8399299961
C        4.1127258481    0.0826828517    3.4191058320
C        3.9960934975    2.4953415317    3.9748235219
C        6.5511111995    4.5011212790    8.4840519726
C        5.6623528610    0.9959075521    5.0848992573
C        5.4622845676    5.5709143823    8.3051442103
N        0.7624485769    2.6596505416    5.8685696816
N        4.0458377700    4.2169986624    6.6983846754
N        3.0636444644    5.0385199858    8.5572238820
N        1.6318011327    1.7512145408    4.0233496445
N        4.6048686670    1.1666353013    4.0897583293
O        4.6174802827   -1.0394114428    3.4926160651
O        2.0888278204    4.4847073648    7.6887473287
Cl       1.9559456143   -1.3299794012   -1.0626809899
H       -0.2159166898    1.6087819125    2.1607375000
H       -0.1203011113    0.3131533631    0.0468491335
H        3.8305523352   -1.0438085113    1.0975427503
H       -0.4112104803    1.3758623608    4.6311352744
H        3.9377770271    2.7883917619    2.9201319132
H        4.6285638234    3.2135214896    4.4938668105
H        6.2580463738    3.7712700756    9.2450650979
H        7.4916749204    4.9637916696    8.7983228367
H        6.7262262010    3.9645591939    7.5475200942
H        6.5508730852    1.5678099380    4.7957622810
H        5.3164683309    1.3520639740    6.0607723183
H        5.9176424086   -0.0606971661    5.1435038731
H        5.7876575228    6.3095030907    7.5629608275
H        5.2832477111    6.1084367482    9.2400286524
38   
torsion grid (30,)
C        0.6922363426    0.9779672047    1.9165115823
C        0.7553216740    0.2448925156    0.7356686961
C        2.9918895918   -0.4799944963    1.3300766788
C        0.5257541122    1.8810503177    4.8161064485
C        2.9433491642    0.2622339416    2.5190721782
C        1.7720493580    0.9904351578    2.8095866784
C        1.9163393280   -0.4784820859    0.4483071999
C        2.0829892257    3.0597875334    5.7113009623
C        2.6466011951    2.4990893088    4.5762732542
C        2.7639586385    3.8893196602    6.6783074705
C        4.1398680965    4.9979247713    7.8482528068
C        4.1388922036    0.0803457448    3.4368296753
C        4.0035785350    2.4983364824    3.9627605267
C        6.5401275344    4.4688707717    8.4514787756
C        5.6771904552    1.0249133105    5.0963187230
C        5.4378159811    5.5357562585    8.3579827705
N        0.7604116102    2.6624741765    5.8414095251
N        4.0417095007    4.2262188886    6.6830231011
N        3.0559362600    4.9226811627    8.5887164890
N        1.6442367047    1.7401884263    4.0090205556
N        4.6220361471    1.1758605074    4.0953082830
O        4.6500094402   -1.0376293496    3.5262865829
O        2.0690795477    4.5859319610    7.5984213643
Cl       2.0124103932   -1.3997409737   -1.0373829204
H       -0.1942126348    1.5633305858    2.1400537366
H       -0.0793958937    0.2430148117    0.0424058773
H        3.8749034648   -1.0758869005    1.1279562015
H       -0.4006281991    1.3617414350    4.6105099619
H        3.9467172865    2.7790394199    2.9046183847
H        4.6278995236    3.2271595495    4.4768823317
H        6.2550224165    3.6775595583    9.1515800253
H        7.4746662506    4.9167879109    8.8031463283
H        6.7213084844    4.0104792095    7.4757356288
H        6.5593815689    1.6062001783    4.8067463334
H        5.3231553468    1.3835333907    6.0683337882
H        5.9452970408   -0.0280294417    5.1628173959
H        5.7542147926    6.3349585582    7.6761925476
H        5.2529634392    5.9998200485    9.3304121475
38   
torsion grid (45,)
C        0.6816173185    1.0089071218    1.8700547411
C        0.7565492618    0.2656474386    0.6963435092
C        2.9716329211   -0.4853184865    1.3389174212
C        0.4714582865    1.9324854103    4.7628201616
C        2.9108202383    0.2675119750    2.5207152601
C        1.7442755377    1.0139317521    2.7834575650
C        1.9126643065   -0.4761061817    0.4373300697
C        2.0299473934    3.0891572702    5.6843735662
C        2.6049400107    2.5181003097    4.5583968720
C        2.7094118882    3.8956635491    6.6647148711
C        4.0978590753    4.9493547733    7.9174854761
C        4.0881990273    0.0768140949    3.4604758725
C        3.9735730219    2.4988040793    3.9723376723
C        6.5799787753    4.5050177763    8.2218913226
C        5.6100069141    1.0110878127    5.1414773390
C        5.3948316058    5.4535689314    8.4556953072
N        0.6987442982    2.7111203250    5.7910172674
N        3.9962969430    4.2429812222    6.6731611256
N        3.0474197930    4.6819184854    8.6593748316
N        1.6032813807    1.7741678554    3.9750502648
N        4.5710173138    1.1690291140    4.1244391999
O        4.5860564201   -1.0460106535    3.5625185739
O        2.0480394235    4.6328770105    7.5787522954
Cl       2.0236442960   -1.4112707940   -1.0383764726
H       -0.2007705831    1.6080008657    2.0722680907
H       -0.0648718957    0.2695614257   -0.0126184201
H        3.8499850482   -1.0948884171    1.1584062430
H       -0.4585268649    1.4268384179    4.5400383575
H        3.9409396839    2.7751231096    2.9120132034
H        4.5951870074    3.2229121804    4.4967022197
H        6.4093912386    3.5435125677    8.7156766546
H        7.4989719899    4.9403334317    8.6264893768
H        6.7239549926    4.3165551464    7.1553641460
H        6.5129308961    1.5586190313    4.8496488783
H        5.2547962033    1.4042277641    6.0993488407
H        5.8459715160   -0.0473843827    5.2362791461
H        5.5922457276    6.4188421809    7.9704055143
H        5.2520714211    5.6645369379    9.5194904051
