
  -OEChem-05262117483D

 40 42  0     1  0  0  0  0  0999 V2000
   -0.1168   -2.5485   -1.6161 C   0  0  0  0  0  0  0  0  0  0  0  0
    2.1268   -3.2188   -1.0523 C   0  0  0  0  0  0  0  0  0  0  0  0
   -0.1356   -3.4672   -2.6675 C   0  0  0  0  0  0  0  0  0  0  0  0
    2.1234   -4.1415   -2.0996 C   0  0  0  0  0  0  0  0  0  0  0  0
    2.5290   -5.0619    2.4399 C   0  0  0  0  0  0  0  0  0  0  0  0
    2.3046   -3.7055    2.5144 C   0  0  0  0  0  0  0  0  0  0  0  0
    0.6388   -4.7251    1.4806 C   0  0  0  0  0  0  0  0  0  0  0  0
    1.0122   -2.4086   -0.7986 C   0  0  0  0  0  0  0  0  0  0  0  0
    0.9892   -4.2589   -2.9020 C   0  0  0  0  0  0  0  0  0  0  0  0
    0.7167    0.6841   -1.0193 C   0  0  0  0  0  0  0  0  0  0  0  0
    0.9129    1.1933    0.3819 C   0  0  0  0  0  0  0  0  0  0  0  0
    0.2326   -0.1530    0.1476 C   0  0  0  0  0  0  0  0  0  0  0  0
   -3.2140    0.7820    2.3667 C   0  0  0  0  0  0  0  0  0  0  0  0
    0.4326   -2.2260    1.6384 C   0  0  0  0  0  0  0  0  0  0  0  0
   -1.7867    0.2833    2.1368 C   0  0  0  0  0  0  0  0  0  0  0  0
    1.0168   -1.4745    0.4093 C   0  0  1  0  0  0  0  0  0  0  0  0
    1.4820   -5.6891    1.7927 N   0  0  0  0  0  0  0  0  0  0  0  0
    1.0797   -3.4948    1.9032 N   0  0  0  0  0  0  0  0  0  0  0  0
    2.3949   -1.1718    0.6662 O   0  0  0  0  0  0  0  0  0  0  0  0
   -1.5700   -0.1327    0.3592 S   0  0  0  0  0  0  0  0  0  0  0  0
    0.9717   -5.4193   -4.2211 Cl  0  0  0  0  0  0  0  0  0  0  0  0
   -1.0035   -1.9498   -1.4418 H   0  0  0  0  0  0  0  0  0  0  0  0
    3.0015   -3.1371   -0.4186 H   0  0  0  0  0  0  0  0  0  0  0  0
   -1.0146   -3.5669   -3.2965 H   0  0  0  0  0  0  0  0  0  0  0  0
    2.9886   -4.7710   -2.2808 H   0  0  0  0  0  0  0  0  0  0  0  0
    3.3762   -5.6192    2.8190 H   0  0  0  0  0  0  0  0  0  0  0  0
    2.8843   -2.8960    2.9328 H   0  0  0  0  0  0  0  0  0  0  0  0
   -0.2949   -4.8427    0.9450 H   0  0  0  0  0  0  0  0  0  0  0  0
   -0.0286    1.1602   -1.6470 H   0  0  0  0  0  0  0  0  0  0  0  0
    1.5925    0.3047   -1.5367 H   0  0  0  0  0  0  0  0  0  0  0  0
    1.9289    1.2143    0.7605 H   0  0  0  0  0  0  0  0  0  0  0  0
    0.2816    2.0066    0.7245 H   0  0  0  0  0  0  0  0  0  0  0  0
   -3.4160    1.6842    1.7821 H   0  0  0  0  0  0  0  0  0  0  0  0
   -3.9508    0.0226    2.0863 H   0  0  0  0  0  0  0  0  0  0  0  0
   -3.3622    1.0168    3.4259 H   0  0  0  0  0  0  0  0  0  0  0  0
    0.5209   -1.5872    2.5247 H   0  0  0  0  0  0  0  0  0  0  0  0
   -0.6276   -2.4159    1.4698 H   0  0  0  0  0  0  0  0  0  0  0  0
   -1.5891   -0.5965    2.7551 H   0  0  0  0  0  0  0  0  0  0  0  0
   -1.0567    1.0555    2.3974 H   0  0  0  0  0  0  0  0  0  0  0  0
    2.4381   -0.6899    1.5072 H   0  0  0  0  0  0  0  0  0  0  0  0
  1  3  1  0  0  0  0
  1  8  2  0  0  0  0
  1 22  1  0  0  0  0
  2  4  2  0  0  0  0
  2  8  1  0  0  0  0
  2 23  1  0  0  0  0
  3  9  2  0  0  0  0
  3 24  1  0  0  0  0
  4  9  1  0  0  0  0
  4 25  1  0  0  0  0
  5  6  2  0  0  0  0
  5 17  1  0  0  0  0
  5 26  1  0  0  0  0
  6 18  1  0  0  0  0
  6 27  1  0  0  0  0
  7 17  2  0  0  0  0
  7 18  1  0  0  0  0
  7 28  1  0  0  0  0
  8 16  1  0  0  0  0
  9 21  1  0  0  0  0
 10 11  1  0  0  0  0
 10 12  1  0  0  0  0
 10 29  1  0  0  0  0
 10 30  1  0  0  0  0
 11 12  1  0  0  0  0
 11 31  1  0  0  0  0
 11 32  1  0  0  0  0
 12 16  1  0  0  0  0
 12 20  1  0  0  0  0
 13 15  1  0  0  0  0
 13 33  1  0  0  0  0
 13 34  1  0  0  0  0
 13 35  1  0  0  0  0
 14 16  1  0  0  0  0
 14 18  1  0  0  0  0
 14 36  1  0  0  0  0
 14 37  1  0  0  0  0
 15 20  1  0  0  0  0
 15 38  1  0  0  0  0
 15 39  1  0  0  0  0
 16 19  1  0  0  0  0
 19 40  1  0  0  0  0
M  END
$$$$
