
  -OEChem-05262117483D

 56 59  0     1  0  0  0  0  0999 V2000
   -0.6849    3.6418   -1.1182 C   0  0  0  0  0  0  0  0  0  0  0  0
    0.1716    2.9190   -0.2536 C   0  0  0  0  0  0  0  0  0  0  0  0
   -1.6203    3.0177   -1.9481 C   0  0  0  0  0  0  0  0  0  0  0  0
   -0.8438    0.9045   -1.0113 C   0  0  0  0  0  0  0  0  0  0  0  0
    0.1019    1.5284   -0.1924 C   0  0  0  0  0  0  0  0  0  0  0  0
   -1.1238   -0.4893   -1.1431 C   0  0  0  0  0  0  0  0  0  0  0  0
   -1.6888    1.6211   -1.8843 C   0  0  0  0  0  0  0  0  0  0  0  0
   -2.1187   -0.6109   -2.0867 C   0  0  0  0  0  0  0  0  0  0  0  0
   -0.3807   -1.4392   -0.2510 C   0  0  0  0  0  0  0  0  0  0  0  0
    2.3990    1.1583    0.8197 C   0  0  0  0  0  0  0  0  0  0  0  0
    3.2721   -1.1915    1.0201 C   0  0  0  0  0  0  0  0  0  0  0  0
    0.9670    0.6172    0.6748 C   0  0  2  0  0  0  0  0  0  0  0  0
    3.3314    0.2216    1.6042 C   0  0  2  0  0  0  0  0  0  0  0  0
    0.9906   -0.7978    0.0442 C   0  0  1  0  0  0  0  0  0  0  0  0
    1.2535   -3.8634    4.0832 C   0  0  0  0  0  0  0  0  0  0  0  0
   -2.8676   -4.1683   -2.5661 C   0  0  0  0  0  0  0  0  0  0  0  0
    3.3248    1.7792    5.4816 C   0  0  0  0  0  0  0  0  0  0  0  0
   -2.8351   -1.8116   -2.6225 C   0  0  0  0  0  0  0  0  0  0  0  0
    3.1323    0.3007    3.1300 C   0  0  0  0  0  0  0  0  0  0  0  0
    2.0623   -3.2686    2.9222 C   0  0  0  0  0  0  0  0  0  0  0  0
    1.2274   -2.2304    2.1759 C   0  0  0  0  0  0  0  0  0  0  0  0
   -2.4613    0.6678   -2.5341 N   0  0  0  0  0  0  0  0  0  0  0  0
    1.8637   -1.7489    0.8839 N   0  3  2  0  0  0  0  0  0  0  0  0
   -2.2148   -2.9818   -2.1192 O   0  0  0  0  0  0  0  0  0  0  0  0
    3.8759    1.8593    3.7449 S   0  0  0  0  0  0  0  0  0  0  0  0
   -0.6069    4.7249   -1.1403 H   0  0  0  0  0  0  0  0  0  0  0  0
    0.8797    3.4742    0.3542 H   0  0  0  0  0  0  0  0  0  0  0  0
   -2.2565    3.6024   -2.6068 H   0  0  0  0  0  0  0  0  0  0  0  0
   -0.9458   -1.5782    0.6773 H   0  0  0  0  0  0  0  0  0  0  0  0
   -0.2598   -2.4224   -0.7159 H   0  0  0  0  0  0  0  0  0  0  0  0
    2.8072    1.3255   -0.1837 H   0  0  0  0  0  0  0  0  0  0  0  0
    2.3802    2.1300    1.3157 H   0  0  0  0  0  0  0  0  0  0  0  0
    3.6658   -1.1747    0.0002 H   0  0  0  0  0  0  0  0  0  0  0  0
    3.8583   -1.9077    1.5947 H   0  0  0  0  0  0  0  0  0  0  0  0
    0.5002    0.5456    1.6668 H   0  0  0  0  0  0  0  0  0  0  0  0
    4.3645    0.5367    1.4109 H   0  0  0  0  0  0  0  0  0  0  0  0
    1.5333   -0.7270   -0.9048 H   0  0  0  0  0  0  0  0  0  0  0  0
    0.9516   -3.0876    4.7942 H   0  0  0  0  0  0  0  0  0  0  0  0
    0.3496   -4.3665    3.7257 H   0  0  0  0  0  0  0  0  0  0  0  0
    1.8533   -4.5975    4.6263 H   0  0  0  0  0  0  0  0  0  0  0  0
   -2.3281   -5.0122   -2.1326 H   0  0  0  0  0  0  0  0  0  0  0  0
   -2.8409   -4.2471   -3.6616 H   0  0  0  0  0  0  0  0  0  0  0  0
   -3.9132   -4.1963   -2.2303 H   0  0  0  0  0  0  0  0  0  0  0  0
    3.7159    2.6700    5.9775 H   0  0  0  0  0  0  0  0  0  0  0  0
    3.7259    0.8946    5.9832 H   0  0  0  0  0  0  0  0  0  0  0  0
    2.2337    1.7895    5.5508 H   0  0  0  0  0  0  0  0  0  0  0  0
   -3.8971   -1.7837   -2.3247 H   0  0  0  0  0  0  0  0  0  0  0  0
   -2.8093   -1.8080   -3.7255 H   0  0  0  0  0  0  0  0  0  0  0  0
    3.6168   -0.5453    3.6295 H   0  0  0  0  0  0  0  0  0  0  0  0
    2.0728    0.2993    3.4033 H   0  0  0  0  0  0  0  0  0  0  0  0
    2.3610   -4.0703    2.2338 H   0  0  0  0  0  0  0  0  0  0  0  0
    2.9794   -2.8236    3.3162 H   0  0  0  0  0  0  0  0  0  0  0  0
    0.2734   -2.6712    1.8901 H   0  0  0  0  0  0  0  0  0  0  0  0
    1.0235   -1.3574    2.7912 H   0  0  0  0  0  0  0  0  0  0  0  0
   -3.1539    0.8628   -3.2446 H   0  0  0  0  0  0  0  0  0  0  0  0
    1.9584   -2.5930    0.3104 H   0  0  0  0  0  0  0  0  0  0  0  0
  1  2  1  0  0  0  0
  1  3  2  0  0  0  0
  1 26  1  0  0  0  0
  2  5  2  0  0  0  0
  2 27  1  0  0  0  0
  3  7  1  0  0  0  0
  3 28  1  0  0  0  0
  4  5  1  0  0  0  0
  4  6  1  0  0  0  0
  4  7  2  0  0  0  0
  5 12  1  0  0  0  0
  6  8  2  0  0  0  0
  6  9  1  0  0  0  0
  7 22  1  0  0  0  0
  8 18  1  0  0  0  0
  8 22  1  0  0  0  0
  9 14  1  0  0  0  0
  9 29  1  0  0  0  0
  9 30  1  0  0  0  0
 10 12  1  0  0  0  0
 10 13  1  0  0  0  0
 10 31  1  0  0  0  0
 10 32  1  0  0  0  0
 11 13  1  0  0  0  0
 11 23  1  0  0  0  0
 11 33  1  0  0  0  0
 11 34  1  0  0  0  0
 12 14  1  0  0  0  0
 12 35  1  0  0  0  0
 13 19  1  0  0  0  0
 13 36  1  0  0  0  0
 14 23  1  0  0  0  0
 14 37  1  0  0  0  0
 15 20  1  0  0  0  0
 15 38  1  0  0  0  0
 15 39  1  0  0  0  0
 15 40  1  0  0  0  0
 16 24  1  0  0  0  0
 16 41  1  0  0  0  0
 16 42  1  0  0  0  0
 16 43  1  0  0  0  0
 17 25  1  0  0  0  0
 17 44  1  0  0  0  0
 17 45  1  0  0  0  0
 17 46  1  0  0  0  0
 18 24  1  0  0  0  0
 18 47  1  0  0  0  0
 18 48  1  0  0  0  0
 19 25  1  0  0  0  0
 19 49  1  0  0  0  0
 19 50  1  0  0  0  0
 20 21  1  0  0  0  0
 20 51  1  0  0  0  0
 20 52  1  0  0  0  0
 21 23  1  0  0  0  0
 21 53  1  0  0  0  0
 21 54  1  0  0  0  0
 22 55  1  0  0  0  0
 23 56  1  0  0  0  0
M  CHG  1  23   1
M  END
$$$$
