61
0 1 C22ClH34NO2S
C                     9.100913835243    -6.746687474044     0.009128455054
C                    10.309069778712    -5.867854526969    -1.900700896078
C                    10.033294578814    -7.786845851239     0.108765300554
C                    11.234979452304    -6.901881904628    -1.800966941268
C                     9.235984063972    -5.781253798009    -0.998268883827
C                    11.092072236088    -7.860358011615    -0.791831175873
C                    -1.349971620561    -2.205471075334     1.552793709347
C                    -1.850441163347    -0.927976285228     0.868045780762
C                     0.135260028719    -2.094804737401     1.901135080688
C                     0.497154850824    -0.492757610458     0.136853550637
C                     2.874531709553    -3.640788877983    -0.762108572559
C                     3.127612107584    -2.196092742801    -0.331135290755
C                    -0.970496806544    -0.516702709904    -0.332296453724
C                     5.264323690074    -3.166080496744     0.281139569826
C                    -1.130450678128    -1.504222845684    -1.502011377078
C                    -1.365397252671     0.892070971179    -0.800455684886
C                     5.665039740828    -2.970272699511     1.748946397828
C                     5.988085721818    -3.519071256100    -2.143517648103
C                     7.386419355672    -2.094817580532    -0.632105078036
C                     2.362428650299    -1.821800896765     0.947694539369
C                     7.287255621057    -4.583930540676    -0.279553281760
C                     6.480510792024    -3.343627060492    -0.695324318322
N                     0.922562204392    -1.774123305401     0.706925803694
O                     4.539165948146    -2.017679476742    -0.166172608702
O                     8.386454400190    -4.729314464991    -1.184460351077
S                     4.065840698550    -4.617477830490     0.213142166250
Cl                   12.261708015698    -9.168815240781    -0.663045699120
H                     8.282022425979    -6.709199263956     0.717622004443
H                    10.401076037004    -5.113149672765    -2.676117270049
H                     9.928727537412    -8.535415350779     0.887940203289
H                    12.063031935105    -6.966074566393    -2.499915197423
H                    -1.924314423668    -2.392329554583     2.467497748580
H                    -1.497855155765    -3.071631090772     0.898862886593
H                    -2.891251407490    -1.048506909709     0.543661732861
H                    -1.843105057965    -0.109062634645     1.600658338397
H                     0.273482788346    -1.326019901108     2.688278016355
H                     0.496708251717    -3.044465783954     2.308757174505
H                     1.141810938068    -0.249386502971    -0.714256315673
H                     0.626449586558     0.321911636721     0.877704233251
H                     1.856035450190    -3.942637120601    -0.511704604690
H                     3.046773107720    -3.779169750468    -1.831524575637
H                     2.844653506972    -1.515244236414    -1.139702251552
H                    -0.546474336195    -1.172126823120    -2.368604233016
H                    -2.179154283006    -1.571922931044    -1.813295098077
H                    -0.783533920632    -2.504742955201    -1.234541597627
H                    -0.744962468918     1.218971018587    -1.643403326102
H                    -1.253606058617     1.627008072006     0.005007630403
H                    -2.410495652589     0.913130467296    -1.129576720797
H                     4.775094225791    -2.761114078759     2.343586406695
H                     6.351729950864    -2.126886799020     1.852081570366
H                     6.141031239216    -3.862898343659     2.163788596091
H                     6.843273718760    -3.621792638519    -2.814768096997
H                     5.367891083975    -4.413399247459    -2.249640856804
H                     5.408386772196    -2.646827242645    -2.454502585064
H                     8.160484898977    -2.164162533875    -1.399956842613
H                     7.893166977509    -1.998544756894     0.332594512788
H                     6.799927686287    -1.190138443715    -0.808526039523
H                     2.763011650027    -0.867841687696     1.330962929557
H                     2.564059756980    -2.585618124328     1.703744308038
H                     6.654901379930    -5.478906398403    -0.321317360130
H                     7.680261967317    -4.473801047732     0.738009265582
