
  -OEChem-05262117483D

 61 63  0     1  0  0  0  0  0999 V2000
    8.7805   -6.3331   -0.0674 C   0  0  0  0  0  0  0  0  0  0  0  0
    9.9999   -5.7525   -2.0812 C   0  0  0  0  0  0  0  0  0  0  0  0
    9.7319   -7.3217    0.2132 C   0  0  0  0  0  0  0  0  0  0  0  0
   10.9447   -6.7351   -1.8013 C   0  0  0  0  0  0  0  0  0  0  0  0
    8.9113   -5.5433   -1.2183 C   0  0  0  0  0  0  0  0  0  0  0  0
   10.8057   -7.5183   -0.6504 C   0  0  0  0  0  0  0  0  0  0  0  0
    3.2245    2.0999    0.4649 C   0  0  0  0  0  0  0  0  0  0  0  0
    2.6615    2.4381    1.8492 C   0  0  0  0  0  0  0  0  0  0  0  0
    2.5164    0.8859   -0.1391 C   0  0  0  0  0  0  0  0  0  0  0  0
    1.9456    0.0554    2.0563 C   0  0  0  0  0  0  0  0  0  0  0  0
    2.4573   -3.4548   -1.3177 C   0  0  0  0  0  0  0  0  0  0  0  0
    2.7284   -1.9659   -1.0709 C   0  0  1  0  0  0  0  0  0  0  0  0
    2.6464    1.2148    2.7904 C   0  0  0  0  0  0  0  0  0  0  0  0
    4.8800   -2.8379   -0.4216 C   0  0  2  0  0  0  0  0  0  0  0  0
    4.0765    0.7997    3.1804 C   0  0  0  0  0  0  0  0  0  0  0  0
    1.8509    1.5513    4.0606 C   0  0  0  0  0  0  0  0  0  0  0  0
    5.2543   -2.4205    1.0054 C   0  0  0  0  0  0  0  0  0  0  0  0
    5.6362   -3.5601   -2.7531 C   0  0  0  0  0  0  0  0  0  0  0  0
    6.9898   -1.8835   -1.4787 C   0  0  0  0  0  0  0  0  0  0  0  0
    2.0196   -1.4751    0.2063 C   0  0  0  0  0  0  0  0  0  0  0  0
    6.9315   -4.2840   -0.7265 C   0  0  0  0  0  0  0  0  0  0  0  0
    6.1083   -3.1448   -1.3474 C   0  0  0  0  0  0  0  0  0  0  0  0
    2.5757   -0.2576    0.7732 N   0  0  1  0  0  0  0  0  0  0  0  0
    4.1450   -1.7979   -1.0623 O   0  0  0  0  0  0  0  0  0  0  0  0
    8.0430   -4.5566   -1.5857 O   0  0  0  0  0  0  0  0  0  0  0  0
    3.6977   -4.3092   -0.2884 S   0  0  0  0  0  0  0  0  0  0  0  0
   11.9991   -8.7618   -0.2946 Cl  0  0  0  0  0  0  0  0  0  0  0  0
    7.9504   -6.1980    0.6157 H   0  0  0  0  0  0  0  0  0  0  0  0
   10.0888   -5.1333   -2.9689 H   0  0  0  0  0  0  0  0  0  0  0  0
    9.6304   -7.9343    1.1036 H   0  0  0  0  0  0  0  0  0  0  0  0
   11.7848   -6.8942   -2.4702 H   0  0  0  0  0  0  0  0  0  0  0  0
    3.1094    2.9564   -0.2094 H   0  0  0  0  0  0  0  0  0  0  0  0
    4.2963    1.8856    0.5299 H   0  0  0  0  0  0  0  0  0  0  0  0
    3.2322    3.2549    2.3080 H   0  0  0  0  0  0  0  0  0  0  0  0
    1.6308    2.8015    1.7337 H   0  0  0  0  0  0  0  0  0  0  0  0
    1.4634    1.1470   -0.3756 H   0  0  0  0  0  0  0  0  0  0  0  0
    3.0062    0.6139   -1.0768 H   0  0  0  0  0  0  0  0  0  0  0  0
    1.9798   -0.8439    2.6833 H   0  0  0  0  0  0  0  0  0  0  0  0
    0.8745    0.3115    1.9209 H   0  0  0  0  0  0  0  0  0  0  0  0
    1.4567   -3.7506   -0.9923 H   0  0  0  0  0  0  0  0  0  0  0  0
    2.5870   -3.7110   -2.3716 H   0  0  0  0  0  0  0  0  0  0  0  0
    2.3871   -1.3815   -1.9306 H   0  0  0  0  0  0  0  0  0  0  0  0
    4.0545   -0.0345    3.8916 H   0  0  0  0  0  0  0  0  0  0  0  0
    4.6057    1.6321    3.6586 H   0  0  0  0  0  0  0  0  0  0  0  0
    4.6522    0.4756    2.3112 H   0  0  0  0  0  0  0  0  0  0  0  0
    1.8085    0.6929    4.7416 H   0  0  0  0  0  0  0  0  0  0  0  0
    0.8217    1.8436    3.8220 H   0  0  0  0  0  0  0  0  0  0  0  0
    2.3175    2.3821    4.6020 H   0  0  0  0  0  0  0  0  0  0  0  0
    4.3657   -2.0696    1.5268 H   0  0  0  0  0  0  0  0  0  0  0  0
    5.9735   -1.5983    0.9905 H   0  0  0  0  0  0  0  0  0  0  0  0
    5.6827   -3.2540    1.5689 H   0  0  0  0  0  0  0  0  0  0  0  0
    6.5006   -3.7570   -3.3906 H   0  0  0  0  0  0  0  0  0  0  0  0
    5.0279   -4.4682   -2.7189 H   0  0  0  0  0  0  0  0  0  0  0  0
    5.0481   -2.7585   -3.2058 H   0  0  0  0  0  0  0  0  0  0  0  0
    7.7765   -2.0619   -2.2155 H   0  0  0  0  0  0  0  0  0  0  0  0
    7.4791   -1.6192   -0.5369 H   0  0  0  0  0  0  0  0  0  0  0  0
    6.3893   -1.0324   -1.8081 H   0  0  0  0  0  0  0  0  0  0  0  0
    2.0818   -2.2582    0.9689 H   0  0  0  0  0  0  0  0  0  0  0  0
    0.9452   -1.3645   -0.0509 H   0  0  0  0  0  0  0  0  0  0  0  0
    6.3151   -5.1859   -0.6256 H   0  0  0  0  0  0  0  0  0  0  0  0
    7.3098   -4.0001    0.2624 H   0  0  0  0  0  0  0  0  0  0  0  0
  1  3  1  0  0  0  0
  1  5  2  0  0  0  0
  1 28  1  0  0  0  0
  2  4  2  0  0  0  0
  2  5  1  0  0  0  0
  2 29  1  0  0  0  0
  3  6  2  0  0  0  0
  3 30  1  0  0  0  0
  4  6  1  0  0  0  0
  4 31  1  0  0  0  0
  5 25  1  0  0  0  0
  6 27  1  0  0  0  0
  7  8  1  0  0  0  0
  7  9  1  0  0  0  0
  7 32  1  0  0  0  0
  7 33  1  0  0  0  0
  8 13  1  0  0  0  0
  8 34  1  0  0  0  0
  8 35  1  0  0  0  0
  9 23  1  0  0  0  0
  9 36  1  0  0  0  0
  9 37  1  0  0  0  0
 10 13  1  0  0  0  0
 10 23  1  0  0  0  0
 10 38  1  0  0  0  0
 10 39  1  0  0  0  0
 11 12  1  0  0  0  0
 11 26  1  0  0  0  0
 11 40  1  0  0  0  0
 11 41  1  0  0  0  0
 12 20  1  0  0  0  0
 12 24  1  0  0  0  0
 12 42  1  0  0  0  0
 13 15  1  0  0  0  0
 13 16  1  0  0  0  0
 14 17  1  0  0  0  0
 14 22  1  0  0  0  0
 14 24  1  0  0  0  0
 14 26  1  0  0  0  0
 15 43  1  0  0  0  0
 15 44  1  0  0  0  0
 15 45  1  0  0  0  0
 16 46  1  0  0  0  0
 16 47  1  0  0  0  0
 16 48  1  0  0  0  0
 17 49  1  0  0  0  0
 17 50  1  0  0  0  0
 17 51  1  0  0  0  0
 18 22  1  0  0  0  0
 18 52  1  0  0  0  0
 18 53  1  0  0  0  0
 18 54  1  0  0  0  0
 19 22  1  0  0  0  0
 19 55  1  0  0  0  0
 19 56  1  0  0  0  0
 19 57  1  0  0  0  0
 20 23  1  0  0  0  0
 20 58  1  0  0  0  0
 20 59  1  0  0  0  0
 21 22  1  0  0  0  0
 21 25  1  0  0  0  0
 21 60  1  0  0  0  0
 21 61  1  0  0  0  0
M  END
$$$$
