61
0 1 C22ClH34NO2S
C                     6.582184562319    -2.538521426663    -5.086050730061
C                     8.991877521873    -2.310561171367    -4.946232559353
C                     6.678037102833    -2.601067992754    -6.481778055025
C                     9.086225495157    -2.372574861298    -6.333145453604
C                     7.741408256424    -2.392788139554    -4.310878354410
C                     7.923604266397    -2.518164725509    -7.097648648293
C                    -1.373946819606    -2.228569030859     0.458188468866
C                    -1.923013330368    -0.923469917937    -0.130388206355
C                     0.038785159930    -2.029323772550     1.009268879922
C                     0.435151744436    -0.185773681842    -0.492706994657
C                     3.245185388181    -2.990317112026    -1.392479621544
C                     3.266019915190    -1.578633337292    -0.805174019400
C                    -0.956032789970    -0.280995226158    -1.148397956066
C                     5.411528746009    -2.358619092976     0.011260256030
C                    -0.871476822918    -1.117419562313    -2.437677131063
C                    -1.439904599584     1.135475205160    -1.493635734816
C                     5.558406145999    -2.269005234270     1.533836856543
C                     7.487685342008    -0.961903127396    -0.454574802363
C                     7.698010137038    -3.469158176776    -0.318084743552
C                     2.321514277069    -1.430468978326     0.397601345443
C                     6.509956349902    -2.401034334486    -2.254036604891
C                     6.784030885372    -2.305835285494    -0.742227644051
N                     0.924357236992    -1.486037385084    -0.025239488070
O                     4.620802068810    -1.263220398893    -0.465883525734
O                     7.760491122197    -2.321926728370    -2.949241323872
S                     4.432639543453    -3.926614666558    -0.372438577484
Cl                    8.040689179930    -2.597276919591    -8.851958352403
H                     5.604219012125    -2.606209616119    -4.624737215761
H                     9.881746766599    -2.198126794164    -4.333975526753
H                     5.780851438117    -2.714809215413    -7.082302191677
H                    10.054116749535    -2.308893702225    -6.820451739734
H                    -2.029514911358    -2.585023440270     1.261049793352
H                    -1.349548580423    -3.011706809430    -0.307211818781
H                    -2.899302283114    -1.094591005614    -0.600013083761
H                    -2.089604920418    -0.209963218826     0.688461509037
H                    -0.000432914584    -1.359846797576     1.892335620398
H                     0.448252780437    -2.986970838768     1.346824958237
H                     1.146369392271     0.223052644678    -1.218265567156
H                     0.389448370367     0.534605653375     0.348732020541
H                     2.250478560204    -3.430444836777    -1.302455952131
H                     3.548635259713    -2.993892466100    -2.442829454391
H                     2.988555708638    -0.852637802004    -1.575294641851
H                    -0.229588126107    -0.622283289710    -3.176015211488
H                    -1.863295269386    -1.239827845124    -2.887686144826
H                    -0.452805461317    -2.108271572440    -2.247950892339
H                    -0.762076123412     1.625128402803    -2.202937634146
H                    -1.503450252248     1.765248760157    -0.598807829746
H                    -2.434762158398     1.104770374857    -1.952187245708
H                     4.571718083173    -2.241003049568     1.996955643022
H                     6.094548249530    -1.359380311990     1.814685733452
H                     6.094212317253    -3.132399187510     1.935116655655
H                     8.365695180390    -0.865233722481    -1.097406926889
H                     6.820618822147    -0.118370983491    -0.650283537622
H                     7.828588376221    -0.901954038227     0.582297950574
H                     8.614901673149    -3.449992732900    -0.911748372840
H                     7.214219413248    -4.438210636458    -0.476153685911
H                     7.981826745580    -3.391271504196     0.734836514822
H                     2.570309350421    -0.496184308069     0.928900360932
H                     2.508761701567    -2.257043135797     1.088209070244
H                     5.863767008733    -1.575434429303    -2.569574196273
H                     6.025164062989    -3.354213308801    -2.490182501372
