55
0 1 C21H30N2OS
C                     2.282581693659     2.283049385770     1.121605094752
C                     1.723037490002     1.737634049592    -0.058671491337
C                     2.080761660131     1.716663068948     2.385126706606
C                     0.754644993678     0.013355019894     1.252665075701
C                     0.939046979398     0.583618496428    -0.008731429268
C                    -0.011465555621    -1.145138758917     1.583022909881
C                     1.300055196837     0.554771485601     2.437422178774
C                     0.073221483333    -1.294351084556     2.947140252215
C                    -0.594195351841    -1.947096460398     0.458804404681
C                    -0.338222751641     0.990224527666    -2.161357021516
C                    -1.625358028670    -0.944997444837    -3.089783387836
C                     0.219901325595    -0.073760884248    -1.177314310274
C                    -1.662139427341     0.557139278447    -2.816869909501
C                    -0.948974375620    -1.002848341074    -0.714336523063
C                    -1.376539385764    -5.303795700857    -3.282310402782
C                    -1.403776486054    -2.667693403868     6.003976484821
C                    -2.513360161568     3.644575797105    -5.509463059086
C                    -0.470308420901    -2.343217956479     3.855107981975
C                    -1.948072633598     1.314623482489    -4.115681169469
C                    -1.849131735507    -3.850533890585    -3.161955983729
C                    -1.014623195483    -3.070109965588    -2.138154098399
N                     0.899385745428    -0.286206113528     3.467335621670
N                    -1.557134163707    -1.739964546028    -1.852412120911
O                    -0.936405183884    -1.721877300718     5.054020046257
S                    -2.075668477648     3.121248645790    -3.817983231963
H                     2.886276231525     3.183827089517     1.043838079723
H                     1.901711751553     2.244223495070    -1.003576991634
H                     2.514796009844     2.166809689953     3.274303030817
H                     0.152018832851    -2.682598886530     0.137888393715
H                    -1.490975777941    -2.503127943397     0.754655026878
H                    -0.490022309331     1.932910029021    -1.629671018732
H                     0.400634790301     1.194059689180    -2.945186836876
H                    -2.513459429921    -1.244748605796    -3.657462918509
H                    -0.751275510707    -1.149943566279    -3.739944182805
H                     0.938849183540    -0.708629653768    -1.714405043331
H                    -2.491303520958     0.757454210278    -2.128382640117
H                    -1.727389755597    -0.338718664772    -0.318304468514
H                    -0.323832470619    -5.355408248668    -3.584126513761
H                    -1.473838495684    -5.834380284777    -2.327974022656
H                    -1.962404535790    -5.850863541044    -4.028314392995
H                    -1.727445276870    -2.107247339365     6.883647516303
H                    -0.609282606876    -3.371386580400     6.295418828016
H                    -2.255462277089    -3.242221530125     5.610577182147
H                    -2.628190261590     4.731198568699    -5.494234995288
H                    -3.457830302482     3.195415530670    -5.831324069423
H                    -1.723104086954     3.384879371581    -6.220230197194
H                    -1.285660237888    -2.881315592057     3.349964047550
H                     0.307064665182    -3.083136186514     4.113077257752
H                    -2.893888662663     0.970829701344    -4.549780343391
H                    -1.149369493674     1.130947670781    -4.844965170697
H                    -2.899867730131    -3.818165380050    -2.849157085499
H                    -1.796758479580    -3.375394647970    -4.147078576321
H                    -1.010957336232    -3.657661121833    -1.218931975893
H                     0.034528606617    -3.024270645893    -2.496605987736
H                     0.900198715085    -0.052706171893     4.451317493408
