29
0 1 BrC15H9N2O2
C                    -3.951267667526    -0.157604462354     3.545774480086
C                    -0.523266438813    -0.319719514834     1.029283473302
C                     3.006243081189     2.996878438471     0.132513138611
C                     1.641997513925     4.248585952134     1.706845064238
C                    -1.387752576773    -1.398640038042     1.119952215027
C                     3.889836030191     4.071750015170     0.026471179779
C                     2.517222684238     5.324897885699     1.607344746458
C                    -4.759603912350    -1.242303182654     3.593720406630
C                    -1.887919938206     0.928105568512     2.605852961263
C                    -2.775014172347    -0.156204058368     2.709984151147
C                     1.882042837894     3.074496865832     0.967771506867
C                    -0.769116386983     0.857206606914     1.775810708648
C                    -2.509969035249    -1.317018771383     1.957639734225
C                     3.634951476546     5.227070058952     0.767034672630
C                    -4.478976093930    -2.443543833042     2.810660104894
N                     1.059113007455     1.923157218943     0.993719203382
N                     0.051637482641     2.009164263991     1.751751343967
O                    -5.143872452758    -3.455560444463     2.791913552405
O                    -3.328871414357    -2.405377789281     2.011315062430
Br                    4.835572994889     6.711407964965     0.634365273280
H                    -4.177737394665     0.727175880932     4.136602783171
H                     0.350663025225    -0.359440508786     0.388513377737
H                     3.175002911359     2.083138242610    -0.429978301646
H                     0.770541842219     4.301003119185     2.350444342258
H                    -1.220426599882    -2.312016255235     0.557292607544
H                     4.759577098941     4.012502720818    -0.619266344596
H                     2.340467155752     6.234025905286     2.173091076362
H                    -5.651921136145    -1.283590435314     4.208222129582
H                    -2.063304305038     1.838505804199     3.172813297772
