36
0 1 C16H15N5
C                    -4.657102561816     9.587807384316    -1.097535437574
C                    -0.127050812690     1.790720906280    -1.506420084715
C                    -0.976524727652     0.688077982562    -1.770891434963
C                    -0.659093491496     3.001969176155    -1.110378452058
C                    -2.343624322242     0.813528171775    -1.630678916107
C                    -4.055471439356     4.407209953761    -0.429431788590
C                    -3.873215166683     8.598113616101    -0.458641179970
C                    -2.063537915609     3.162199775670    -0.961021317076
C                    -2.686614606003     4.384112172865    -0.557344329324
C                    -2.919515349698     2.045218075748    -1.221348622378
C                    -4.828072542940     3.238122666329    -0.704853730949
C                    -3.593679649401     8.425486283703     0.936555242666
C                    -3.223583644177     7.532359492861    -1.095476409048
C                    -6.327329277465     3.287384275589    -0.547592503517
C                    -4.049789160927     9.292024438592     2.066767124286
C                    -1.839701617692     5.613521577064    -0.281192836804
N                    -5.304825003449    10.389486918504    -1.648633618401
N                    -4.281244330069     2.101946883461    -1.092880053981
N                    -2.846786392762     7.348667276659     1.137612361410
N                    -2.609922429265     6.826576923614    -0.116647490359
N                    -3.101408553888     7.209309114409    -2.436932298263
H                     0.948528623197     1.680186116510    -1.614847013485
H                    -0.545603321090    -0.259540402915    -2.083048308943
H                     0.009249208001     3.832900811616    -0.905442347941
H                    -3.016281435289    -0.016915424711    -1.823319391938
H                    -4.564919092660     5.310411140963    -0.106583360036
H                    -6.762543205516     4.079036716568    -1.168029361644
H                    -6.763868418712     2.329486040700    -0.833801262931
H                    -6.600560611384     3.505844815685     0.491188589444
H                    -5.142130364338     9.363180522105     2.089726234294
H                    -3.701659587473     8.877953468488     3.015059274063
H                    -3.659150898559    10.309400974853     1.960147679655
H                    -1.263806928330     5.482978771588     0.638290741579
H                    -1.128597838210     5.771736048449    -1.098992241268
H                    -3.673446594447     7.800256138401    -3.032497255978
H                    -3.255013045083     6.225690247654    -2.644161824661
