
  -OEChem-05262117483D

 31 32  0     0  0  0  0  0  0999 V2000
    4.1352    1.5754   -1.2067 C   0  0  0  0  0  0  0  0  0  0  0  0
    4.4386    0.4435   -1.9573 C   0  0  0  0  0  0  0  0  0  0  0  0
    3.2059    2.5214   -1.6733 C   0  0  0  0  0  0  0  0  0  0  0  0
    3.8688   -0.7865   -4.1780 C   0  0  0  0  0  0  0  0  0  0  0  0
    2.9746   -0.4941   -5.1602 C   0  0  0  0  0  0  0  0  0  0  0  0
    3.7500    0.2324   -3.1601 C   0  0  0  0  0  0  0  0  0  0  0  0
    2.7470    1.1470   -3.5945 C   0  0  0  0  0  0  0  0  0  0  0  0
    2.5309    2.3341   -2.8806 C   0  0  0  0  0  0  0  0  0  0  0  0
    0.9707    0.9158   -5.3557 C   0  0  0  0  0  0  0  0  0  0  0  0
   -0.8120    2.0059   -7.5342 C   0  0  0  0  0  0  0  0  0  0  0  0
    0.1067    0.0112   -8.7694 C   0  0  0  0  0  0  0  0  0  0  0  0
   -1.3554   -0.3548   -6.7497 C   0  0  0  0  0  0  0  0  0  0  0  0
   -0.3224    0.5616   -7.4091 C   0  0  0  0  0  0  0  0  0  0  0  0
    2.2588    0.6741   -4.8262 N   0  0  0  0  0  0  0  0  0  0  0  0
    0.0561    1.3806   -4.7119 O   0  0  0  0  0  0  0  0  0  0  0  0
    0.9471    0.5280   -6.6414 O   0  0  0  0  0  0  0  0  0  0  0  0
    1.4956    3.8004   -3.5461 Br  0  0  0  0  0  0  0  0  0  0  0  0
    4.6463    1.7618   -0.2662 H   0  0  0  0  0  0  0  0  0  0  0  0
    5.2003   -0.2581   -1.6286 H   0  0  0  0  0  0  0  0  0  0  0  0
    3.0333    3.4331   -1.1111 H   0  0  0  0  0  0  0  0  0  0  0  0
    4.5485   -1.6290   -4.1692 H   0  0  0  0  0  0  0  0  0  0  0  0
    2.7337   -1.0140   -6.0747 H   0  0  0  0  0  0  0  0  0  0  0  0
   -1.1224    2.4075   -6.5694 H   0  0  0  0  0  0  0  0  0  0  0  0
   -0.0216    2.6411   -7.9456 H   0  0  0  0  0  0  0  0  0  0  0  0
   -1.6657    2.0370   -8.2189 H   0  0  0  0  0  0  0  0  0  0  0  0
    0.4937   -1.0074   -8.6711 H   0  0  0  0  0  0  0  0  0  0  0  0
    0.8870    0.6383   -9.2101 H   0  0  0  0  0  0  0  0  0  0  0  0
   -0.7494   -0.0080   -9.4498 H   0  0  0  0  0  0  0  0  0  0  0  0
   -0.9424   -1.3592   -6.6116 H   0  0  0  0  0  0  0  0  0  0  0  0
   -1.6779    0.0331   -5.7830 H   0  0  0  0  0  0  0  0  0  0  0  0
   -2.2309   -0.4355   -7.4019 H   0  0  0  0  0  0  0  0  0  0  0  0
  1  2  1  0  0  0  0
  1  3  2  0  0  0  0
  1 18  1  0  0  0  0
  2  6  2  0  0  0  0
  2 19  1  0  0  0  0
  3  8  1  0  0  0  0
  3 20  1  0  0  0  0
  4  5  2  0  0  0  0
  4  6  1  0  0  0  0
  4 21  1  0  0  0  0
  5 14  1  0  0  0  0
  5 22  1  0  0  0  0
  6  7  1  0  0  0  0
  7  8  2  0  0  0  0
  7 14  1  0  0  0  0
  8 17  1  0  0  0  0
  9 14  1  0  0  0  0
  9 15  2  0  0  0  0
  9 16  1  0  0  0  0
 10 13  1  0  0  0  0
 10 23  1  0  0  0  0
 10 24  1  0  0  0  0
 10 25  1  0  0  0  0
 11 13  1  0  0  0  0
 11 26  1  0  0  0  0
 11 27  1  0  0  0  0
 11 28  1  0  0  0  0
 12 13  1  0  0  0  0
 12 29  1  0  0  0  0
 12 30  1  0  0  0  0
 12 31  1  0  0  0  0
 13 16  1  0  0  0  0
M  END
$$$$
