
  -OEChem-05262117483D

 44 46  0     0  0  0  0  0  0999 V2000
   -0.1560   -5.4580   -1.6428 C   0  0  0  0  0  0  0  0  0  0  0  0
    0.3383   -3.1228   -1.1745 C   0  0  0  0  0  0  0  0  0  0  0  0
   -0.1475   -4.0845   -2.0382 C   0  0  0  0  0  0  0  0  0  0  0  0
    0.3411   -5.8329   -0.4226 C   0  0  0  0  0  0  0  0  0  0  0  0
    0.8785   -3.4849    0.1253 C   0  0  0  0  0  0  0  0  0  0  0  0
   -2.5089    2.4242    2.4650 C   0  0  0  0  0  0  0  0  0  0  0  0
    0.4626   -1.6888   -1.6142 C   0  0  0  0  0  0  0  0  0  0  0  0
   -2.1342    0.0579    0.3334 C   0  0  0  0  0  0  0  0  0  0  0  0
   -0.1125    1.5427    0.0315 C   0  0  0  0  0  0  0  0  0  0  0  0
   -1.0471   -1.0135    0.2720 C   0  0  0  0  0  0  0  0  0  0  0  0
    0.0738    0.6707   -1.2092 C   0  0  0  0  0  0  0  0  0  0  0  0
   -2.4897    2.5874    0.1451 C   0  0  0  0  0  0  0  0  0  0  0  0
   -1.5375    1.4574    0.5935 C   0  0  0  0  0  0  0  0  0  0  0  0
   -0.6588   -3.7350   -3.4143 C   0  0  0  0  0  0  0  0  0  0  0  0
    0.3909   -7.2464    0.0822 C   0  0  0  0  0  0  0  0  0  0  0  0
   -4.2054    3.9070    1.4684 C   0  0  0  0  0  0  0  0  0  0  0  0
    0.8305   -4.8618    0.4059 N   0  0  0  0  0  0  0  0  0  0  0  0
   -3.2334    2.8359    1.3660 N   0  0  0  0  0  0  0  0  0  0  0  0
   -0.1709   -0.7374   -0.8732 N   0  0  0  0  0  0  0  0  0  0  0  0
    1.3587   -2.7155    0.9659 O   0  0  0  0  0  0  0  0  0  0  0  0
   -2.7332    2.6609    3.6338 O   0  0  0  0  0  0  0  0  0  0  0  0
    1.1143   -1.4038   -2.6273 O   0  0  0  0  0  0  0  0  0  0  0  0
   -1.4527    1.6619    2.0359 O   0  0  0  0  0  0  0  0  0  0  0  0
   -0.5514   -6.2149   -2.3111 H   0  0  0  0  0  0  0  0  0  0  0  0
   -2.6774    0.0631   -0.6181 H   0  0  0  0  0  0  0  0  0  0  0  0
   -2.8534   -0.1768    1.1227 H   0  0  0  0  0  0  0  0  0  0  0  0
    0.5749    1.2015    0.8108 H   0  0  0  0  0  0  0  0  0  0  0  0
    0.1513    2.5793   -0.1978 H   0  0  0  0  0  0  0  0  0  0  0  0
   -0.4704   -1.0437    1.2015 H   0  0  0  0  0  0  0  0  0  0  0  0
   -1.5023   -1.9966    0.1375 H   0  0  0  0  0  0  0  0  0  0  0  0
   -0.5935    0.9901   -2.0224 H   0  0  0  0  0  0  0  0  0  0  0  0
    1.0919    0.7547   -1.5919 H   0  0  0  0  0  0  0  0  0  0  0  0
   -1.9380    3.4850   -0.1752 H   0  0  0  0  0  0  0  0  0  0  0  0
   -3.1479    2.2791   -0.6727 H   0  0  0  0  0  0  0  0  0  0  0  0
   -1.3711   -4.4861   -3.7671 H   0  0  0  0  0  0  0  0  0  0  0  0
    0.1791   -3.6940   -4.1177 H   0  0  0  0  0  0  0  0  0  0  0  0
   -1.1344   -2.7527   -3.4386 H   0  0  0  0  0  0  0  0  0  0  0  0
    1.4229   -7.5504    0.2920 H   0  0  0  0  0  0  0  0  0  0  0  0
   -0.0237   -7.9330   -0.6575 H   0  0  0  0  0  0  0  0  0  0  0  0
   -0.1832   -7.3525    1.0099 H   0  0  0  0  0  0  0  0  0  0  0  0
   -3.7621    4.8791    1.2093 H   0  0  0  0  0  0  0  0  0  0  0  0
   -4.5643    3.9464    2.4976 H   0  0  0  0  0  0  0  0  0  0  0  0
   -5.0498    3.7151    0.7988 H   0  0  0  0  0  0  0  0  0  0  0  0
    1.2143   -5.1094    1.3135 H   0  0  0  0  0  0  0  0  0  0  0  0
  1  3  1  0  0  0  0
  1  4  2  0  0  0  0
  1 24  1  0  0  0  0
  2  3  2  0  0  0  0
  2  5  1  0  0  0  0
  2  7  1  0  0  0  0
  3 14  1  0  0  0  0
  4 15  1  0  0  0  0
  4 17  1  0  0  0  0
  5 17  1  0  0  0  0
  5 20  2  0  0  0  0
  6 18  1  0  0  0  0
  6 21  2  0  0  0  0
  6 23  1  0  0  0  0
  7 19  1  0  0  0  0
  7 22  2  0  0  0  0
  8 10  1  0  0  0  0
  8 13  1  0  0  0  0
  8 25  1  0  0  0  0
  8 26  1  0  0  0  0
  9 11  1  0  0  0  0
  9 13  1  0  0  0  0
  9 27  1  0  0  0  0
  9 28  1  0  0  0  0
 10 19  1  0  0  0  0
 10 29  1  0  0  0  0
 10 30  1  0  0  0  0
 11 19  1  0  0  0  0
 11 31  1  0  0  0  0
 11 32  1  0  0  0  0
 12 13  1  0  0  0  0
 12 18  1  0  0  0  0
 12 33  1  0  0  0  0
 12 34  1  0  0  0  0
 13 23  1  0  0  0  0
 14 35  1  0  0  0  0
 14 36  1  0  0  0  0
 14 37  1  0  0  0  0
 15 38  1  0  0  0  0
 15 39  1  0  0  0  0
 15 40  1  0  0  0  0
 16 18  1  0  0  0  0
 16 41  1  0  0  0  0
 16 42  1  0  0  0  0
 16 43  1  0  0  0  0
 17 44  1  0  0  0  0
M  END
$$$$
