
  -OEChem-05262117483D

 44 46  0     0  0  0  0  0  0999 V2000
    6.3755    0.0253    0.9866 C   0  0  0  0  0  0  0  0  0  0  0  0
    4.1468   -0.4982    0.1682 C   0  0  0  0  0  0  0  0  0  0  0  0
    5.2768   -0.8804    0.8626 C   0  0  0  0  0  0  0  0  0  0  0  0
    6.3286    1.2597    0.3964 C   0  0  0  0  0  0  0  0  0  0  0  0
    4.0546    0.8106   -0.4449 C   0  0  0  0  0  0  0  0  0  0  0  0
   -2.3156    1.5089    0.0022 C   0  0  0  0  0  0  0  0  0  0  0  0
    3.0249   -1.4781   -0.0862 C   0  0  0  0  0  0  0  0  0  0  0  0
   -0.4329   -1.4916   -0.3164 C   0  0  0  0  0  0  0  0  0  0  0  0
    0.0800    0.1409    1.5454 C   0  0  0  0  0  0  0  0  0  0  0  0
    0.7362   -2.2041    0.3804 C   0  0  0  0  0  0  0  0  0  0  0  0
    1.5891   -0.1497    1.4798 C   0  0  0  0  0  0  0  0  0  0  0  0
   -0.2000    1.0385   -0.8310 C   0  0  0  0  0  0  0  0  0  0  0  0
   -0.6073   -0.0454    0.1848 C   0  0  0  0  0  0  0  0  0  0  0  0
    5.3802   -2.2323    1.5269 C   0  0  0  0  0  0  0  0  0  0  0  0
    7.4362    2.2727    0.4380 C   0  0  0  0  0  0  0  0  0  0  0  0
   -1.2491    3.2998   -1.3052 C   0  0  0  0  0  0  0  0  0  0  0  0
    5.1965    1.6067   -0.2903 N   0  0  0  0  0  0  0  0  0  0  0  0
   -1.1813    2.0719   -0.5368 N   0  0  0  0  0  0  0  0  0  0  0  0
    1.8520   -1.2795    0.5800 N   0  0  0  0  0  0  0  0  0  0  0  0
    3.0767    1.2673   -1.0587 O   0  0  0  0  0  0  0  0  0  0  0  0
   -3.4060    2.0210    0.1580 O   0  0  0  0  0  0  0  0  0  0  0  0
    3.2138   -2.4361   -0.8430 O   0  0  0  0  0  0  0  0  0  0  0  0
   -2.0296    0.2169    0.3773 O   0  0  0  0  0  0  0  0  0  0  0  0
    7.2635   -0.2682    1.5355 H   0  0  0  0  0  0  0  0  0  0  0  0
   -0.2686   -1.4925   -1.3972 H   0  0  0  0  0  0  0  0  0  0  0  0
   -1.3618   -2.0368   -0.1251 H   0  0  0  0  0  0  0  0  0  0  0  0
   -0.4154   -0.5216    2.2615 H   0  0  0  0  0  0  0  0  0  0  0  0
   -0.0737    1.1641    1.9000 H   0  0  0  0  0  0  0  0  0  0  0  0
    0.4270   -2.5928    1.3581 H   0  0  0  0  0  0  0  0  0  0  0  0
    1.0972   -3.0413   -0.2147 H   0  0  0  0  0  0  0  0  0  0  0  0
    2.1121    0.7294    1.1080 H   0  0  0  0  0  0  0  0  0  0  0  0
    1.9658   -0.3652    2.4886 H   0  0  0  0  0  0  0  0  0  0  0  0
    0.8276    1.3829   -0.7070 H   0  0  0  0  0  0  0  0  0  0  0  0
   -0.3095    0.6748   -1.8639 H   0  0  0  0  0  0  0  0  0  0  0  0
    4.9597   -2.1859    2.5390 H   0  0  0  0  0  0  0  0  0  0  0  0
    6.4245   -2.5421    1.6196 H   0  0  0  0  0  0  0  0  0  0  0  0
    4.8370   -2.9942    0.9671 H   0  0  0  0  0  0  0  0  0  0  0  0
    7.7944    2.5020   -0.5722 H   0  0  0  0  0  0  0  0  0  0  0  0
    8.2779    1.8962    1.0212 H   0  0  0  0  0  0  0  0  0  0  0  0
    7.0956    3.2101    0.8927 H   0  0  0  0  0  0  0  0  0  0  0  0
   -0.3279    3.8747   -1.1705 H   0  0  0  0  0  0  0  0  0  0  0  0
   -2.0978    3.8845   -0.9480 H   0  0  0  0  0  0  0  0  0  0  0  0
   -1.3835    3.0972   -2.3773 H   0  0  0  0  0  0  0  0  0  0  0  0
    5.1297    2.5166   -0.7374 H   0  0  0  0  0  0  0  0  0  0  0  0
  1  3  1  0  0  0  0
  1  4  2  0  0  0  0
  1 24  1  0  0  0  0
  2  3  2  0  0  0  0
  2  5  1  0  0  0  0
  2  7  1  0  0  0  0
  3 14  1  0  0  0  0
  4 15  1  0  0  0  0
  4 17  1  0  0  0  0
  5 17  1  0  0  0  0
  5 20  2  0  0  0  0
  6 18  1  0  0  0  0
  6 21  2  0  0  0  0
  6 23  1  0  0  0  0
  7 19  1  0  0  0  0
  7 22  2  0  0  0  0
  8 10  1  0  0  0  0
  8 13  1  0  0  0  0
  8 25  1  0  0  0  0
  8 26  1  0  0  0  0
  9 11  1  0  0  0  0
  9 13  1  0  0  0  0
  9 27  1  0  0  0  0
  9 28  1  0  0  0  0
 10 19  1  0  0  0  0
 10 29  1  0  0  0  0
 10 30  1  0  0  0  0
 11 19  1  0  0  0  0
 11 31  1  0  0  0  0
 11 32  1  0  0  0  0
 12 13  1  0  0  0  0
 12 18  1  0  0  0  0
 12 33  1  0  0  0  0
 12 34  1  0  0  0  0
 13 23  1  0  0  0  0
 14 35  1  0  0  0  0
 14 36  1  0  0  0  0
 14 37  1  0  0  0  0
 15 38  1  0  0  0  0
 15 39  1  0  0  0  0
 15 40  1  0  0  0  0
 16 18  1  0  0  0  0
 16 41  1  0  0  0  0
 16 42  1  0  0  0  0
 16 43  1  0  0  0  0
 17 44  1  0  0  0  0
M  END
$$$$
