20
0 1 BrC8Cl2H6NO2
C                     2.150165796652     0.025453630212     2.481928982626
C                     0.788559304930    -0.211969393133     2.257149119408
C                     2.824477339914    -0.662265104525     3.484428770547
C                     0.133494688252    -1.144311930109     3.091124682729
C                     2.087917882304    -1.589828991369     4.243676341225
C                     0.087123137994     0.504909043245     1.147672914494
C                     0.197391434121     2.313512884805    -0.367030709189
C                    -1.331690966272    -1.451416410585     3.030573733859
N                     0.800138167976    -1.803948611429     4.050468079413
O                    -0.979824179311     0.176990202704     0.661575930585
O                     0.796919553427     1.572388167772     0.719632110537
Cl                    4.515713560309    -0.360659055732     3.754643402774
Cl                    2.856748799349    -2.520129047190     5.502278388346
Br                   -2.341840058399    -0.040469536283     4.014968363821
H                     2.682221641388     0.744270813137     1.870187035248
H                     0.884952902683     3.133837724006    -0.569513770012
H                    -0.782078085332     2.692097120035    -0.068180292511
H                     0.086640676548     1.673459983115    -1.244988799332
H                    -1.537813236982    -2.377998197443     3.559036983928
H                    -1.737112275571    -1.437917438614     2.025458471699
