
  -OEChem-05262117483D

 44 46  0     0  0  0  0  0  0999 V2000
   -3.4014    4.5093   -0.3103 C   0  0  0  0  0  0  0  0  0  0  0  0
   -2.4396    2.7533    1.0671 C   0  0  0  0  0  0  0  0  0  0  0  0
   -2.9718    3.1568   -0.1441 C   0  0  0  0  0  0  0  0  0  0  0  0
   -3.3122    5.4020    0.7247 C   0  0  0  0  0  0  0  0  0  0  0  0
   -2.3075    3.6761    2.1790 C   0  0  0  0  0  0  0  0  0  0  0  0
    0.6680    0.7310   -2.3359 C   0  0  0  0  0  0  0  0  0  0  0  0
   -2.0746    1.3112    1.2909 C   0  0  0  0  0  0  0  0  0  0  0  0
    0.3820   -0.8054    0.5207 C   0  0  0  0  0  0  0  0  0  0  0  0
    1.5658    1.3704    0.9820 C   0  0  0  0  0  0  0  0  0  0  0  0
   -0.3776   -0.3577    1.7854 C   0  0  0  0  0  0  0  0  0  0  0  0
    0.3090    2.0002    1.6227 C   0  0  0  0  0  0  0  0  0  0  0  0
    2.3609   -0.1117   -0.9764 C   0  0  0  0  0  0  0  0  0  0  0  0
    1.1827    0.3627   -0.0972 C   0  0  0  0  0  0  0  0  0  0  0  0
   -3.1054    2.2056   -1.3076 C   0  0  0  0  0  0  0  0  0  0  0  0
   -3.7532    6.8361    0.6565 C   0  0  0  0  0  0  0  0  0  0  0  0
    2.5365   -0.3826   -3.4961 C   0  0  0  0  0  0  0  0  0  0  0  0
   -2.7860    4.9711    1.9109 N   0  0  0  0  0  0  0  0  0  0  0  0
    1.7699   -0.0907   -2.3011 N   0  0  0  0  0  0  0  0  0  0  0  0
   -0.7870    1.0333    1.6551 N   0  0  0  0  0  0  0  0  0  0  0  0
   -1.8254    3.4329    3.2934 O   0  0  0  0  0  0  0  0  0  0  0  0
    0.0549    1.1198   -3.3101 O   0  0  0  0  0  0  0  0  0  0  0  0
   -2.9212    0.4230    1.1407 O   0  0  0  0  0  0  0  0  0  0  0  0
    0.3245    1.0649   -1.0534 O   0  0  0  0  0  0  0  0  0  0  0  0
   -3.8075    4.8368   -1.2608 H   0  0  0  0  0  0  0  0  0  0  0  0
    1.0632   -1.6244    0.7774 H   0  0  0  0  0  0  0  0  0  0  0  0
   -0.3183   -1.1795   -0.2307 H   0  0  0  0  0  0  0  0  0  0  0  0
    2.1883    2.1633    0.5570 H   0  0  0  0  0  0  0  0  0  0  0  0
    2.1719    0.8507    1.7333 H   0  0  0  0  0  0  0  0  0  0  0  0
   -1.2667   -0.9652    1.9450 H   0  0  0  0  0  0  0  0  0  0  0  0
    0.2622   -0.4474    2.6714 H   0  0  0  0  0  0  0  0  0  0  0  0
    0.5274    2.3614    2.6333 H   0  0  0  0  0  0  0  0  0  0  0  0
   -0.0027    2.8554    1.0243 H   0  0  0  0  0  0  0  0  0  0  0  0
    3.2212    0.5730   -0.9119 H   0  0  0  0  0  0  0  0  0  0  0  0
    2.7012   -1.1154   -0.7045 H   0  0  0  0  0  0  0  0  0  0  0  0
   -2.1593    1.6991   -1.5142 H   0  0  0  0  0  0  0  0  0  0  0  0
   -3.4144    2.7347   -2.2122 H   0  0  0  0  0  0  0  0  0  0  0  0
   -3.8426    1.4327   -1.0744 H   0  0  0  0  0  0  0  0  0  0  0  0
   -4.5426    7.0382    1.3898 H   0  0  0  0  0  0  0  0  0  0  0  0
   -4.1411    7.0706   -0.3361 H   0  0  0  0  0  0  0  0  0  0  0  0
   -2.9190    7.5150    0.8684 H   0  0  0  0  0  0  0  0  0  0  0  0
    3.4135    0.2744   -3.5812 H   0  0  0  0  0  0  0  0  0  0  0  0
    1.8921   -0.2259   -4.3621 H   0  0  0  0  0  0  0  0  0  0  0  0
    2.8758   -1.4233   -3.4830 H   0  0  0  0  0  0  0  0  0  0  0  0
   -2.7012    5.6107    2.6955 H   0  0  0  0  0  0  0  0  0  0  0  0
  1  3  1  0  0  0  0
  1  4  2  0  0  0  0
  1 24  1  0  0  0  0
  2  3  2  0  0  0  0
  2  5  1  0  0  0  0
  2  7  1  0  0  0  0
  3 14  1  0  0  0  0
  4 15  1  0  0  0  0
  4 17  1  0  0  0  0
  5 17  1  0  0  0  0
  5 20  2  0  0  0  0
  6 18  1  0  0  0  0
  6 21  2  0  0  0  0
  6 23  1  0  0  0  0
  7 19  1  0  0  0  0
  7 22  2  0  0  0  0
  8 10  1  0  0  0  0
  8 13  1  0  0  0  0
  8 25  1  0  0  0  0
  8 26  1  0  0  0  0
  9 11  1  0  0  0  0
  9 13  1  0  0  0  0
  9 27  1  0  0  0  0
  9 28  1  0  0  0  0
 10 19  1  0  0  0  0
 10 29  1  0  0  0  0
 10 30  1  0  0  0  0
 11 19  1  0  0  0  0
 11 31  1  0  0  0  0
 11 32  1  0  0  0  0
 12 13  1  0  0  0  0
 12 18  1  0  0  0  0
 12 33  1  0  0  0  0
 12 34  1  0  0  0  0
 13 23  1  0  0  0  0
 14 35  1  0  0  0  0
 14 36  1  0  0  0  0
 14 37  1  0  0  0  0
 15 38  1  0  0  0  0
 15 39  1  0  0  0  0
 15 40  1  0  0  0  0
 16 18  1  0  0  0  0
 16 41  1  0  0  0  0
 16 42  1  0  0  0  0
 16 43  1  0  0  0  0
 17 44  1  0  0  0  0
M  END
$$$$
