27
0 1 BrC13Cl3H6N4
C                    -0.002557354706    -5.048502691197    -6.279914263833
C                     2.494517425830    -0.696797695847     0.339792635213
C                     2.949937250113    -1.974239049638     2.342302247066
C                     1.955233486072     0.330426653676     1.115252100084
C                     2.400496759233    -0.961949176397     3.127033822728
C                     0.655553026077    -4.500696199001    -5.137768473010
C                     2.990916362883    -1.871211220696     0.939224857025
C                     2.058288345385    -4.586222862268    -4.977629627532
C                     2.678272084942    -4.044822547049    -3.847135800294
C                     1.902146126666     0.184892405991     2.503281865172
C                     1.839594559851    -3.467261219354    -2.859890487406
C                    -0.050636422236    -3.829153384990    -4.121234937212
C                     3.610205234553    -2.974555563515     0.178604092653
N                    -0.542958244678    -5.495291651050    -7.210434997134
N                     0.512670257848    -3.351889104282    -3.033661181252
N                     3.335696424514    -3.441586387776    -0.991138797717
N                     2.283144875798    -2.896229684433    -1.681908810585
Cl                    2.988049952811    -5.341841176882    -6.222577457964
Cl                    4.407861037526    -4.007483771314    -3.727126473575
Cl                   -1.773560906445    -3.614114525905    -4.270283546006
Br                    1.151768089925     1.583656086289     3.569694104941
H                     2.567558126353    -0.557555481615    -0.734055666222
H                     3.347515655724    -2.863520325565     2.825396499562
H                     1.586583431117     1.235822238227     0.644324949312
H                     2.364673568196    -1.059222383093     4.207110465848
H                     4.416340234476    -3.512369099724     0.676074677060
H                     1.516987785363    -2.477959767247    -1.151129896917
