
  -OEChem-05262117483D

 34 36  0     0  0  0  0  0  0999 V2000
   -6.6208   -2.1324   -5.3177 C   0  0  0  0  0  0  0  0  0  0  0  0
   -6.4505   -4.2685   -4.2363 C   0  0  0  0  0  0  0  0  0  0  0  0
   -5.5569   -1.6890   -4.5188 C   0  0  0  0  0  0  0  0  0  0  0  0
   -7.0806   -3.4367   -5.1724 C   0  0  0  0  0  0  0  0  0  0  0  0
   -4.9872   -2.5887   -3.5911 C   0  0  0  0  0  0  0  0  0  0  0  0
   -3.0935    1.7384   -6.5226 C   0  0  0  0  0  0  0  0  0  0  0  0
   -1.7927    1.3891   -5.8286 C   0  0  0  0  0  0  0  0  0  0  0  0
   -3.7298   -0.9946   -1.8800 C   0  0  0  0  0  0  0  0  0  0  0  0
   -4.0331   -2.3200   -1.2180 C   0  0  0  0  0  0  0  0  0  0  0  0
   -3.1038    1.2202   -5.1110 C   0  0  0  0  0  0  0  0  0  0  0  0
   -3.8017   -2.2894   -2.7051 C   0  0  0  0  0  0  0  0  0  0  0  0
   -2.5022   -2.9236   -3.1969 C   0  0  0  0  0  0  0  0  0  0  0  0
   -5.1088   -0.2578   -4.6898 C   0  0  0  0  0  0  0  0  0  0  0  0
   -5.4368   -3.8496   -3.4823 N   0  0  0  0  0  0  0  0  0  0  0  0
   -3.6064   -0.1560   -4.8634 N   0  3  0  0  0  0  0  0  0  0  0  0
   -8.4004   -4.0303   -6.1311 Cl  0  0  0  0  0  0  0  0  0  0  0  0
   -7.0917   -1.4703   -6.0395 H   0  0  0  0  0  0  0  0  0  0  0  0
   -6.7811   -5.2962   -4.1008 H   0  0  0  0  0  0  0  0  0  0  0  0
   -3.3509    2.7819   -6.6692 H   0  0  0  0  0  0  0  0  0  0  0  0
   -3.4308    1.0777   -7.3173 H   0  0  0  0  0  0  0  0  0  0  0  0
   -1.2670    0.4985   -6.1627 H   0  0  0  0  0  0  0  0  0  0  0  0
   -1.1441    2.1882   -5.4862 H   0  0  0  0  0  0  0  0  0  0  0  0
   -4.5494   -0.2822   -1.9149 H   0  0  0  0  0  0  0  0  0  0  0  0
   -2.7525   -0.5519   -1.6972 H   0  0  0  0  0  0  0  0  0  0  0  0
   -3.2645   -2.7745   -0.6014 H   0  0  0  0  0  0  0  0  0  0  0  0
   -5.0480   -2.4802   -0.8705 H   0  0  0  0  0  0  0  0  0  0  0  0
   -3.3627    1.8798   -4.2898 H   0  0  0  0  0  0  0  0  0  0  0  0
   -1.6747   -2.6990   -2.5177 H   0  0  0  0  0  0  0  0  0  0  0  0
   -2.2133   -2.5855   -4.2019 H   0  0  0  0  0  0  0  0  0  0  0  0
   -2.6209   -4.0091   -3.2463 H   0  0  0  0  0  0  0  0  0  0  0  0
   -5.5544    0.1945   -5.5765 H   0  0  0  0  0  0  0  0  0  0  0  0
   -5.3500    0.3706   -3.8308 H   0  0  0  0  0  0  0  0  0  0  0  0
   -3.3205   -0.7803   -5.6264 H   0  0  0  0  0  0  0  0  0  0  0  0
   -3.1851   -0.5392   -4.0017 H   0  0  0  0  0  0  0  0  0  0  0  0
  1  3  1  0  0  0  0
  1  4  2  0  0  0  0
  1 17  1  0  0  0  0
  2  4  1  0  0  0  0
  2 14  2  0  0  0  0
  2 18  1  0  0  0  0
  3  5  2  0  0  0  0
  3 13  1  0  0  0  0
  4 16  1  0  0  0  0
  5 11  1  0  0  0  0
  5 14  1  0  0  0  0
  6  7  1  0  0  0  0
  6 10  1  0  0  0  0
  6 19  1  0  0  0  0
  6 20  1  0  0  0  0
  7 10  1  0  0  0  0
  7 21  1  0  0  0  0
  7 22  1  0  0  0  0
  8  9  1  0  0  0  0
  8 11  1  0  0  0  0
  8 23  1  0  0  0  0
  8 24  1  0  0  0  0
  9 11  1  0  0  0  0
  9 25  1  0  0  0  0
  9 26  1  0  0  0  0
 10 15  1  0  0  0  0
 10 27  1  0  0  0  0
 11 12  1  0  0  0  0
 12 28  1  0  0  0  0
 12 29  1  0  0  0  0
 12 30  1  0  0  0  0
 13 15  1  0  0  0  0
 13 31  1  0  0  0  0
 13 32  1  0  0  0  0
 15 33  1  0  0  0  0
 15 34  1  0  0  0  0
M  CHG  1  15   1
M  END
$$$$
