31
0 1 C11H17NO2
C                    -0.831329894230     3.149442191555     2.641125490494
C                     0.130478409902     2.007031007777     4.518193078339
C                    -1.926737711327     3.517308879026     3.418249646326
C                    -0.962049508396     2.365902402348     5.317365180399
C                     0.221848983486     2.385282194746     3.174195614482
C                    -2.001114155674     3.126861136329     4.764131203308
C                     2.426067496362     0.104878890824     0.920433202763
C                     1.383375767939     1.940432039649     2.314950458199
C                    -4.494364096248     3.806795960053     7.373426224197
C                    -3.218034982993     3.202548331459     6.827571782061
C                     1.202424816691     0.522170581603     1.737519228721
N                     0.013915228056     0.501789189039     0.867764353738
O                    -4.311284302124     5.215994152386     7.510686897320
O                    -3.118245035943     3.532990733450     5.444898973129
H                    -0.789101685113     3.459565559224     1.599762748302
H                     0.931940489299     1.419549538878     4.962362076530
H                    -2.735636471527     4.113113342346     3.004997652040
H                    -0.984725826103     2.054357056137     6.355645269544
H                     2.567019852586     0.785333287193     0.074067579484
H                     2.306917844481    -0.909583789335     0.521629439695
H                     3.331892746349     0.117129676633     1.536083922900
H                     1.516926104467     2.632332592002     1.476000824894
H                     2.308236167790     1.955389365803     2.903153248554
H                    -4.706233220883     3.342287898184     8.348663289067
H                    -5.321637952994     3.571839198849     6.690023215368
H                    -3.246196005526     2.111295820199     6.955632301911
H                    -2.358916548778     3.601792830350     7.381997445064
H                     1.103452792396    -0.170491075749     2.592405557611
H                    -0.814856353657     0.726734150255     1.417148947629
H                    -0.126524683540    -0.440558131035     0.505889635075
H                    -5.176398335304     5.626438623440     7.657930191601
