32
1 1 C11H18NO2
C                     2.859899324666    -2.024876165097    -3.484796527542
C                     1.556263794198    -0.310405456165    -4.562993242161
C                     3.643077352456    -2.170620512010    -4.632973351035
C                     2.323400301690    -0.442229680133    -5.713225125352
C                     1.808283953937    -1.103918198461    -3.430661698890
C                     3.372729706246    -1.379710612493    -5.762848183814
C                    -1.130706985110    -2.090397141037    -3.302711401361
C                     0.934397554340    -1.003026181659    -2.200235750560
C                     5.598068607660    -2.357941095258    -8.500871027598
C                     5.111406007397    -2.399073431290    -7.068910087044
C                    -0.109749840046    -2.129105475020    -2.175149199995
N                    -0.873490252245    -2.039825119667    -0.833646150507
O                     4.593229401375    -2.945621201406    -9.322550740379
O                     4.059841114882    -1.432439237376    -6.926267909234
H                     3.093869170372    -2.636731927910    -2.614728802991
H                     0.755001447447     0.425623178494    -4.545058791479
H                     4.456893364884    -2.885884116503    -4.632416317936
H                     2.135004541477     0.170325946000    -6.589480042767
H                    -1.665680517190    -1.134373844507    -3.326486063411
H                    -0.603709248992    -2.198096488185    -4.252163735130
H                    -1.856838518941    -2.906484175674    -3.228643806002
H                     0.420258734481    -0.033764929817    -2.182105938235
H                     1.552289339964    -1.062805822994    -1.294144107474
H                     6.540791707055    -2.922122764568    -8.555017154183
H                     5.800096994132    -1.316517275432    -8.785758770191
H                     5.933058546928    -2.155168373414    -6.383648009882
H                     4.732457052650    -3.402599309697    -6.842656872761
H                     0.389104696228    -3.101055354558    -2.139088699438
H                    -1.557400768477    -2.799693484006    -0.731548339929
H                    -1.387758027299    -1.152272940859    -0.771058075755
H                    -0.231869689526    -2.080221984044    -0.032113494745
H                     4.850106857564    -2.841859636512   -10.251581247154
