
  -OEChem-05262117483D

 31 31  0     1  0  0  0  0  0999 V2000
   -0.8313    3.1494    2.6411 C   0  0  0  0  0  0  0  0  0  0  0  0
    0.1305    2.0070    4.5182 C   0  0  0  0  0  0  0  0  0  0  0  0
   -1.9267    3.5173    3.4182 C   0  0  0  0  0  0  0  0  0  0  0  0
   -0.9620    2.3659    5.3174 C   0  0  0  0  0  0  0  0  0  0  0  0
    0.2218    2.3853    3.1742 C   0  0  0  0  0  0  0  0  0  0  0  0
   -2.0011    3.1269    4.7641 C   0  0  0  0  0  0  0  0  0  0  0  0
    2.4261    0.1049    0.9204 C   0  0  0  0  0  0  0  0  0  0  0  0
    1.3834    1.9404    2.3150 C   0  0  0  0  0  0  0  0  0  0  0  0
   -4.4944    3.8068    7.3734 C   0  0  0  0  0  0  0  0  0  0  0  0
   -3.2180    3.2025    6.8276 C   0  0  0  0  0  0  0  0  0  0  0  0
    1.2024    0.5222    1.7375 C   0  0  1  0  0  0  0  0  0  0  0  0
    0.0139    0.5018    0.8678 N   0  0  0  0  0  0  0  0  0  0  0  0
   -4.3113    5.2160    7.5107 O   0  0  0  0  0  0  0  0  0  0  0  0
   -3.1182    3.5330    5.4449 O   0  0  0  0  0  0  0  0  0  0  0  0
   -0.7891    3.4596    1.5998 H   0  0  0  0  0  0  0  0  0  0  0  0
    0.9319    1.4195    4.9624 H   0  0  0  0  0  0  0  0  0  0  0  0
   -2.7356    4.1131    3.0050 H   0  0  0  0  0  0  0  0  0  0  0  0
   -0.9847    2.0544    6.3556 H   0  0  0  0  0  0  0  0  0  0  0  0
    2.5670    0.7853    0.0741 H   0  0  0  0  0  0  0  0  0  0  0  0
    2.3069   -0.9096    0.5216 H   0  0  0  0  0  0  0  0  0  0  0  0
    3.3319    0.1171    1.5361 H   0  0  0  0  0  0  0  0  0  0  0  0
    1.5169    2.6323    1.4760 H   0  0  0  0  0  0  0  0  0  0  0  0
    2.3082    1.9554    2.9032 H   0  0  0  0  0  0  0  0  0  0  0  0
   -4.7062    3.3423    8.3487 H   0  0  0  0  0  0  0  0  0  0  0  0
   -5.3216    3.5718    6.6900 H   0  0  0  0  0  0  0  0  0  0  0  0
   -3.2462    2.1113    6.9556 H   0  0  0  0  0  0  0  0  0  0  0  0
   -2.3589    3.6018    7.3820 H   0  0  0  0  0  0  0  0  0  0  0  0
    1.1035   -0.1705    2.5924 H   0  0  0  0  0  0  0  0  0  0  0  0
   -0.8149    0.7267    1.4171 H   0  0  0  0  0  0  0  0  0  0  0  0
   -0.1265   -0.4406    0.5059 H   0  0  0  0  0  0  0  0  0  0  0  0
   -5.1764    5.6264    7.6579 H   0  0  0  0  0  0  0  0  0  0  0  0
  1  3  1  0  0  0  0
  1  5  2  0  0  0  0
  1 15  1  0  0  0  0
  2  4  2  0  0  0  0
  2  5  1  0  0  0  0
  2 16  1  0  0  0  0
  3  6  2  0  0  0  0
  3 17  1  0  0  0  0
  4  6  1  0  0  0  0
  4 18  1  0  0  0  0
  5  8  1  0  0  0  0
  6 14  1  0  0  0  0
  7 11  1  0  0  0  0
  7 19  1  0  0  0  0
  7 20  1  0  0  0  0
  7 21  1  0  0  0  0
  8 11  1  0  0  0  0
  8 22  1  0  0  0  0
  8 23  1  0  0  0  0
  9 10  1  0  0  0  0
  9 13  1  0  0  0  0
  9 24  1  0  0  0  0
  9 25  1  0  0  0  0
 10 14  1  0  0  0  0
 10 26  1  0  0  0  0
 10 27  1  0  0  0  0
 11 12  1  0  0  0  0
 11 28  1  0  0  0  0
 12 29  1  0  0  0  0
 12 30  1  0  0  0  0
 13 31  1  0  0  0  0
M  END
$$$$
