32
1 1 C11H18NO2
C                     3.477528088049    -2.459623813940    -4.226666516591
C                     1.851924103104    -1.081387721993    -5.349142462404
C                     3.848129769724    -3.026350412875    -5.442207969426
C                     2.212526542166    -1.637835318200    -6.578443813909
C                     2.471094079238    -1.475664781490    -4.155000766631
C                     3.218482418200    -2.620274098608    -6.634092004715
C                     0.292332075298    -1.155310222253    -0.925074372656
C                     2.027377384684    -0.913348049089    -2.822239766997
C                     3.958828916644    -3.442619706823   -10.121515754229
C                     3.163475828304    -2.755414242230    -9.033099235935
C                     0.713207428232    -1.547360138915    -2.333978363627
N                     0.884061090914    -3.069349485019    -2.409574048142
O                     5.275726231273    -2.903486852451   -10.104900822797
O                     3.648132349512    -3.223384144369    -7.762129714138
H                     4.014865301268    -2.754898474370    -3.326058848066
H                     1.084349537425    -0.309755785304    -5.331087904370
H                     4.641283867457    -3.765272620273    -5.501160062272
H                     1.717728900644    -1.295338809695    -7.479612500238
H                     1.067921024541    -1.402863486029    -0.192157993218
H                     0.139276324995    -0.073900571156    -0.889495105854
H                    -0.646380289474    -1.631253083964    -0.624299132084
H                     1.849740342217     0.164845236462    -2.883671848840
H                     2.803937003684    -1.058241717178    -2.061506309046
H                     3.454456162751    -3.248605894419   -11.079601376060
H                     3.958898556365    -4.526965428881    -9.943565581731
H                     2.097963406755    -2.997469889256    -9.133703443835
H                     3.303174669550    -1.671161575985    -9.107873896716
H                    -0.081604396490    -1.335908238760    -3.054032461239
H                    -0.007094176145    -3.569474538733    -2.317786594044
H                     1.511984494212    -3.406853539922    -1.670327381030
H                     1.322692291929    -3.307708072505    -3.317475106866
H                     5.811505493866    -3.362761510460   -10.769779279561
