48
-1 1 C14FH23NO8S
C                     1.940978621498    -0.197163760918    -0.019898899366
C                    -0.432167047382    -1.431996855811    -2.056265158031
C                    -0.628775595571     1.075616266620     1.458786975987
C                     0.413924504436     1.803489841246    -0.443986336801
C                    -0.481004245935    -0.182471721883     0.606056557387
C                     0.538539837223     0.243770212939    -0.497505055010
C                     3.950886596433    -2.365584816645     0.825312773629
C                     3.709514312981    -2.905796234716    -1.634932828825
C                     4.703407218782    -0.697748156326    -0.952897917715
C                    -2.187421253436    -3.508163754890    -3.621465686379
C                    -0.782665556704    -2.524374662410    -5.482886281995
C                     0.344901936434    -3.745545200782    -3.597575822450
C                     3.708856857923    -1.800359678668    -0.576856537736
C                    -0.846386430527    -2.864887200884    -3.991353597957
N                     0.227860187886    -0.246702346821    -1.842867060515
O                     0.430509558523     1.197528234125    -4.045945529883
O                     2.544315208023     0.373127174621     0.873878647150
O                    -0.754962706384    -2.248499262808    -1.197463648047
O                     2.278843802806     1.185683898749    -2.373775590848
O                     1.915029268658    -0.801547319262    -3.817299228084
O                    -0.622549915647     2.126575838616     0.509977841242
O                     2.336573808509    -1.288196213835    -0.670493688440
O                    -0.743007661843    -1.547470668159    -3.370553650179
F                    -0.041507887806    -1.246634143574     1.397102667118
S                     1.325406505344     0.400957419063    -3.194078442736
H                    -1.573663405473     1.107089610402     2.008784965642
H                     0.214043196287     1.143473083686     2.161643195259
H                     1.360869167947     2.244327721813    -0.131573399262
H                     0.110753361125     2.210741399888    -1.405206725052
H                    -1.425534178582    -0.476749481241     0.154092990554
H                     3.930980965932    -1.572177814539     1.574222047271
H                     3.180046711025    -3.102407788631     1.072913848566
H                     4.928490745051    -2.860905904389     0.856428827541
H                     3.465298940297    -2.477508828887    -2.610211714571
H                     2.957907288627    -3.663630955159    -1.392980942867
H                     4.694074638911    -3.384756814139    -1.678720629018
H                     4.392453841950    -0.223181001902    -1.886605816563
H                     4.760272559507     0.068398361148    -0.178168802063
H                     5.696426548261    -1.143161393018    -1.085220536655
H                    -2.229965201428    -3.712839493236    -2.550307224457
H                    -3.011856243783    -2.836757669687    -3.884678796099
H                    -2.316732727045    -4.447044884858    -4.173614453306
H                     0.159577494293    -2.015119783073    -5.699564844292
H                    -1.603978359174    -1.853626026973    -5.753881773406
H                    -0.856544579764    -3.436665431308    -6.085700766408
H                     1.273685587332    -3.200968562857    -3.780742052380
H                     0.300407303658    -4.026222232683    -2.543708696854
H                     0.336755073355    -4.658160450561    -4.205168628906
