
  -OEChem-05262117483D

 27 28  0     1  0  0  0  0  0999 V2000
   -2.3777    1.6290   -1.4963 C   0  0  0  0  0  0  0  0  0  0  0  0
   -2.0491    2.6386   -0.5828 C   0  0  0  0  0  0  0  0  0  0  0  0
   -1.6130    0.4627   -1.5570 C   0  0  0  0  0  0  0  0  0  0  0  0
   -0.9636    2.4932    0.2871 C   0  0  0  0  0  0  0  0  0  0  0  0
   -0.5266    0.3277   -0.6928 C   0  0  0  0  0  0  0  0  0  0  0  0
   -0.2069    1.3280    0.2320 C   0  0  0  0  0  0  0  0  0  0  0  0
    1.2041   -1.0675    0.2186 C   0  0  0  0  0  0  0  0  0  0  0  0
    1.1539   -0.1723    1.4458 C   0  0  2  0  0  0  0  0  0  0  0  0
    0.1213   -0.7113    2.4439 C   0  0  0  0  0  0  0  0  0  0  0  0
    0.0321    0.1513    3.7027 C   0  0  0  0  0  0  0  0  0  0  0  0
    0.3366   -0.8080   -0.7437 N   0  3  0  0  0  0  0  0  0  0  0  0
    2.0710   -2.0743    0.1623 N   0  0  0  0  0  0  0  0  0  0  0  0
    0.9045    1.1727    1.0354 O   0  0  0  0  0  0  0  0  0  0  0  0
   -0.8760   -0.5226    4.5635 O   0  0  0  0  0  0  0  0  0  0  0  0
   -3.2267    1.7491   -2.1612 H   0  0  0  0  0  0  0  0  0  0  0  0
   -2.6456    3.5447   -0.5422 H   0  0  0  0  0  0  0  0  0  0  0  0
   -1.8574   -0.3249   -2.2658 H   0  0  0  0  0  0  0  0  0  0  0  0
   -0.6950    3.2678    0.9986 H   0  0  0  0  0  0  0  0  0  0  0  0
    2.1474   -0.1423    1.9010 H   0  0  0  0  0  0  0  0  0  0  0  0
    0.4055   -1.7282    2.7382 H   0  0  0  0  0  0  0  0  0  0  0  0
   -0.8677   -0.7724    1.9791 H   0  0  0  0  0  0  0  0  0  0  0  0
    1.0276    0.2485    4.1626 H   0  0  0  0  0  0  0  0  0  0  0  0
   -0.3223    1.1576    3.4454 H   0  0  0  0  0  0  0  0  0  0  0  0
    0.2989   -1.3899   -1.5779 H   0  0  0  0  0  0  0  0  0  0  0  0
    2.1141   -2.7277   -0.6143 H   0  0  0  0  0  0  0  0  0  0  0  0
    2.7157   -2.2337    0.9285 H   0  0  0  0  0  0  0  0  0  0  0  0
   -1.0190    0.0140    5.3593 H   0  0  0  0  0  0  0  0  0  0  0  0
  1  2  1  0  0  0  0
  1  3  2  0  0  0  0
  1 15  1  0  0  0  0
  2  4  2  0  0  0  0
  2 16  1  0  0  0  0
  3  5  1  0  0  0  0
  3 17  1  0  0  0  0
  4  6  1  0  0  0  0
  4 18  1  0  0  0  0
  5  6  2  0  0  0  0
  5 11  1  0  0  0  0
  6 13  1  0  0  0  0
  7  8  1  0  0  0  0
  7 11  2  0  0  0  0
  7 12  1  0  0  0  0
  8  9  1  0  0  0  0
  8 13  1  0  0  0  0
  8 19  1  0  0  0  0
  9 10  1  0  0  0  0
  9 20  1  0  0  0  0
  9 21  1  0  0  0  0
 10 14  1  0  0  0  0
 10 22  1  0  0  0  0
 10 23  1  0  0  0  0
 11 24  1  0  0  0  0
 12 25  1  0  0  0  0
 12 26  1  0  0  0  0
 14 27  1  0  0  0  0
M  CHG  1  11   1
M  END
$$$$
