43
0 1 C15H21N3O3S
C                     5.004144157508    -3.436777045365    -3.000170894407
C                     4.297217374837    -2.617547809369    -3.888403864989
C                     4.517290926447    -3.668439879520    -1.708694628550
C                     3.101078490186    -2.017996856066    -3.486186231565
C                     3.322280644492    -3.074236346599    -1.293907877475
C                    -1.203236214692     0.489232126045     2.357268701527
C                     0.841677647662     0.635155049100     1.888098726018
C                     2.635946882934    -2.251551461707    -2.189844519929
C                     0.999147868341     4.619502208493    -2.141619875748
C                     1.230169313258     2.416390041120    -3.318491915584
C                    -0.992357572209     3.121002292632    -2.370753581509
C                     1.724523721241     0.140685650909    -1.027205256809
C                     0.542052732510     1.029900430428    -0.618493221983
C                     0.857837592528     2.534294089224    -0.766692353184
C                     0.534325051867     3.149395412289    -2.157768744935
N                     0.036991984742     0.472184380572     2.930508572325
N                    -1.209360070336     0.652884083772     1.039241127877
N                     0.119077302773     0.732412798529     0.746832655265
O                     0.299785975527    -1.155765452240    -2.838305608280
O                     0.564480924315    -2.226698484671    -0.523108003156
O                     2.233063491662     2.684441000026    -0.378840992012
S                     1.116967803728    -1.458753542571    -1.647802455631
H                     5.932612598709    -3.903150239939    -3.318706862075
H                     4.671847105813    -2.453105567812    -4.894867804063
H                     5.062176265189    -4.316550578473    -1.028002044227
H                     2.522815314756    -1.398704380699    -4.165421932817
H                     2.911992275424    -3.257086223809    -0.305247862232
H                    -2.121179776265     0.372460681216     2.918623220422
H                     1.920704741869     0.695087352767     1.917495028081
H                     0.568415161080     5.169503256792    -1.295217347650
H                     2.090417974744     4.700361735142    -2.093307250563
H                     0.680105938467     5.127939360870    -3.056877169754
H                     0.856327876405     1.395636041895    -3.444592220168
H                     2.315352214830     2.384233201469    -3.173171391991
H                     1.040375847862     2.948118642669    -4.257212032802
H                    -1.383472877249     2.103499325352    -2.457155742013
H                    -1.522084058241     3.615810909290    -1.549057580654
H                    -1.248728616391     3.645091104581    -3.297184420568
H                     2.293895221960     0.583051424837    -1.840788521224
H                     2.405927064642    -0.061512257482    -0.202084167042
H                    -0.323464068028     0.793033799878    -1.235941731733
H                     0.218401785550     3.050119322769    -0.038306386849
H                     2.390585524083     3.615556502054    -0.162990877805
