26
0 1 C10H12N2O2
C                    -1.659273784576     2.497628104102    -0.436353310086
C                    -0.382255264543     2.946665241584    -0.079055683248
C                    -1.899499282802     1.129511356828    -0.589346098885
C                     0.650334492096     2.028145718243     0.142947814692
C                    -0.876017586728     0.196815255390    -0.377150932296
C                     0.393372997275     0.665888058088     0.007733247587
C                    -0.200991664815    -1.993808567941    -0.185435781026
C                     1.048296228386    -1.565295224610     0.571759100668
C                     0.916420785356    -1.725027344484     2.098107284747
C                    -0.301604958688    -1.069582794443     2.764790458053
N                    -1.119269327711    -1.174501119554    -0.576615381097
N                    -0.308222473169    -3.336711164149    -0.458101599135
O                     1.423018872297    -0.225850775015     0.214279738500
O                    -1.529165248377    -1.751020238024     2.494622986100
H                    -2.462017192503     3.210340058420    -0.603143405092
H                    -0.187172090831     4.009705082616     0.033049037720
H                    -2.876403192385     0.757837985466    -0.886468646135
H                     1.647661498698     2.351529007371     0.427812818540
H                     1.888812247402    -2.178980718173     0.234249732825
H                     1.831145896425    -1.306527547425     2.534958307167
H                     0.904326371413    -2.794581425772     2.343728088602
H                    -0.167617833999    -1.123379473566     3.849110716103
H                    -0.371502568834    -0.009054259117     2.497484215527
H                    -1.230185574874    -3.628094033118    -0.766626391244
H                     0.138845008525    -3.978220864242     0.185729278583
H                    -1.852780936260    -1.470829710483     1.622914785738
