56
0 1 C22H26O7S
C                     4.353383169747    -1.043499252847     0.027263384522
C                     3.105142851628    -1.214804494193     0.638499920039
C                    -2.878546100791     0.828952507401     0.366631619612
C                    -2.161801662667     0.948956843979     2.648846090746
C                     2.019883912583    -0.773496894766    -1.503150182311
C                    -1.736678646597     0.120840002646     0.022381438998
C                     4.455778256206    -0.725740577708    -1.320772246505
C                    -3.134875324097     1.212595248131     1.695564604222
C                    -0.970685431761     0.268061553034     2.332043432448
C                     3.278063633956    -0.593202498975    -2.094797365963
C                     1.953175071391    -1.054101879190    -0.116666286733
C                    -0.782688761125    -0.223635099450     1.020430402068
C                     0.725331486682    -0.751217602845    -2.253149243501
C                    -1.485839541600    -0.175734279971    -1.440271060094
C                    -4.411317353185     1.933420690321     2.052316061969
C                     7.392684173542     0.883904867217    -4.306697579274
C                     7.542289085169     2.930209994667    -2.833667264193
C                     1.280010995992     0.427356217983     3.202234195992
C                     2.558433518417     0.488677130278    -4.164055644885
C                     6.046418915456     1.030139697904    -2.140184530190
C                     5.800677078190    -0.481575556235    -1.970421464697
C                     7.352242069805     1.406475157534    -2.862825214257
O                     0.424001779520    -1.415572496968    -3.217061333968
O                     0.781949908028    -2.134328067790     1.990742790355
O                    -0.279755676168    -2.452422654038    -0.295435699639
O                    -0.088892187993     0.140715274249    -1.630593506905
O                     6.801045186845    -1.081629682981    -1.136500512464
O                    -0.114437768038     0.138375316125     3.377210000975
O                     3.495617963370    -0.289278267700    -3.407388458706
S                     0.391252309020    -1.585689592599     0.686623888256
H                     5.264622267732    -1.172197452402     0.600514627338
H                     3.031968147560    -1.518857908209     1.675289332857
H                    -3.582307472391     1.105572639259    -0.415618570024
H                    -2.275529068509     1.282034633147     3.676575508166
H                    -1.660149001348    -1.217545240553    -1.709495792263
H                    -2.090684124422     0.478108455944    -2.072009883999
H                    -5.271589372553     1.260974835400     1.957622959308
H                    -4.388441567421     2.307046826134     3.078935154474
H                    -4.586789420557     2.781921003884     1.382610064391
H                     6.551569983190     1.284082808249    -4.885482020715
H                     8.318010545677     1.189981807261    -4.806401725435
H                     7.336832831605    -0.208111283800    -4.360139714957
H                     6.728305937412     3.433034370749    -3.370079226934
H                     7.551181976988     3.311123022382    -1.806684145393
H                     8.484819278304     3.221052340865    -3.310114844544
H                     1.855368528151    -0.472572950106     3.417116879006
H                     1.535037459091     1.221040805287     3.911326678732
H                     1.495121828469     0.769256640111     2.186295846970
H                     3.153690653748     1.022463876628    -4.907958685152
H                     2.043679709971     1.212992173374    -3.523598150175
H                     1.828411595444    -0.153971316838    -4.658214045629
H                     6.040529506483     1.476685458494    -1.138631620219
H                     5.202621849565     1.459248434390    -2.691554083673
H                     5.797458077342    -0.966791740553    -2.952822694690
H                     8.197969701163     0.968116128234    -2.311839965139
H                     7.655140559850    -0.985927852137    -1.584129800436
