
  -OEChem-05262117483D

 31 32  0     0  0  0  0  0  0999 V2000
    1.0859    3.0911    2.2537 C   0  0  0  0  0  0  0  0  0  0  0  0
    1.2342    1.8949    2.1134 C   0  0  0  0  0  0  0  0  0  0  0  0
    0.6657   -1.6486    1.0814 C   0  0  0  0  0  0  0  0  0  0  0  0
    7.5648   -4.9815    4.0035 C   0  0  0  0  0  0  0  0  0  0  0  0
    0.4694   -0.2765    1.2261 C   0  0  0  0  0  0  0  0  0  0  0  0
    6.3929   -4.7025    3.3001 C   0  0  0  0  0  0  0  0  0  0  0  0
    7.9063   -4.2305    5.1319 C   0  0  0  0  0  0  0  0  0  0  0  0
    1.7750   -2.2933    1.6356 C   0  0  0  0  0  0  0  0  0  0  0  0
    2.5258   -0.1561    2.5091 C   0  0  0  0  0  0  0  0  0  0  0  0
    5.9121   -2.9111    4.8589 C   0  0  0  0  0  0  0  0  0  0  0  0
    1.4096    0.4827    1.9482 C   0  0  0  0  0  0  0  0  0  0  0  0
    5.5659   -3.6513    3.7169 C   0  0  0  0  0  0  0  0  0  0  0  0
    7.0778   -3.1917    5.5828 C   0  0  0  0  0  0  0  0  0  0  0  0
    2.7149   -1.5380    2.3587 C   0  0  0  0  0  0  0  0  0  0  0  0
    4.3200   -3.3954    2.9168 C   0  0  0  0  0  0  0  0  0  0  0  0
    7.4169   -2.4232    6.8395 C   0  0  0  0  0  0  0  0  0  0  0  0
    3.8590   -2.0952    2.9666 N   0  0  0  0  0  0  0  0  0  0  0  0
    3.7783   -4.2858    2.2642 O   0  0  0  0  0  0  0  0  0  0  0  0
    0.9515    4.1451    2.3744 H   0  0  0  0  0  0  0  0  0  0  0  0
   -0.0573   -2.2376    0.5234 H   0  0  0  0  0  0  0  0  0  0  0  0
    8.2157   -5.7868    3.6729 H   0  0  0  0  0  0  0  0  0  0  0  0
   -0.3950    0.2146    0.7908 H   0  0  0  0  0  0  0  0  0  0  0  0
    6.1034   -5.2824    2.4296 H   0  0  0  0  0  0  0  0  0  0  0  0
    8.8212   -4.4582    5.6750 H   0  0  0  0  0  0  0  0  0  0  0  0
    1.9233   -3.3567    1.5122 H   0  0  0  0  0  0  0  0  0  0  0  0
    3.2466    0.4378    3.0664 H   0  0  0  0  0  0  0  0  0  0  0  0
    5.2506   -2.1304    5.2296 H   0  0  0  0  0  0  0  0  0  0  0  0
    8.4919   -2.2312    6.9104 H   0  0  0  0  0  0  0  0  0  0  0  0
    6.8985   -1.4608    6.8748 H   0  0  0  0  0  0  0  0  0  0  0  0
    7.1259   -2.9881    7.7330 H   0  0  0  0  0  0  0  0  0  0  0  0
    4.4618   -1.4289    3.4306 H   0  0  0  0  0  0  0  0  0  0  0  0
  1  2  3  0  0  0  0
  1 19  1  0  0  0  0
  2 11  1  0  0  0  0
  3  5  2  0  0  0  0
  3  8  1  0  0  0  0
  3 20  1  0  0  0  0
  4  6  2  0  0  0  0
  4  7  1  0  0  0  0
  4 21  1  0  0  0  0
  5 11  1  0  0  0  0
  5 22  1  0  0  0  0
  6 12  1  0  0  0  0
  6 23  1  0  0  0  0
  7 13  2  0  0  0  0
  7 24  1  0  0  0  0
  8 14  2  0  0  0  0
  8 25  1  0  0  0  0
  9 11  2  0  0  0  0
  9 14  1  0  0  0  0
  9 26  1  0  0  0  0
 10 12  2  0  0  0  0
 10 13  1  0  0  0  0
 10 27  1  0  0  0  0
 12 15  1  0  0  0  0
 13 16  1  0  0  0  0
 14 17  1  0  0  0  0
 15 17  1  0  0  0  0
 15 18  2  0  0  0  0
 16 28  1  0  0  0  0
 16 29  1  0  0  0  0
 16 30  1  0  0  0  0
 17 31  1  0  0  0  0
M  END
$$$$
