
  -OEChem-05262117483D

 23 23  0     0  0  0  0  0  0999 V2000
    3.8030   -2.1139   -0.2990 C   0  0  0  0  0  0  0  0  0  0  0  0
    1.5826   -1.1049   -0.0198 C   0  0  0  0  0  0  0  0  0  0  0  0
    0.6051   -0.5052    0.7731 C   0  0  0  0  0  0  0  0  0  0  0  0
    2.1005   -0.7043    2.7155 C   0  0  0  0  0  0  0  0  0  0  0  0
    2.8083   -1.5007    0.5324 C   0  0  0  0  0  0  0  0  0  0  0  0
    3.0781   -1.3038    1.9113 C   0  0  0  0  0  0  0  0  0  0  0  0
    0.8984   -0.3201    2.1221 C   0  0  0  0  0  0  0  0  0  0  0  0
    6.0188   -2.0865    3.9414 C   0  0  0  0  0  0  0  0  0  0  0  0
    4.6185   -1.5389    3.7422 C   0  0  0  0  0  0  0  0  0  0  0  0
    4.5921   -2.6093   -0.9980 N   0  0  0  0  0  0  0  0  0  0  0  0
   -1.6486    0.3231    2.5524 O   0  0  0  0  0  0  0  0  0  0  0  0
   -0.0870    0.0779    4.5594 O   0  0  0  0  0  0  0  0  0  0  0  0
    4.2795   -1.7230    2.3503 O   0  0  0  0  0  0  0  0  0  0  0  0
   -0.3370    0.4424    3.1715 S   0  0  0  0  0  0  0  0  0  0  0  0
    0.2353    2.4969    2.9829 Cl  0  0  0  0  0  0  0  0  0  0  0  0
    1.4023   -1.2737   -1.0765 H   0  0  0  0  0  0  0  0  0  0  0  0
   -0.3500   -0.1972    0.3628 H   0  0  0  0  0  0  0  0  0  0  0  0
    2.2532   -0.5409    3.7747 H   0  0  0  0  0  0  0  0  0  0  0  0
    6.0580   -3.1490    3.6873 H   0  0  0  0  0  0  0  0  0  0  0  0
    6.7360   -1.5513    3.3136 H   0  0  0  0  0  0  0  0  0  0  0  0
    6.3129   -1.9664    4.9886 H   0  0  0  0  0  0  0  0  0  0  0  0
    4.5699   -0.4701    3.9831 H   0  0  0  0  0  0  0  0  0  0  0  0
    3.8888   -2.0740    4.3616 H   0  0  0  0  0  0  0  0  0  0  0  0
  1  5  1  0  0  0  0
  1 10  3  0  0  0  0
  2  3  1  0  0  0  0
  2  5  2  0  0  0  0
  2 16  1  0  0  0  0
  3  7  2  0  0  0  0
  3 17  1  0  0  0  0
  4  6  2  0  0  0  0
  4  7  1  0  0  0  0
  4 18  1  0  0  0  0
  5  6  1  0  0  0  0
  6 13  1  0  0  0  0
  7 14  1  0  0  0  0
  8  9  1  0  0  0  0
  8 19  1  0  0  0  0
  8 20  1  0  0  0  0
  8 21  1  0  0  0  0
  9 13  1  0  0  0  0
  9 22  1  0  0  0  0
  9 23  1  0  0  0  0
 11 14  2  0  0  0  0
 12 14  2  0  0  0  0
 14 15  1  0  0  0  0
M  END
$$$$
