23
0 1 C9ClH8NO3S
C                     3.791349875244    -2.006552377573    -0.318662134098
C                     1.518401561657    -1.136505724860     0.001502498146
C                     0.513181548869    -0.618884283942     0.817384296693
C                     2.038080861621    -0.767661345449     2.741191382294
C                     2.769764120572    -1.473186448817     0.534800634010
C                     3.041433820791    -1.289812717919     1.915343748091
C                     0.805642542319    -0.453284155021     2.169008601184
C                     6.036284986660    -1.960892501871     3.905901850307
C                     4.606994253144    -1.485135286109     3.729274652586
N                     4.604686474286    -2.437624536140    -1.032382118085
O                     0.162961418510     0.798882340495     4.424823738929
O                    -1.455898403973     0.921765835024     2.452179766990
O                     4.273583553301    -1.635824407757     2.332320943561
S                    -0.460794296205     0.215261568605     3.244992571881
Cl                   -1.386896225169    -1.601099740983     3.898331848598
H                     1.341520930387    -1.282314567892    -1.059201602304
H                    -0.459000459545    -0.349263975932     0.420372227117
H                     2.198168059403    -0.598814920721     3.798428625873
H                     6.134367797446    -3.007943581572     3.607381873047
H                     6.721303176630    -1.360513365066     3.301488875002
H                     6.325161540064    -1.868533959726     4.957303348775
H                     4.499763291329    -0.430683255651     4.010812338303
H                     3.910528711249    -2.083087573892     4.329407965410
