
  -OEChem-05262117483D

 31 32  0     0  0  0  0  0  0999 V2000
    1.6627   -1.9734   -1.4853 C   0  0  0  0  0  0  0  0  0  0  0  0
    1.9967   -1.6227   -0.3729 C   0  0  0  0  0  0  0  0  0  0  0  0
    2.0682    0.2235    2.8677 C   0  0  0  0  0  0  0  0  0  0  0  0
    8.3048   -5.0557    5.1183 C   0  0  0  0  0  0  0  0  0  0  0  0
    1.6798   -0.1735    1.5883 C   0  0  0  0  0  0  0  0  0  0  0  0
    7.2984   -4.6972    4.2211 C   0  0  0  0  0  0  0  0  0  0  0  0
    8.8608   -4.1002    5.9736 C   0  0  0  0  0  0  0  0  0  0  0  0
    3.1457   -0.3915    3.5029 C   0  0  0  0  0  0  0  0  0  0  0  0
    3.4741   -1.8312    1.5752 C   0  0  0  0  0  0  0  0  0  0  0  0
    7.4049   -2.4222    5.0484 C   0  0  0  0  0  0  0  0  0  0  0  0
    2.3859   -1.2037    0.9414 C   0  0  0  0  0  0  0  0  0  0  0  0
    6.8310   -3.3770    4.1931 C   0  0  0  0  0  0  0  0  0  0  0  0
    8.4265   -2.7662    5.9424 C   0  0  0  0  0  0  0  0  0  0  0  0
    3.8556   -1.4226    2.8607 C   0  0  0  0  0  0  0  0  0  0  0  0
    5.7436   -3.0526    3.2079 C   0  0  0  0  0  0  0  0  0  0  0  0
    9.0724   -1.7241    6.8265 C   0  0  0  0  0  0  0  0  0  0  0  0
    4.9397   -1.9879    3.5638 N   0  0  0  0  0  0  0  0  0  0  0  0
    5.5905   -3.7065    2.1784 O   0  0  0  0  0  0  0  0  0  0  0  0
    1.3731   -2.2875   -2.4655 H   0  0  0  0  0  0  0  0  0  0  0  0
    1.5295    1.0178    3.3769 H   0  0  0  0  0  0  0  0  0  0  0  0
    8.6589   -6.0827    5.1520 H   0  0  0  0  0  0  0  0  0  0  0  0
    0.8416    0.3003    1.0874 H   0  0  0  0  0  0  0  0  0  0  0  0
    6.8635   -5.4207    3.5391 H   0  0  0  0  0  0  0  0  0  0  0  0
    9.6476   -4.3897    6.6671 H   0  0  0  0  0  0  0  0  0  0  0  0
    3.4399   -0.0725    4.5012 H   0  0  0  0  0  0  0  0  0  0  0  0
    4.0097   -2.6274    1.0786 H   0  0  0  0  0  0  0  0  0  0  0  0
    7.0943   -1.3804    4.9966 H   0  0  0  0  0  0  0  0  0  0  0  0
   10.0509   -1.4276    6.4307 H   0  0  0  0  0  0  0  0  0  0  0  0
    8.4587   -0.8218    6.8994 H   0  0  0  0  0  0  0  0  0  0  0  0
    9.2328   -2.1065    7.8395 H   0  0  0  0  0  0  0  0  0  0  0  0
    5.0835   -1.6156    4.4928 H   0  0  0  0  0  0  0  0  0  0  0  0
  1  2  3  0  0  0  0
  1 19  1  0  0  0  0
  2 11  1  0  0  0  0
  3  5  2  0  0  0  0
  3  8  1  0  0  0  0
  3 20  1  0  0  0  0
  4  6  2  0  0  0  0
  4  7  1  0  0  0  0
  4 21  1  0  0  0  0
  5 11  1  0  0  0  0
  5 22  1  0  0  0  0
  6 12  1  0  0  0  0
  6 23  1  0  0  0  0
  7 13  2  0  0  0  0
  7 24  1  0  0  0  0
  8 14  2  0  0  0  0
  8 25  1  0  0  0  0
  9 11  2  0  0  0  0
  9 14  1  0  0  0  0
  9 26  1  0  0  0  0
 10 12  2  0  0  0  0
 10 13  1  0  0  0  0
 10 27  1  0  0  0  0
 12 15  1  0  0  0  0
 13 16  1  0  0  0  0
 14 17  1  0  0  0  0
 15 17  1  0  0  0  0
 15 18  2  0  0  0  0
 16 28  1  0  0  0  0
 16 29  1  0  0  0  0
 16 30  1  0  0  0  0
 17 31  1  0  0  0  0
M  END
$$$$
