
  -OEChem-05262117483D

 39 39  0     1  0  0  0  0  0999 V2000
    9.6102   -1.5341   -0.9402 C   0  0  0  0  0  0  0  0  0  0  0  0
    7.9699   -2.2736    0.6081 C   0  0  0  0  0  0  0  0  0  0  0  0
   11.3622   -1.5830   -2.6404 C   0  0  0  0  0  0  0  0  0  0  0  0
    7.5405   -3.0563    8.3403 C   0  0  0  0  0  0  0  0  0  0  0  0
   10.0060    0.4439   -2.3120 C   0  0  0  0  0  0  0  0  0  0  0  0
   13.0714   -3.2895   -2.8091 C   0  0  0  0  0  0  0  0  0  0  0  0
   12.5723   -2.3380   -0.5840 C   0  0  0  0  0  0  0  0  0  0  0  0
    6.7151   -2.9670    7.0521 C   0  0  0  0  0  0  0  0  0  0  0  0
    7.5848   -2.8673    5.7930 C   0  0  0  0  0  0  0  0  0  0  0  0
    6.7566   -2.7682    4.5049 C   0  0  0  0  0  0  0  0  0  0  0  0
    7.6423   -2.6639    3.2662 C   0  0  0  0  0  0  0  0  0  0  0  0
    9.6682   -2.8308   -0.7152 N   0  0  0  0  0  0  0  0  0  0  0  0
    8.7146   -3.2411    0.1823 N   0  0  0  0  0  0  0  0  0  0  0  0
   10.4630   -0.8476   -1.7773 N   0  0  0  0  0  0  0  0  0  0  0  0
   12.2942   -2.3451   -2.0134 N   0  0  0  0  0  0  0  0  0  0  0  0
   11.2786   -1.4396   -3.8566 O   0  0  0  0  0  0  0  0  0  0  0  0
    5.9643   -1.0754    1.8525 O   0  0  0  0  0  0  0  0  0  0  0  0
    8.3328   -0.6917   -0.0572 S   0  0  0  0  0  0  0  0  0  0  0  0
    6.5831   -2.4597    1.7640 S   0  0  1  0  0  0  0  0  0  0  0  0
    8.1922   -3.9377    8.3326 H   0  0  0  0  0  0  0  0  0  0  0  0
    8.1785   -2.1735    8.4629 H   0  0  0  0  0  0  0  0  0  0  0  0
    6.8954   -3.1264    9.2224 H   0  0  0  0  0  0  0  0  0  0  0  0
    9.8481    1.1423   -1.4849 H   0  0  0  0  0  0  0  0  0  0  0  0
    9.0819    0.3406   -2.8899 H   0  0  0  0  0  0  0  0  0  0  0  0
   10.7810    0.8389   -2.9656 H   0  0  0  0  0  0  0  0  0  0  0  0
   14.1336   -3.0171   -2.7977 H   0  0  0  0  0  0  0  0  0  0  0  0
   12.7123   -3.2757   -3.8362 H   0  0  0  0  0  0  0  0  0  0  0  0
   12.9603   -4.2975   -2.3933 H   0  0  0  0  0  0  0  0  0  0  0  0
   12.1404   -3.2165   -0.0944 H   0  0  0  0  0  0  0  0  0  0  0  0
   12.1660   -1.4396   -0.1211 H   0  0  0  0  0  0  0  0  0  0  0  0
   13.6584   -2.3389   -0.4408 H   0  0  0  0  0  0  0  0  0  0  0  0
    6.0505   -2.0950    7.1006 H   0  0  0  0  0  0  0  0  0  0  0  0
    6.0623   -3.8459    6.9721 H   0  0  0  0  0  0  0  0  0  0  0  0
    8.2488   -3.7407    5.7386 H   0  0  0  0  0  0  0  0  0  0  0  0
    8.2381   -1.9879    5.8723 H   0  0  0  0  0  0  0  0  0  0  0  0
    6.1050   -1.8888    4.5528 H   0  0  0  0  0  0  0  0  0  0  0  0
    6.1042   -3.6464    4.4193 H   0  0  0  0  0  0  0  0  0  0  0  0
    8.2453   -3.5620    3.0978 H   0  0  0  0  0  0  0  0  0  0  0  0
    8.2944   -1.7856    3.3036 H   0  0  0  0  0  0  0  0  0  0  0  0
  1 12  2  0  0  0  0
  1 14  1  0  0  0  0
  1 18  1  0  0  0  0
  2 13  2  0  0  0  0
  2 18  1  0  0  0  0
  2 19  1  0  0  0  0
  3 14  1  0  0  0  0
  3 15  1  0  0  0  0
  3 16  2  0  0  0  0
  4  8  1  0  0  0  0
  4 20  1  0  0  0  0
  4 21  1  0  0  0  0
  4 22  1  0  0  0  0
  5 14  1  0  0  0  0
  5 23  1  0  0  0  0
  5 24  1  0  0  0  0
  5 25  1  0  0  0  0
  6 15  1  0  0  0  0
  6 26  1  0  0  0  0
  6 27  1  0  0  0  0
  6 28  1  0  0  0  0
  7 15  1  0  0  0  0
  7 29  1  0  0  0  0
  7 30  1  0  0  0  0
  7 31  1  0  0  0  0
  8  9  1  0  0  0  0
  8 32  1  0  0  0  0
  8 33  1  0  0  0  0
  9 10  1  0  0  0  0
  9 34  1  0  0  0  0
  9 35  1  0  0  0  0
 10 11  1  0  0  0  0
 10 36  1  0  0  0  0
 10 37  1  0  0  0  0
 11 19  1  0  0  0  0
 11 38  1  0  0  0  0
 11 39  1  0  0  0  0
 12 13  1  0  0  0  0
 17 19  2  0  0  0  0
M  END
$$$$
