38
0 1 C11F3H20NO2S
C                    -0.580191147929    -1.249808889332     0.100796849572
C                    -0.394397870654    -2.676959863046    -0.481652286931
C                     0.842571184549    -0.664483246055     0.122511049025
C                     1.134882965901    -2.861367849635    -0.630093320910
C                     1.616153356222    -4.274519090984    -0.302223640932
C                     3.131600431553    -4.446930302117    -0.464809692879
C                     7.158185716844    -8.114789510191    -0.146531810229
C                     7.442068059779    -9.578093421138     0.213296130360
C                     3.562032179858    -5.883838906713    -0.168048721834
C                     5.669616261142    -7.805766153773     0.018845873759
C                     8.901523884010    -9.948477679772     0.054175067287
N                     1.682186162945    -1.857938731280     0.298915785939
O                     6.043860084346    -5.224769746784     0.593846407097
O                     5.649853286234    -5.889671783684    -1.841916155526
F                     9.114798281061   -11.247743688176     0.384729654846
F                     9.331669807829    -9.785814452621    -1.222323975354
F                     9.707549386584    -9.197686620218     0.846035533119
S                     5.355871897865    -6.061461719605    -0.406729440656
H                    -1.264115576230    -0.635746140044    -0.491333329995
H                    -0.978309049705    -1.303034147027     1.117566319029
H                    -0.802218458843    -3.429520115477     0.200189141116
H                    -0.896032566407    -2.804923432339    -1.444864916253
H                     1.047853301769    -0.141029732515    -0.828088128178
H                     1.001634699600     0.045298357707     0.940258154906
H                     1.416070891940    -2.630675203686    -1.675073534390
H                     1.323455545387    -4.505637063115     0.729376353235
H                     1.093584240679    -4.983509786487    -0.958229722077
H                     3.659231396997    -3.774755110755     0.218116844789
H                     3.429574218555    -4.186511671411    -1.486208012984
H                     7.740253554708    -7.451740339669     0.498662503156
H                     7.456096018457    -7.918948591757    -1.179766543927
H                     7.171706035824    -9.788736294006     1.252476805033
H                     6.870551184688   -10.259722940171    -0.424030535010
H                     3.351420798326    -6.161429390822     0.869162794477
H                     3.085044362493    -6.598489432948    -0.845651816140
H                     5.051344573906    -8.410914177391    -0.651001885102
H                     5.336808230641    -7.943162476183     1.052011840879
H                     2.657885046058    -1.653067816503     0.095357648694
