27   
torsion grid (-90,)
C       -2.1620949591    1.7181668742    1.0160072320
C       -0.0188666387    2.2881832249    4.0178475482
C       -1.5225230848    2.4061603207    4.1579220259
C       -0.6948879958   -0.3542099889   -1.8477325910
C        0.9721010972    1.5250668185   -1.3341623085
C       -0.8615525753    2.7206810610    2.8406491542
C        0.9246081940    0.0206391971   -2.0264337083
C       -2.1052618665    0.7532381708   -0.1691299155
N       -0.7464863934    0.5190042603   -0.6812606508
N       -1.0143659466    1.7950261704    1.7531533355
O       -3.1972316616    2.3179152000    1.2885116458
O       -0.4211155147    1.7017020809   -1.5288535207
O        1.7662186203   -0.9498396174   -1.4425871735
H        0.6120035408    3.0355779352    4.4893448081
H        0.4046549813    1.2879964230    3.9892743496
H       -2.1000804119    1.4893675714    4.2051761326
H       -1.9318069962    3.2372581971    4.7230343169
H       -1.3582377972   -0.0515253341   -2.6600910112
H       -0.7954537855   -1.4151706186   -1.5981887371
H        1.2993110308    1.5515373315   -0.2932036460
H        1.5203871774    2.2427687552   -1.9507196150
H       -0.8218631468    3.7681326061    2.5488372125
H        1.2210065834    0.0899480341   -3.0750832788
H       -2.4880809799   -0.2164710296    0.1699303807
H       -2.7799462680    1.1339441844   -0.9431523468
H       -0.1922862234    1.3527240088    1.3609865977
H        1.5322548601   -1.0040631044   -0.5009559360
27   
torsion grid (-75,)
C       -2.1782160465    1.7589594678    1.0499518069
C       -0.0498646384    2.3493474108    4.0557312072
C       -1.5566524960    2.4066172176    4.2007589264
C       -0.6243394660   -0.3193877313   -1.7781754217
C        1.0564083245    1.4422160192   -1.4720916182
C       -0.9115876141    2.7724766195    2.8889563818
C        0.9106844250   -0.0260955698   -2.0711398002
C       -2.0876422921    0.8337038996   -0.1655786761
N       -0.7190435491    0.5878749809   -0.6234558088
N       -1.0323457636    1.8630865778    1.7841937065
O       -3.2382109966    2.3063455499    1.3385495633
O       -0.3261881612    1.7828843157   -1.3977430509
O        1.7798994599   -0.9729951209   -1.4689014840
H        0.5527663326    3.1109451422    4.5412799688
H        0.4116752949    1.3670434701    4.0056768428
H       -2.0986297626    1.4676410579    4.2303644281
H       -1.9961493304    3.2098889772    4.7831922035
H       -1.3013056955   -0.0271108492   -2.5870303978
H       -0.7685050973   -1.3657485205   -1.4953565662
H        1.5444072031    1.4421648372   -0.4918581256
H        1.5470785426    2.1421890640   -2.1519544103
H       -0.9128181046    3.8263973930    2.6181013711
H        1.1414763340   -0.0516107539   -3.1373199958
H       -2.5114923142   -0.1345476080    0.1223599107
H       -2.7168750915    1.2574037095   -0.9568941793
H       -0.1943891102    1.4746635623    1.3674984725
H        1.5984160717   -0.9650353696   -0.5141045398
27   
torsion grid (-60,)
C       -2.1846866032    1.7652743406    1.0794140445
C       -0.1084888848    2.2827482681    4.1343800008
C       -1.6174339069    2.3422122287    4.2548365140
C       -0.5862971121   -0.3424214236   -1.6997347482
C        1.0630043491    1.4128124462   -1.6545939001
C       -0.9487886556    2.7324274033    2.9619855039
C        0.8761711540   -0.0654628247   -2.1324761433
C       -2.0743658656    0.8690538157   -0.1568646885
N       -0.7032433389    0.6039901680   -0.5790512738
N       -1.0534253420    1.8458320828    1.8374214883
O       -3.2492633812    2.3092766572    1.3583937987
O       -0.2495187867    1.8181658515   -1.2711632536
O        1.8190465135   -0.9556248473   -1.5459596079
H        0.4879628469    3.0322123840    4.6457911343
H        0.3508348332    1.3001763255    4.0715660097
H       -2.1626524262    1.4046391031    4.2559926762
H       -2.0643147530    3.1348859129    4.8461431668
H       -1.3054357173   -0.1061804921   -2.4957739571
H       -0.7142542466   -1.3731891066   -1.3611270625
H        1.7550101548    1.4449943689   -0.8026520878
H        1.4005978297    2.0954171171   -2.4364800581
H       -0.9420892403    3.7917449484    2.7128526091
H        1.0089387474   -0.1758869053   -3.2094505115
H       -2.5283051050   -0.0951887988    0.0947860156
H       -2.6690949826    1.3258446694   -0.9576837488
H       -0.2090195001    1.4717374822    1.4194033748
H        1.7213352222   -0.8890783471   -0.5811707819
27   
torsion grid (-45,)
C       -2.1610035788    1.8114673464    1.0997012435
C       -0.1417923563    2.2360046268    4.2070664118
C       -1.6522373099    2.3073774349    4.3000200720
C       -0.5670295370   -0.3169651527   -1.6649630587
C        1.0475397590    1.4245372669   -1.8389232351
C       -0.9550608026    2.7181595157    3.0287690914
C        0.8837687364   -0.0944346472   -2.0975806423
C       -2.0423769868    0.9421684317   -0.1549830031
N       -0.6733560926    0.6216465202   -0.5386283897
N       -1.0463138353    1.8562030089    1.8839092883
O       -3.2225795145    2.3676861846    1.3667369653
O       -0.1320378211    1.8526028999   -1.1399322108
O        1.8025735180   -0.8795784996   -1.3424766191
H        0.4515411617    2.9689376965    4.7453494605
H        0.3097075138    1.2506670772    4.1323053562
H       -2.2057446811    1.3750939329    4.2709743075
H       -2.1032564118    3.0916522036    4.8993507394
H       -1.2722598516   -0.0594031370   -2.4702558890
H       -0.7390977619   -1.3407147183   -1.3259175529
H        1.9464935900    1.5991123048   -1.2352141184
H        1.1031751278    2.0169543240   -2.7555802980
H       -0.9339201571    3.7823174024    2.8021252544
H        1.0564235490   -0.3647789967   -3.1399134722
H       -2.5486598852   -0.0051471215    0.0577820662
H       -2.5855942161    1.4458484768   -0.9647404486
H       -0.1962523643    1.4869422728    1.4734641557
H        1.6112834124   -0.7180438169   -0.4026039804
27   
torsion grid (-30,)
C       -2.1212598090    1.8579788535    1.0712929735
C       -0.1932452566    2.2451293724    4.2412435231
C       -1.7045592409    2.3400892650    4.2887336111
C       -0.5291223191   -0.3488042691   -1.6305566603
C        1.0417417442    1.3736418654   -1.9589370227
C       -0.9630339473    2.7379221308    3.0386414267
C        0.9278786362   -0.1564148402   -2.0424556014
C       -1.9883190794    0.9874096330   -0.1809879672
N       -0.6248263937    0.5851809186   -0.5018062656
N       -1.0330129291    1.8749224675    1.8926659540
O       -3.1763868791    2.4420988670    1.3029366832
O        0.0419226728    1.8066006836   -1.0138249211
O        1.8217388507   -0.8272739890   -1.1598062970
H        0.3950366563    2.9696830479    4.7961387091
H        0.2449816107    1.2528447208    4.1811231075
H       -2.2711645630    1.4162896855    4.2442183827
H       -2.1612135933    3.1322057044    4.8733232482
H       -1.2146876889   -0.0800532035   -2.4500942002
H       -0.7336206931   -1.3657417682   -1.2892492289
H        2.0351907391    1.6716138796   -1.6103370002
H        0.8295901342    1.8509165920   -2.9218127038
H       -0.9186980095    3.8011398812    2.8110704077
H        1.1448040279   -0.5356746760   -3.0421164171
H       -2.5586141954    0.0708515050    0.0041218618
H       -2.4629376857    1.5241414410   -1.0125671727
H       -0.1743123596    1.4979113703    1.5086637273
H        1.5392728294   -0.6108114739   -0.2540904068
27   
torsion grid (-15,)
C       -2.0874467082    1.9639725514    0.9485710791
C       -0.3746879934    2.2442865042    4.2518668985
C       -1.8732589830    2.4578811911    4.1872714217
C       -0.4657288684   -0.3888011390   -1.6026307036
C        0.9975431861    1.3650413757   -2.1076100639
C       -1.0135128706    2.7781051441    2.9915770512
C        0.9618943483   -0.1648114591   -2.0959655670
C       -1.9285738875    1.0595313220   -0.2762554600
N       -0.5675037856    0.5908570639   -0.5102414350
N       -1.0672476730    1.9069313492    1.8511254159
O       -3.1060035213    2.6353880400    1.0904162948
O        0.1988353841    1.7763464953   -0.9836852626
O        1.9299208869   -0.7382726318   -1.2247358963
H        0.2272303294    2.9285531091    4.8421583513
H       -0.0131041158    1.2199743280    4.2330281951
H       -2.5063134050    1.5805715811    4.1095212663
H       -2.3069964008    3.2916842056    4.7298659364
H       -1.1910693987   -0.1952432657   -2.4084026562
H       -0.6145521535   -1.3949697760   -1.2052380815
H        2.0106661324    1.7511610785   -1.9712008951
H        0.5692607492    1.7635946316   -3.0362991032
H       -0.8687122371    3.8311020695    2.7584939478
H        1.1425245230   -0.5944147381   -3.0826922333
H       -2.5479973659    0.1722989091   -0.1028488030
H       -2.3350194722    1.5966744648   -1.1428478661
H       -0.2183811953    1.4485566417    1.5400868733
H        1.7130277326   -0.4466328579   -0.3226886541
27   
torsion grid (0,)
C       -2.0305253647    1.9884855638    0.9142616947
C       -0.5189221320    2.1469898655    4.3213420241
C       -1.9849125963    2.4919648602    4.1562721255
C       -0.4249289403   -0.4931949013   -1.5211484835
C        0.8920638485    1.3169436758   -2.1801309801
C       -1.0223104258    2.7268252900    3.0205480165
C        0.9319613971   -0.2093753453   -2.1670773002
C       -1.8657271668    1.0581101161   -0.2900268894
N       -0.5160679460    0.5264596052   -0.4554895169
N       -1.0769872695    1.8568452501    1.8794796993
O       -2.9982125471    2.7414391801    0.9868036986
O        0.3318263909    1.6634731285   -0.9050287060
O        2.0209571369   -0.7258803334   -1.4114532546
H        0.1005505917    2.7793464139    4.9501492486
H       -0.2489158316    1.0946925018    4.3272336662
H       -2.6868109731    1.6737108819    4.0368879264
H       -2.3781529871    3.3644340491    4.6680806394
H       -1.2276610715   -0.3871912920   -2.2657872759
H       -0.4669742552   -1.4903513541   -1.0781866814
H        1.8854753353    1.7668275551   -2.2350170922
H        0.2660050593    1.6912564879   -3.0021137262
H       -0.7690312000    3.7613246619    2.7973545419
H        1.0171460690   -0.6423760214   -3.1652922238
H       -2.5308373555    0.2015211119   -0.1295677383
H       -2.2155878747    1.5982427926   -1.1793997342
H       -0.2552383668    1.3198557857    1.6251468393
H        1.9697761543   -0.3344359701   -0.5230328600
27   
torsion grid (15,)
C       -1.9369435394    2.0519601427    0.9056641526
C       -0.6141592500    2.1336177956    4.3918357365
C       -2.0400473794    2.5801949999    4.1409771260
C       -0.3591732637   -0.5530697417   -1.4270803180
C        0.8118108859    1.3349372991   -2.1646305700
C       -0.9996193864    2.7365827674    3.0617124683
C        0.8860373508   -0.1863411768   -2.2451872749
C       -1.7707462287    1.1003844324   -0.2819455385
N       -0.4440766303    0.4935573084   -0.3750003667
N       -1.0500432699    1.8635149996    1.9229430927
O       -2.8528211508    2.8706133746    0.9196691767
O        0.4879368272    1.5640608076   -0.7863986215
O        2.0892169330   -0.6977606079   -1.6839521966
H        0.0117521315    2.7257257656    5.0526422858
H       -0.4204032528    1.0649669139    4.4176097518
H       -2.7905523128    1.8128608288    3.9848019978
H       -2.3987376419    3.4827040550    4.6253755411
H       -1.2469874434   -0.5447832816   -2.0728694583
H       -0.2565987438   -1.5375871407   -0.9662170012
H        1.7678651710    1.8249858874   -2.3571229185
H        0.0395273892    1.7407436642   -2.8335165757
H       -0.6611009993    3.7487484692    2.8492549833
H        0.8352141502   -0.5705551961   -3.2656271546
H       -2.4897170053    0.2844298879   -0.1446737367
H       -2.0545175344    1.6495386331   -1.1896168443
H       -0.2572719208    1.2644967002    1.7189563695
H        2.2008431349   -0.2807983405   -0.8124106818
27   
torsion grid (30,)
C       -1.8854259419    2.0418756390    0.9097756267
C       -0.7591849055    2.0814893105    4.4635364333
C       -2.1396805206    2.6076795593    4.1276424953
C       -0.2836456102   -0.6546645111   -1.3172558004
C        0.7233371236    1.3469430177   -2.0770179589
C       -1.0314596881    2.6937514603    3.1098431888
C        0.7738709543   -0.1571687696   -2.3277571447
C       -1.7081959849    1.0712691076   -0.2616208314
N       -0.4017916299    0.4111310891   -0.2832759799
N       -1.0672649506    1.8147173677    1.9751171134
O       -2.7554042196    2.9085546238    0.8684355357
O        0.5989484110    1.4135952739   -0.6463134173
O        2.0674399255   -0.6980190368   -2.0770571657
H       -0.1389358735    2.6423481491    5.1561697850
H       -0.6297100802    1.0037303525    4.5061906248
H       -2.9235472514    1.8838921641    3.9324004256
H       -2.4724119845    3.5338637912    4.5851292911
H       -1.2479040366   -0.8199183147   -1.8085666880
H        0.0454600848   -1.5903957402   -0.8599362406
H        1.6482872878    1.8586476912   -2.3471735667
H       -0.1296379707    1.8246775993   -2.5773290025
H       -0.6224226221    3.6825780764    2.9118088996
H        0.5272660343   -0.4350101684   -3.3540193918
H       -2.4638542365    0.2865921748   -0.1457564862
H       -1.9407835139    1.6228598889   -1.1818670811
H       -0.2962503415    1.1747952204    1.8158270523
H        2.3486357204   -0.3796214173   -1.2020675692
27   
torsion grid (45,)
C       -1.8404224682    2.1096045963    0.8885568165
C       -0.9709746906    2.2034287688    4.5124762870
C       -2.3108260510    2.7541532500    4.0685147739
C       -0.1060965699   -0.6384191993   -1.1540688519
C        0.7624459548    1.4838019395   -1.8850621855
C       -1.1317453260    2.7902878565    3.1302133946
C        0.4860769863    0.0629114497   -2.4156124046
C       -1.6162436550    1.0979667223   -0.2398712247
N       -0.3225624665    0.4144765580   -0.1551195414
N       -1.1097157158    1.8856609971    2.0154348711
O       -2.6721005346    3.0050923906    0.7598582412
O        0.7510242203    1.3416477318   -0.4484764689
O        1.6371262737   -0.6047606818   -2.9248621668
H       -0.3869229991    2.7652580443    5.2350982487
H       -0.8720885253    1.1241852358    4.5874043086
H       -3.0969413193    2.0444862978    3.8341403934
H       -2.6515868794    3.6982099818    4.4813897982
H       -1.0341159408   -1.1778714704   -1.3528850216
H        0.6309359298   -1.3479726378   -0.7656810214
H        1.7533701606    1.8437272804   -2.1675770445
H        0.0096119696    2.2093018315   -2.2122106551
H       -0.6849009772    3.7641204533    2.9400993960
H       -0.2176183281    0.0756657529   -3.2496295242
H       -2.3876698423    0.3271406696   -0.1399826813
H       -1.7987974840    1.6231498992   -1.1850573847
H       -0.3506679624    1.2178257309    1.9302713609
H        2.3029457821   -0.6372747425   -2.2178146629
27   
torsion grid (60,)
C       -1.7845565580    2.0207827465    0.8505732859
C       -1.0244096877    2.1647846346    4.4996679018
C       -2.3093917585    2.7922645504    3.9991865108
C       -0.0225786210   -0.7618792642   -1.1361742694
C        0.7387397683    1.4849273036   -1.7039085541
C       -1.1051146046    2.7156454583    3.0959349724
C        0.4403529426    0.1018845098   -2.3790188744
C       -1.5876663182    0.9651442373   -0.2436056230
N       -0.3177243897    0.2549123937   -0.1302340994
N       -1.1163532755    1.7742913721    2.0111958071
O       -2.5422281913    2.9699983370    0.6652947393
O        0.8532010106    1.0857208790   -0.3261004183
O        1.5564667495   -0.4566149710   -3.0622197746
H       -0.4224763521    2.7083729124    5.2215419828
H       -1.0034819884    1.0843662859    4.6106414324
H       -3.1365839368    2.1313344012    3.7636271861
H       -2.5942011247    3.7707045979    4.3724711156
H       -0.8926319466   -1.3867137384   -1.3509241342
H        0.7999064783   -1.3854933552   -0.7787722253
H        1.7040770388    1.8844261886   -2.0200322198
H       -0.0351519880    2.2422142198   -1.8484164414
H       -0.5855079448    3.6490310882    2.8885620231
H       -0.3437501664    0.1727153928   -3.1358975780
H       -2.3614952029    0.2021397994   -0.1062622923
H       -1.7881355528    1.4549863459   -1.2030397259
H       -0.3921857406    1.0648166911    1.9635168875
H        2.2799688018   -0.5553124370   -2.4212624509
27   
torsion grid (75,)
C       -1.7752660424    1.9876825374    0.8212390458
C       -0.9952009789    2.1620136405    4.4639294956
C       -2.2720188879    2.8050371102    3.9624868488
C       -0.0013486134   -0.8550187290   -1.1004819439
C        0.7174259020    1.4985284279   -1.5025131323
C       -1.0721858171    2.7016071330    3.0557732796
C        0.4128814856    0.1382596115   -2.3150214050
C       -1.5987577984    0.9091119591   -0.2557865415
N       -0.3607243880    0.1612908431   -0.1206371320
N       -1.1010135765    1.7513352255    1.9791173809
O       -2.5161011884    2.9469483302    0.6201821493
O        0.9181338749    0.8551134570   -0.2402279536
O        1.5228241496   -0.3109630872   -3.0757333148
H       -0.3819671064    2.7023326879    5.1786670873
H       -0.9907322785    1.0824288993    4.5844137165
H       -3.1103667409    2.1551257059    3.7358480072
H       -2.5401205684    3.7911667323    4.3277782954
H       -0.8424942316   -1.5013421320   -1.3690467339
H        0.8372267964   -1.4477079049   -0.7370513067
H        1.6655379304    1.9334998711   -1.8264347746
H       -0.0558588245    2.2660196376   -1.4877477440
H       -0.5388204387    3.6247947455    2.8382989195
H       -0.4038800278    0.2361099018   -3.0344362565
H       -2.3821644943    0.1594142537   -0.0982864170
H       -1.8047187865    1.3816161849   -1.2227474812
H       -0.3989470801    1.0192221212    1.9429819965
H        2.2651963808   -0.4482555004   -2.4643266700
27   
torsion grid (90,)
C       -1.7921102610    1.9876467227    0.7804590412
C       -0.9638529337    2.2183093061    4.4029703447
C       -2.2710754126    2.8066778929    3.9131448681
C       -0.0326699352   -0.9457379384   -1.0221768509
C        0.7379329741    1.5348229306   -1.2971455742
C       -1.0766478606    2.7509964275    2.9946740344
C        0.3900824675    0.1582197632   -2.2505044158
C       -1.6032455069    0.9031994409   -0.2897310688
N       -0.4007407633    0.1140005301   -0.1140581892
N       -1.0744518757    1.7991625264    1.9193813226
O       -2.5704051474    2.9177416482    0.5829825471
O        0.9638017464    0.6743464002   -0.2029409420
O        1.4951196694   -0.2135306247   -3.0415027514
H       -0.3662298577    2.7849204226    5.1105047128
H       -0.9133801596    1.1400868152    4.5255058364
H       -3.0840492659    2.1221838106    3.6960432181
H       -2.5763296302    3.7817007257    4.2790685598
H       -0.8755234040   -1.5701789799   -1.3376133853
H        0.7930324452   -1.5422386507   -0.6424828146
H        1.6867353195    1.9634186616   -1.6287519226
H       -0.0056220686    2.3152020343   -1.1473684365
H       -0.5841839223    3.6949886473    2.7707892638
H       -0.4426403058    0.2772762216   -2.9495689745
H       -2.4045342861    0.1695865849   -0.1446305083
H       -1.7778526924    1.3708952346   -1.2650368896
H       -0.3743862724    1.0645059688    1.8961346736
H        2.2398487924   -0.3922512527   -2.4439662752
