20
0 1 C10F3H4NOS
C                     1.925205468130    -1.270015722209    -0.046835321165
C                     0.681577389786    -0.995332717615     0.516335455628
C                     7.171441023877    -3.748684317038     1.057290563476
C                     6.316222503993    -4.528492782480     1.802638807872
C                     3.087499892920    -1.330107308217     0.738474290639
C                     0.601321776046    -0.749469894563     1.884560424933
C                     2.974776680212    -1.062236047307     2.106039889265
C                     1.741203857889    -0.771278308727     2.687255937031
C                     5.314303302849    -2.618169391504     0.672390386566
C                     4.397543738242    -1.615502759301     0.057204627985
N                     6.597406339492    -2.686013471275     0.418381462451
O                     4.665345036633    -1.088460127788    -1.010852506226
F                    -0.581793914572    -0.472696639987     2.459013646157
F                     4.061007823629    -1.032013498531     2.899909916138
F                     1.657506173939    -0.500955459760     3.997843533104
S                     4.717681154903    -3.898045992361     1.722156108315
H                     2.016968982252    -1.447339756356    -1.113322042627
H                    -0.223676444065    -0.963169559588    -0.081058888871
H                     8.236398465534    -3.925632243774     0.951182700914
H                     6.544097625260    -5.420402037104     2.372176904161
