50
0 1 C17H28N2O3
C                    -0.169779745159    -0.227905903505    -3.127012348717
C                    -3.652922874381     1.332444181238    -4.397115718547
C                     1.661660347337     3.725928141198    -3.567307452220
C                     2.509425004034     2.530268611724    -4.021586359853
C                     0.935461560374     3.421870647226    -2.250419546361
C                     1.655003139274     1.260787432582    -4.167573334518
C                     0.062143618812     2.163860458356    -2.365879705937
C                    -4.342702643227    -1.383037904166    -5.638602692979
C                    -4.878050890981    -0.794756573329    -6.953963361657
C                    -2.099905841667    -1.262333831270    -4.208810876271
C                    -1.337167802233     0.845621944086    -5.175978501980
C                    -3.317502899253     1.079083790253    -6.891264868789
C                    -2.914556779314    -0.890966742386    -5.446001312760
C                     0.840759297655     0.921911237047    -2.889719375964
C                    -2.828525656703     0.645270546654    -5.505926467244
C                     1.813952785973     0.440645852741    -1.794569564507
C                    -5.314084583324     1.203865856196    -8.245567243891
N                    -1.094314261808    -0.172650309272    -4.143905725018
N                    -4.713403884302     0.666655566131    -7.030299285713
O                    -0.187210932438    -1.208816906972    -2.377679093002
O                    -4.183948511631     0.775841149809    -3.466683691222
O                    -3.694169729653     2.698276486369    -4.462484831212
H                     0.919588228468     3.960576312711    -4.344974406284
H                     2.290236453683     4.617361480297    -3.457964454197
H                     2.992028751590     2.749913249329    -4.981471422331
H                     3.319266858567     2.364510391112    -3.302005584798
H                     1.673425258506     3.297846707014    -1.449325694927
H                     0.304729305608     4.269879339285    -1.959253005037
H                     0.997123098747     1.407093215349    -5.026010045609
H                     2.291814147910     0.403335446196    -4.415726669376
H                    -0.375133999816     1.913565522159    -1.393238758004
H                    -0.785050516059     2.396634273606    -3.018007653685
H                    -4.969822956607    -1.076853964490    -4.799962586008
H                    -4.371432690014    -2.476589944411    -5.702034006324
H                    -4.366009131615    -1.284324816863    -7.806817015045
H                    -5.945700283568    -1.013306115740    -7.052371478841
H                    -2.695687656202    -1.269303380890    -3.294393328288
H                    -1.604470647441    -2.231445717553    -4.303813970942
H                    -0.738899923745     0.656949731115    -6.078746044333
H                    -1.106043326513     1.849864831155    -4.825027450891
H                    -3.262927350653     2.164098741562    -7.052564395685
H                    -2.660628041422     0.625463269030    -7.659508711345
H                    -2.337053216603    -1.233979383883    -6.317588511461
H                     2.553234590452     1.210515809240    -1.563127725339
H                     2.345187300052    -0.458660489646    -2.116621179183
H                     1.275760131334     0.190296469502    -0.878840884733
H                    -5.241848650211     2.296325531801    -8.243944548433
H                    -6.374443803110     0.937468618407    -8.279416328760
H                    -4.834877296194     0.825966884287    -9.168328847548
H                    -3.281157113970     3.007198812274    -5.285403538346
