18
0 1 BrC7H7N2O
C                     1.414561784371    -1.890282598032     0.169942879909
C                     2.494784411608    -1.584019652199     2.313539121411
C                     0.200740385016    -1.459486648803     0.708563993460
C                     1.284406638243    -1.165410119663     2.866048538482
C                     2.574419633862    -1.955273513036     0.960530833303
C                     0.147755447860    -1.103994093057     2.056727182654
C                     3.834469007113    -2.458695774698     0.357040319711
N                     5.047188209714    -2.077625994110     0.592124088737
N                     3.677560576836    -3.428035328892    -0.648606024697
O                     5.119277454904    -0.964619325225     1.470228708050
Br                   -1.515239537320    -0.521221809198     2.812014406962
H                     1.469789268711    -2.164660606049    -0.878772171072
H                     3.380736067483    -1.623733179461     2.935409039051
H                    -0.687801704432    -1.401111216240     0.088427570402
H                     1.226800105459    -0.887606213093     3.913413330309
H                     3.068187470073    -4.193892476393    -0.374698195924
H                     4.577919796661    -3.770272424145    -0.975175780857
H                     6.071163882132    -0.776872886617     1.468757785908
