
  -OEChem-05262117483D

 50 52  0     1  0  0  0  0  0999 V2000
   -0.1698   -0.2279   -3.1270 C   0  0  0  0  0  0  0  0  0  0  0  0
   -3.6529    1.3324   -4.3971 C   0  0  0  0  0  0  0  0  0  0  0  0
    1.6617    3.7259   -3.5673 C   0  0  0  0  0  0  0  0  0  0  0  0
    2.5094    2.5303   -4.0216 C   0  0  0  0  0  0  0  0  0  0  0  0
    0.9355    3.4219   -2.2504 C   0  0  0  0  0  0  0  0  0  0  0  0
    1.6550    1.2608   -4.1676 C   0  0  0  0  0  0  0  0  0  0  0  0
    0.0621    2.1639   -2.3659 C   0  0  0  0  0  0  0  0  0  0  0  0
   -4.3427   -1.3830   -5.6386 C   0  0  0  0  0  0  0  0  0  0  0  0
   -4.8781   -0.7948   -6.9540 C   0  0  0  0  0  0  0  0  0  0  0  0
   -2.0999   -1.2623   -4.2088 C   0  0  0  0  0  0  0  0  0  0  0  0
   -1.3372    0.8456   -5.1760 C   0  0  0  0  0  0  0  0  0  0  0  0
   -3.3175    1.0791   -6.8913 C   0  0  0  0  0  0  0  0  0  0  0  0
   -2.9146   -0.8910   -5.4460 C   0  0  2  0  0  0  0  0  0  0  0  0
    0.8408    0.9219   -2.8897 C   0  0  0  0  0  0  0  0  0  0  0  0
   -2.8285    0.6453   -5.5059 C   0  0  2  0  0  0  0  0  0  0  0  0
    1.8140    0.4406   -1.7946 C   0  0  0  0  0  0  0  0  0  0  0  0
   -5.3141    1.2039   -8.2456 C   0  0  0  0  0  0  0  0  0  0  0  0
   -1.0943   -0.1727   -4.1439 N   0  0  0  0  0  0  0  0  0  0  0  0
   -4.7134    0.6667   -7.0303 N   0  0  1  0  0  0  0  0  0  0  0  0
   -0.1872   -1.2088   -2.3777 O   0  0  0  0  0  0  0  0  0  0  0  0
   -4.1839    0.7758   -3.4667 O   0  0  0  0  0  0  0  0  0  0  0  0
   -3.6942    2.6983   -4.4625 O   0  0  0  0  0  0  0  0  0  0  0  0
    0.9196    3.9606   -4.3450 H   0  0  0  0  0  0  0  0  0  0  0  0
    2.2902    4.6174   -3.4580 H   0  0  0  0  0  0  0  0  0  0  0  0
    2.9920    2.7499   -4.9815 H   0  0  0  0  0  0  0  0  0  0  0  0
    3.3193    2.3645   -3.3020 H   0  0  0  0  0  0  0  0  0  0  0  0
    1.6734    3.2978   -1.4493 H   0  0  0  0  0  0  0  0  0  0  0  0
    0.3047    4.2699   -1.9593 H   0  0  0  0  0  0  0  0  0  0  0  0
    0.9971    1.4071   -5.0260 H   0  0  0  0  0  0  0  0  0  0  0  0
    2.2918    0.4033   -4.4157 H   0  0  0  0  0  0  0  0  0  0  0  0
   -0.3751    1.9136   -1.3932 H   0  0  0  0  0  0  0  0  0  0  0  0
   -0.7851    2.3966   -3.0180 H   0  0  0  0  0  0  0  0  0  0  0  0
   -4.9698   -1.0769   -4.8000 H   0  0  0  0  0  0  0  0  0  0  0  0
   -4.3714   -2.4766   -5.7020 H   0  0  0  0  0  0  0  0  0  0  0  0
   -4.3660   -1.2843   -7.8068 H   0  0  0  0  0  0  0  0  0  0  0  0
   -5.9457   -1.0133   -7.0524 H   0  0  0  0  0  0  0  0  0  0  0  0
   -2.6957   -1.2693   -3.2944 H   0  0  0  0  0  0  0  0  0  0  0  0
   -1.6045   -2.2314   -4.3038 H   0  0  0  0  0  0  0  0  0  0  0  0
   -0.7389    0.6569   -6.0787 H   0  0  0  0  0  0  0  0  0  0  0  0
   -1.1060    1.8499   -4.8250 H   0  0  0  0  0  0  0  0  0  0  0  0
   -3.2629    2.1641   -7.0526 H   0  0  0  0  0  0  0  0  0  0  0  0
   -2.6606    0.6255   -7.6595 H   0  0  0  0  0  0  0  0  0  0  0  0
   -2.3371   -1.2340   -6.3176 H   0  0  0  0  0  0  0  0  0  0  0  0
    2.5532    1.2105   -1.5631 H   0  0  0  0  0  0  0  0  0  0  0  0
    2.3452   -0.4587   -2.1166 H   0  0  0  0  0  0  0  0  0  0  0  0
    1.2758    0.1903   -0.8788 H   0  0  0  0  0  0  0  0  0  0  0  0
   -5.2418    2.2963   -8.2439 H   0  0  0  0  0  0  0  0  0  0  0  0
   -6.3744    0.9375   -8.2794 H   0  0  0  0  0  0  0  0  0  0  0  0
   -4.8349    0.8260   -9.1683 H   0  0  0  0  0  0  0  0  0  0  0  0
   -3.2812    3.0072   -5.2854 H   0  0  0  0  0  0  0  0  0  0  0  0
  1 14  1  0  0  0  0
  1 18  1  0  0  0  0
  1 20  2  0  0  0  0
  2 15  1  0  0  0  0
  2 21  2  0  0  0  0
  2 22  1  0  0  0  0
  3  4  1  0  0  0  0
  3  5  1  0  0  0  0
  3 23  1  0  0  0  0
  3 24  1  0  0  0  0
  4  6  1  0  0  0  0
  4 25  1  0  0  0  0
  4 26  1  0  0  0  0
  5  7  1  0  0  0  0
  5 27  1  0  0  0  0
  5 28  1  0  0  0  0
  6 14  1  0  0  0  0
  6 29  1  0  0  0  0
  6 30  1  0  0  0  0
  7 14  1  0  0  0  0
  7 31  1  0  0  0  0
  7 32  1  0  0  0  0
  8  9  1  0  0  0  0
  8 13  1  0  0  0  0
  8 33  1  0  0  0  0
  8 34  1  0  0  0  0
  9 19  1  0  0  0  0
  9 35  1  0  0  0  0
  9 36  1  0  0  0  0
 10 13  1  0  0  0  0
 10 18  1  0  0  0  0
 10 37  1  0  0  0  0
 10 38  1  0  0  0  0
 11 15  1  0  0  0  0
 11 18  1  0  0  0  0
 11 39  1  0  0  0  0
 11 40  1  0  0  0  0
 12 15  1  0  0  0  0
 12 19  1  0  0  0  0
 12 41  1  0  0  0  0
 12 42  1  0  0  0  0
 13 15  1  0  0  0  0
 13 43  1  0  0  0  0
 14 16  1  0  0  0  0
 16 44  1  0  0  0  0
 16 45  1  0  0  0  0
 16 46  1  0  0  0  0
 17 19  1  0  0  0  0
 17 47  1  0  0  0  0
 17 48  1  0  0  0  0
 17 49  1  0  0  0  0
 22 50  1  0  0  0  0
M  END
$$$$
