23
0 1 C9H9N3S2
C                    -1.505859892428     1.990116731380     0.600824778101
C                    -2.226328917891     0.814843732780     0.239259982655
C                    -0.775831894500     1.832903410361     1.753280480894
C                    -7.610425207259    -3.036625896575    -1.147068440658
C                    -2.035250435599    -0.236723461656     1.123375266607
C                    -7.758915523512    -1.684043987712    -1.270955715563
C                    -5.697667437069    -1.718192211167    -0.465962886440
C                    -2.536169948351    -1.605796527401     1.111642116654
C                    -8.976657819074    -0.968994662947    -1.777050258638
N                    -6.655715355024    -0.935851378766    -0.879479977342
N                    -3.619617370926    -2.071482717662     0.578391548529
N                    -4.469680350084    -1.226725147507    -0.057209496415
S                    -0.951369405217     0.245423595384     2.412443754989
S                    -6.031041591934    -3.437034516537    -0.505353012341
H                    -1.522764140916     2.910434065501     0.026535194346
H                    -2.800943384702     0.731306966328    -0.676461579685
H                    -0.150508651052     2.561572174289     2.253375747223
H                    -8.323149396154    -3.815782362777    -1.383080275385
H                    -1.942296622010    -2.359010864032     1.625274201708
H                    -9.367146102037    -0.288085703355    -1.013115061600
H                    -8.729617497352    -0.365527650115    -2.657097683287
H                    -9.764067528849    -1.676279068869    -2.048990521874
H                    -4.455564468613    -0.227258095348     0.148030408339
