42
0 1 C16H23NO2
C                     3.721620691621    -0.472323914019     3.032854313009
C                     4.527365656189    -0.165469723780     4.130756719103
C                     2.994116069930    -1.327353893354     5.570192287758
C                     2.541102768972    -1.203163802082     3.174677382706
C                     4.175659437469    -0.585065473301     5.421688773826
C                     2.190869149886    -1.637982704637     4.465273277606
C                     1.723469203354    -1.329073068401    -0.376687002635
C                     1.616921097103    -2.828240091513    -0.091958087291
C                     1.991169862823    -2.965437734340     1.391426918736
C                     1.669587866462    -1.570729620559     1.995941083307
C                    -0.704040554913    -3.588038260495     5.630604634533
C                     5.181597062182     1.306880365747     6.734551223351
C                     6.481533067144    -0.828612061243     6.391662192358
C                     4.528419121012    -0.776430584429     7.947185789349
C                     0.592079135133    -2.822578562122     5.834850416395
C                     5.074137554021    -0.230446716132     6.615893790943
N                     1.860765453062    -0.698497746429     0.836987550043
O                     1.676287927296    -0.776670481626    -1.468606293056
O                     1.036549616165    -2.378678804004     4.549103700367
H                     4.011642850185    -0.139930689658     2.039850255585
H                     5.434771166913     0.408670716670     3.969268942706
H                     2.698224473541    -1.669868801351     6.551641247485
H                     0.579830333739    -3.124409585315    -0.287684999787
H                     2.254068593653    -3.393993951608    -0.774712547113
H                     1.453392659920    -3.755357601505     1.918735752844
H                     3.063378074745    -3.153944357178     1.497401677354
H                     0.620791740240    -1.551624487008     2.317255046119
H                    -1.464652206853    -2.946075436540     5.176774093458
H                    -0.544107241863    -4.451002458339     4.977567846093
H                    -1.081889784164    -3.946964250279     6.593301691790
H                     5.818612301471     1.580243845799     7.583518493468
H                     5.613684542478     1.753831820046     5.834770388925
H                     4.194394469770     1.755043873988     6.889004393082
H                     7.137901671721    -0.585619479506     7.235096369686
H                     6.430795095800    -1.918729206922     6.300351098292
H                     6.947786249618    -0.439126648471     5.482285517691
H                     5.202376734681    -0.497195290546     8.763637940386
H                     3.540713709707    -0.365829905554     8.182618307324
H                     4.456279762741    -1.869303505101     7.941164588792
H                     1.357482396757    -3.465366029383     6.289448957648
H                     0.436794776174    -1.956903558765     6.492338580030
H                     1.725310348456     0.304499859661     0.889546229665
