42
0 1 C16H23NO2
C                     0.797626883438    -2.626536889729     0.134812344799
C                     1.773476354510    -3.481244457266    -0.392195604440
C                     1.494365168559    -4.939529296997     1.487131511885
C                     0.159830642087    -2.903440030851     1.345692492548
C                     2.138578535565    -4.659624382272     0.269619868793
C                     0.538170069355    -4.078526690280     2.019969300618
C                    -1.962606924906    -0.614796601660     0.268425870377
C                    -2.756350155628    -1.921483087461     0.249289499496
C                    -2.372451721761    -2.621331669847     1.561485206903
C                    -0.966814706844    -2.043260876792     1.898905403094
C                     1.774323318511    -4.723262487487     4.796725688387
C                     3.794499146411    -5.160831566340    -1.605342969614
C                     2.535160982039    -7.017361966559    -0.503586407141
C                     4.336215306340    -5.776910671304     0.754989350456
C                     0.529999694933    -3.933102839545     4.406571205117
C                     3.190359787474    -5.636701946648    -0.272746988601
N                    -1.047229100207    -0.719961189969     1.290452445541
O                    -2.087790773938     0.345387154894    -0.480995144087
O                    -0.104636982754    -4.415305343772     3.203477365554
H                     0.528563232811    -1.730198728775    -0.416966066873
H                     2.236639687127    -3.213529451803    -1.335053866279
H                     1.716224989594    -5.846266176440     2.040599634016
H                    -3.823497771800    -1.717616365818     0.143364980962
H                    -2.437464555285    -2.488140845733    -0.632170770095
H                    -3.069834772271    -2.341146915629     2.356394109184
H                    -2.349234024017    -3.709399047601     1.496734421934
H                    -0.856040527888    -1.949654825832     2.981273325326
H                     1.540724029147    -5.788246885432     4.890896048633
H                     2.573873798152    -4.602620180156     4.060773816174
H                     2.147605012878    -4.364331893862     5.762659521555
H                     4.538608772169    -5.885527304813    -1.951705472192
H                     3.034234084376    -5.070242328199    -2.387995820774
H                     4.298835863335    -4.194407233524    -1.502048091393
H                     3.272572758924    -7.728349263554    -0.893103946262
H                     2.126557502626    -7.433826717401     0.421821161946
H                     1.716305350446    -6.943074286398    -1.226738472189
H                     5.099560708918    -6.469637496829     0.383042955404
H                     4.814131670956    -4.808950893770     0.939591486872
H                     3.976929058003    -6.161567267944     1.714235457911
H                     0.775956912616    -2.869074744197     4.291125497371
H                    -0.239466785109    -4.022777924054     5.178167782186
H                    -0.298820100115    -0.040290875474     1.357845089525
