24
0 1 C8H12O3S
C                     0.943975704187    -0.090507056920    -0.570950946523
C                     1.611298938497     2.053344697798     0.517122119886
C                    -0.350018222794    -0.335206954842     1.531644639404
C                     1.874390400959     0.558661467277     0.472556916037
C                    -0.314589559826    -0.704400919301     0.045392821131
C                    -1.572952672854    -0.301452698529    -0.732148956064
C                     3.944253667020     4.775650518042     1.163874267477
C                     2.570969271446     4.189609427177     0.897794964648
O                     1.220149496235    -0.120343486252    -1.751752915623
O                     0.506312437083     2.547213548648     0.368704883006
O                     2.732945922917     2.748169292914     0.765854284652
S                     1.406490376671    -0.195980965184     2.080105438055
H                    -0.853752265085     0.620767498632     1.690008047714
H                    -0.830677540440    -1.101038352579     2.143617694346
H                     2.919673610727     0.350311566889     0.244688959829
H                    -0.165793781321    -1.789217243944    -0.039928738341
H                    -1.729891917120     0.779122900491    -0.666747108497
H                    -2.454840094289    -0.808370561967    -0.328016494903
H                    -1.467496851867    -0.572167419095    -1.785910177424
H                     4.372273616103     4.367561049621     2.084041172393
H                     4.627729961600     4.561386406145     0.337169546114
H                     3.863996217034     5.861999657393     1.272401771668
H                     2.127543894238     4.572653208097    -0.025004840312
H                     1.871955561361     4.382360818552     1.716209230697
