56
1 1 C20ClH31NO2S
C                     1.237000911671    -0.601820991243    -6.511526857903
C                     1.820593631877    -2.870617221681    -7.121321226768
C                     0.112970163837    -0.676491970333    -7.343192149941
C                     0.713690974491    -2.938032043482    -7.962797046241
C                     2.097765203431    -1.703094150334    -6.387056778969
C                    -0.150583021617    -1.841329059869    -8.059877616557
C                    -3.260068211476    -3.394125552689    -5.983147784053
C                    -2.848029371820    -2.142851990798    -5.200846624068
C                    -2.064186808581    -4.338285675134    -6.138279988689
C                    -2.243763327859    -2.504411679684    -3.848472734766
C                    -1.429866462446    -4.675387740570    -4.794913521029
C                     1.869060766223    -4.001783511443    -1.573626135522
C                     1.120275182462    -3.866428749420    -2.898386933542
C                     2.088278468947    -1.629368165323    -2.733882682999
C                     1.124454819867    -0.439927716932    -2.786189331390
C                     4.158093849762    -0.194828269049    -2.340676826346
C                     4.434608950527    -2.552955724646    -3.158260061920
C                    -0.397645775161    -3.773985004453    -2.700878900514
C                     3.555316032037    -0.754759317123    -4.665776813486
C                     3.539662186963    -1.302985161092    -3.218298640247
N                    -1.054523432340    -3.427583205175    -4.016567505601
O                     1.556259915329    -2.690062962837    -3.573909371848
O                     3.235227797107    -1.749883242578    -5.643766605288
S                     2.050786231820    -2.290813172174    -0.980594497285
Cl                   -1.574491282052    -1.938807206315    -9.081950537061
H                     1.438871677419     0.338891742762    -6.013848888948
H                     2.509868502162    -3.706119037913    -7.043972568657
H                    -0.539150518308     0.185399394801    -7.447617530604
H                     0.526478158182    -3.833159891487    -8.548514322988
H                    -3.633982775327    -3.109810750262    -6.969029539563
H                    -4.078332482244    -3.905612072867    -5.460578435671
H                    -2.122610930739    -1.558300671367    -5.778586808369
H                    -3.707509466909    -1.490786216081    -5.018418262965
H                    -2.364592958632    -5.280896583669    -6.606066112874
H                    -1.312634384731    -3.887715934615    -6.789791915954
H                    -1.881912146999    -1.624912064576    -3.312866962922
H                    -2.956746480206    -3.034548606143    -3.210480861892
H                    -2.123664522566    -5.224658370857    -4.152653595821
H                    -0.517909408573    -5.264584537397    -4.909742605031
H                     1.306365306984    -4.578534155527    -0.835233555136
H                     2.839426585532    -4.475246796914    -1.727979507723
H                     1.365214136189    -4.705818324783    -3.558608620268
H                     0.143185611055    -0.738188444985    -2.411990784588
H                     1.006639673534    -0.074562010919    -3.807328619250
H                     1.472213974565     0.382681659664    -2.158485012748
H                     5.208169214264    -0.052774366961    -2.611095250009
H                     3.656093672477     0.769644590508    -2.462842968249
H                     4.127862135636    -0.467299201775    -1.282835500521
H                     5.422555063379    -2.318552842645    -3.565221033481
H                     4.021561155143    -3.369444436536    -3.753245178997
H                     4.575601132627    -2.883916725594    -2.126462801072
H                    -0.626169048551    -2.982668887342    -1.986488576005
H                    -0.827232353377    -4.711765551658    -2.343590550153
H                     4.578620686584    -0.440547626868    -4.890311143770
H                     2.923956220726     0.128199677581    -4.761532662740
H                    -0.339110509913    -2.906032919807    -4.550518249260
