43
1 1 C15H24NO3
C                     5.807693724582    -0.345164090824     4.811509089867
C                     5.216339826816     0.142232144848     3.636202716060
C                     3.969263306969    -1.897581364671     5.073505134336
C                     5.194495645564    -1.364615472718     5.535076273270
C                     4.011440545737    -0.382371233728     3.171185876762
C                     3.372916511093    -1.426686366707     3.905959128449
C                     0.447035630518    -3.993545751595     2.133366695676
C                     1.349891878847    -5.070268956396     2.762619413295
C                     0.151737061862    -3.061864469169     3.317438196755
C                     2.204340588767    -4.311990425610     3.813999210205
C                     1.497238188055    -2.948397683103     4.039926726499
C                     7.269893793034    -1.615706720073     7.018332593982
C                     3.954811916562     1.054598855968     1.265189409085
C                     4.943728963760    -1.333711232568     7.999591944223
C                     5.774033016216    -1.902649130772     6.833495635179
N                     5.235806139688    -2.152575955426     9.253603834134
O                     5.539947852213    -3.327639394559     6.976754680155
O                     2.210409896825    -1.871271118265     3.383728723362
O                     3.368127774842     0.013107730092     2.050683645526
H                     6.749691226770     0.087849677138     5.129237141521
H                     5.714833379564     0.932435238240     3.087483271464
H                     3.503712575491    -2.708580757309     5.620303734451
H                     0.988197138645    -3.442988262875     1.356591267626
H                    -0.457431962418    -4.408950232395     1.681123887320
H                     0.730629778252    -5.825049710488     3.259182649289
H                     1.967046599993    -5.591975296124     2.026500188789
H                    -0.234686431026    -2.078834745986     3.038118927741
H                    -0.570428537489    -3.533304440284     3.994769431560
H                     2.291476252386    -4.875121286566     4.749229091504
H                     3.219627330138    -4.136854650356     3.447729690683
H                     1.378690866841    -2.685651064262     5.097598271107
H                     7.661223213757    -2.131583447852     7.902253590521
H                     7.474999879455    -0.547381753401     7.120883734800
H                     7.832869700319    -1.987225047804     6.158984676777
H                     3.276111160552     1.206035144086     0.426494780986
H                     4.940686184215     0.757619705159     0.889866847553
H                     4.038508473365     1.983227606113     1.841187298586
H                     5.170558139811    -0.288130572290     8.206409802501
H                     3.879079804871    -1.453370381560     7.801003580044
H                     6.159407579328    -1.940696855800     9.645756622846
H                     5.239493277155    -3.144866607885     8.959766625388
H                     4.536578165750    -2.013066152154     9.991236537213
H                     5.803749920292    -3.779335213599     6.157184807497
