
  -OEChem-05262117483D

 24 24  0     1  0  0  0  0  0999 V2000
    0.5822    0.8939    0.0903 C   0  0  0  0  0  0  0  0  0  0  0  0
    0.2720   -0.2812   -0.5073 C   0  0  0  0  0  0  0  0  0  0  0  0
    1.1786    2.1090   -0.4824 C   0  0  0  0  0  0  0  0  0  0  0  0
   -0.1613   -0.8566    1.8070 C   0  0  0  0  0  0  0  0  0  0  0  0
   -0.4921   -1.2615    0.3610 C   0  0  1  0  0  0  0  0  0  0  0  0
   -1.9989   -1.1878    0.0430 C   0  0  0  0  0  0  0  0  0  0  0  0
    3.6590    3.2097   -2.0536 C   0  0  0  0  0  0  0  0  0  0  0  0
    2.1789    3.1084   -2.3956 C   0  0  0  0  0  0  0  0  0  0  0  0
    1.2955    3.1507    0.1477 O   0  0  0  0  0  0  0  0  0  0  0  0
    0.4966   -0.5750   -1.8163 O   0  0  0  0  0  0  0  0  0  0  0  0
    1.5687    1.9521   -1.7680 O   0  0  0  0  0  0  0  0  0  0  0  0
    0.0875    0.9707    1.8100 S   0  0  0  0  0  0  0  0  0  0  0  0
   -0.9607   -1.1139    2.5052 H   0  0  0  0  0  0  0  0  0  0  0  0
    0.7680   -1.3307    2.1355 H   0  0  0  0  0  0  0  0  0  0  0  0
   -0.1369   -2.2862    0.1810 H   0  0  0  0  0  0  0  0  0  0  0  0
   -2.3868   -0.1935    0.2826 H   0  0  0  0  0  0  0  0  0  0  0  0
   -2.5506   -1.9284    0.6308 H   0  0  0  0  0  0  0  0  0  0  0  0
   -2.1949   -1.3833   -1.0165 H   0  0  0  0  0  0  0  0  0  0  0  0
    3.7981    3.3902   -0.9851 H   0  0  0  0  0  0  0  0  0  0  0  0
    4.1835    2.2903   -2.3313 H   0  0  0  0  0  0  0  0  0  0  0  0
    4.1082    4.0431   -2.6054 H   0  0  0  0  0  0  0  0  0  0  0  0
    2.0275    2.9401   -3.4640 H   0  0  0  0  0  0  0  0  0  0  0  0
    1.6389    4.0070   -2.0894 H   0  0  0  0  0  0  0  0  0  0  0  0
    0.2386   -1.4974   -1.9728 H   0  0  0  0  0  0  0  0  0  0  0  0
  1  2  2  0  0  0  0
  1  3  1  0  0  0  0
  1 12  1  0  0  0  0
  2  5  1  0  0  0  0
  2 10  1  0  0  0  0
  3  9  2  0  0  0  0
  3 11  1  0  0  0  0
  4  5  1  0  0  0  0
  4 12  1  0  0  0  0
  4 13  1  0  0  0  0
  4 14  1  0  0  0  0
  5  6  1  0  0  0  0
  5 15  1  0  0  0  0
  6 16  1  0  0  0  0
  6 17  1  0  0  0  0
  6 18  1  0  0  0  0
  7  8  1  0  0  0  0
  7 19  1  0  0  0  0
  7 20  1  0  0  0  0
  7 21  1  0  0  0  0
  8 11  1  0  0  0  0
  8 22  1  0  0  0  0
  8 23  1  0  0  0  0
 10 24  1  0  0  0  0
M  END
$$$$
