
  -OEChem-05262117483D

 42 43  0     1  0  0  0  0  0999 V2000
    5.2744    0.3142    5.6933 C   0  0  0  0  0  0  0  0  0  0  0  0
    4.9946    0.8843    4.4432 C   0  0  0  0  0  0  0  0  0  0  0  0
    3.5927   -1.3645    5.2993 C   0  0  0  0  0  0  0  0  0  0  0  0
    4.5791   -0.8125    6.1324 C   0  0  0  0  0  0  0  0  0  0  0  0
    4.0149    0.3365    3.6155 C   0  0  0  0  0  0  0  0  0  0  0  0
    3.3059   -0.8102    4.0514 C   0  0  0  0  0  0  0  0  0  0  0  0
   -0.5706   -1.0845    3.6399 C   0  0  0  0  0  0  0  0  0  0  0  0
   -0.3657   -1.6567    2.2054 C   0  0  0  0  0  0  0  0  0  0  0  0
    0.4244   -1.8452    4.5497 C   0  0  0  0  0  0  0  0  0  0  0  0
    0.7089   -2.7586    2.3468 C   0  0  0  0  0  0  0  0  0  0  0  0
    1.5053   -2.3614    3.5896 C   0  0  0  0  0  0  0  0  0  0  0  0
    6.3289   -1.8077    7.6510 C   0  0  0  0  0  0  0  0  0  0  0  0
    4.3600    1.9689    1.9122 C   0  0  0  0  0  0  0  0  0  0  0  0
    4.4197   -0.3801    8.5947 C   0  0  0  0  0  0  0  0  0  0  0  0
    4.8525   -1.4073    7.5077 C   0  0  1  0  0  0  0  0  0  0  0  0
    4.4633   -0.8262    9.9878 N   0  0  0  0  0  0  0  0  0  0  0  0
    4.0358   -2.5887    7.6367 O   0  0  0  0  0  0  0  0  0  0  0  0
    2.3834   -1.2978    3.1722 O   0  0  0  0  0  0  0  0  0  0  0  0
    3.6679    0.8208    2.3830 O   0  0  0  0  0  0  0  0  0  0  0  0
    6.0420    0.7715    6.3111 H   0  0  0  0  0  0  0  0  0  0  0  0
    5.5504    1.7603    4.1283 H   0  0  0  0  0  0  0  0  0  0  0  0
    3.0580   -2.2359    5.6486 H   0  0  0  0  0  0  0  0  0  0  0  0
   -0.3513   -0.0137    3.6545 H   0  0  0  0  0  0  0  0  0  0  0  0
   -1.5998   -1.2058    3.9904 H   0  0  0  0  0  0  0  0  0  0  0  0
   -1.2930   -2.0507    1.7791 H   0  0  0  0  0  0  0  0  0  0  0  0
   -0.0075   -0.8721    1.5342 H   0  0  0  0  0  0  0  0  0  0  0  0
    0.8338   -1.2250    5.3501 H   0  0  0  0  0  0  0  0  0  0  0  0
   -0.0572   -2.7104    5.0208 H   0  0  0  0  0  0  0  0  0  0  0  0
    0.2454   -3.7342    2.5333 H   0  0  0  0  0  0  0  0  0  0  0  0
    1.3540   -2.8533    1.4695 H   0  0  0  0  0  0  0  0  0  0  0  0
    2.0975   -3.1899    3.9936 H   0  0  0  0  0  0  0  0  0  0  0  0
    6.5201   -2.2593    8.6334 H   0  0  0  0  0  0  0  0  0  0  0  0
    6.9937   -0.9461    7.5464 H   0  0  0  0  0  0  0  0  0  0  0  0
    6.5895   -2.5400    6.8826 H   0  0  0  0  0  0  0  0  0  0  0  0
    3.9399    2.1884    0.9294 H   0  0  0  0  0  0  0  0  0  0  0  0
    5.4362    1.7775    1.8115 H   0  0  0  0  0  0  0  0  0  0  0  0
    4.2057    2.8318    2.5731 H   0  0  0  0  0  0  0  0  0  0  0  0
    3.3912   -0.0814    8.3717 H   0  0  0  0  0  0  0  0  0  0  0  0
    5.0382    0.5185    8.5030 H   0  0  0  0  0  0  0  0  0  0  0  0
    5.3942   -1.1332   10.2605 H   0  0  0  0  0  0  0  0  0  0  0  0
    3.8128   -1.5922   10.1474 H   0  0  0  0  0  0  0  0  0  0  0  0
    4.3106   -3.0385    8.4508 H   0  0  0  0  0  0  0  0  0  0  0  0
  1  2  1  0  0  0  0
  1  4  2  0  0  0  0
  1 20  1  0  0  0  0
  2  5  2  0  0  0  0
  2 21  1  0  0  0  0
  3  4  1  0  0  0  0
  3  6  2  0  0  0  0
  3 22  1  0  0  0  0
  4 15  1  0  0  0  0
  5  6  1  0  0  0  0
  5 19  1  0  0  0  0
  6 18  1  0  0  0  0
  7  8  1  0  0  0  0
  7  9  1  0  0  0  0
  7 23  1  0  0  0  0
  7 24  1  0  0  0  0
  8 10  1  0  0  0  0
  8 25  1  0  0  0  0
  8 26  1  0  0  0  0
  9 11  1  0  0  0  0
  9 27  1  0  0  0  0
  9 28  1  0  0  0  0
 10 11  1  0  0  0  0
 10 29  1  0  0  0  0
 10 30  1  0  0  0  0
 11 18  1  0  0  0  0
 11 31  1  0  0  0  0
 12 15  1  0  0  0  0
 12 32  1  0  0  0  0
 12 33  1  0  0  0  0
 12 34  1  0  0  0  0
 13 19  1  0  0  0  0
 13 35  1  0  0  0  0
 13 36  1  0  0  0  0
 13 37  1  0  0  0  0
 14 15  1  0  0  0  0
 14 16  1  0  0  0  0
 14 38  1  0  0  0  0
 14 39  1  0  0  0  0
 15 17  1  0  0  0  0
 16 40  1  0  0  0  0
 16 41  1  0  0  0  0
 17 42  1  0  0  0  0
M  END
$$$$
