18   
torsion grid (-165,)
C       -0.8333400832    1.2106552116    1.2998905400
C       -0.3191423432   -2.7641581946    2.1408116184
C        1.4436105919    0.9511715454    0.3758290089
C        1.0768470653    1.5087430633    2.8355942532
C        0.5388443977    0.7478619284    1.6079859499
N       -1.8779709364    1.6566516493    1.0553625924
N       -0.4561507562   -1.3206831496    1.8257803010
N        0.6108742355   -0.6964895411    1.9436014926
N        0.7939700098   -3.1153424173    2.8398463843
O       -1.2153807509   -3.5080123743    1.7948010012
H        2.4498623073    0.5876100947    0.6005154583
H        1.0498819419    0.4046552885   -0.4843336603
H        1.4943289993    2.0134695905    0.1260252633
H        2.0885528458    1.1622240230    3.0625189829
H        0.4379046128    1.3394652123    3.7056511918
H        1.1048414637    2.5800846970    2.6240586203
H        0.9737579517   -4.1036417416    2.9548742664
H        1.5608498612   -2.4570708579    2.8999249503
18   
torsion grid (-150,)
C       -0.8433111914    1.2008107708    1.3614779636
C       -0.2616316362   -2.7859330458    2.0506993255
C        1.3943301578    0.9696805743    0.3362691074
C        1.1289703426    1.4852768260    2.8183044348
C        0.5435731577    0.7420800486    1.6020700725
N       -1.9028672686    1.6401899043    1.1761523611
N       -0.4256431432   -1.3410515769    1.7889176143
N        0.6364801098   -0.7083502197    1.9102681550
N        0.6711852952   -3.1047579736    2.9930212491
O       -0.9929168742   -3.5606043867    1.4670874234
H        2.4106609061    0.6075640988    0.5127135561
H        0.9670236812    0.4338862452   -0.5145134190
H        1.4297279191    2.0359929916    0.1012004044
H        2.1507590478    1.1399641527    2.9967763640
H        0.5275711083    1.2994444454    3.7116030863
H        1.1439678651    2.5601570535    2.6241421194
H        0.8961195128   -4.0871704994    3.0850407712
H        1.3967347772   -2.4261729715    3.1912750796
18   
torsion grid (-135,)
C       -0.8264411551    1.2385397572    1.4335619627
C       -0.1879940754   -2.7596668731    1.9434284209
C        1.3584745039    1.0144977053    0.2964779058
C        1.2149650100    1.5156949901    2.7918383493
C        0.5711930460    0.7806058135    1.6017339572
N       -1.8973555778    1.6735647565    1.3146868891
N       -0.3728526324   -1.3167950720    1.7278547132
N        0.6780078769   -0.6744615321    1.8925509306
N        0.4612808716   -3.0823778357    3.0998341478
O       -0.6764389530   -3.5330294662    1.1443871745
H        2.3797585479    0.6439081519    0.4185501747
H        0.8847813502    0.4878344385   -0.5351380193
H        1.3896538783    2.0826676595    0.0691422288
H        2.2447205316    1.1703754573    2.9159362525
H        0.6598023358    1.3224415867    3.7133184379
H        1.2185220656    2.5922673704    2.6069204527
H        0.7076483650   -4.0581629803    3.2120619680
H        1.0831105105   -2.3927182135    3.5040499729
18   
torsion grid (-120,)
C       -0.8313440356    1.2167773068    1.5088739969
C       -0.0885347196   -2.7678446503    1.9045159551
C        1.2993624341    1.0433917114    0.2630017539
C        1.2694435215    1.5228140325    2.7665568419
C        0.5815786843    0.7858531305    1.6032313810
N       -1.9179919101    1.6246865661    1.4516356136
N       -0.3130800987   -1.3319445372    1.7301154821
N        0.7296784520   -0.6712141117    1.8734776109
N        0.2968423204   -3.1188298660    3.1649138075
O       -0.3375141431   -3.5198639109    0.9834575478
H        2.3312229769    0.6888751250    0.3321227730
H        0.7945811341    0.5141691365   -0.5484116807
H        1.3018796360    2.1136358345    0.0431649657
H        2.3091288825    1.1930004769    2.8382431124
H        0.7628151225    1.3137690109    3.7124063399
H        1.2466370378    2.6007878997    2.5913875753
H        0.5481147922   -4.0898736614    3.3049638773
H        0.7512725522   -2.4274057096    3.7475359672
18   
torsion grid (-105,)
C       -0.8358548373    1.1232593369    1.6547828209
C        0.1321709611   -2.8128230210    1.9702363210
C        1.1937309126    1.0348644055    0.2378635515
C        1.3428720300    1.5574659089    2.7286308166
C        0.6008124567    0.7678685708    1.6360795401
N       -1.9467522988    1.4626358417    1.6946405811
N       -0.1636386059   -1.3948860967    1.7982919917
N        0.8440348565   -0.6771222314    1.9106386178
N        0.2763417868   -3.1798057902    3.2730001535
O        0.1641989357   -3.5469517823    1.0018343211
H        2.2433900429    0.7295339809    0.2276612899
H        0.6511756471    0.4672885157   -0.5215178778
H        1.1276866026    2.1001068446    0.0038841058
H        2.3987127154    1.2753212950    2.7211922451
H        0.9256130260    1.3420055766    3.7157493546
H        1.2552836730    2.6299482858    2.5405149228
H        0.2651672204   -4.1693008426    3.4861137164
H        0.0878810091   -2.5218029511    4.0167249162
18   
torsion grid (-90,)
C       -0.8168273395    1.1118395430    1.7124068578
C        0.2417453290   -2.8017695087    1.9896389096
C        1.1531458296    1.0701061037    0.2107333669
C        1.3971185321    1.5854030642    2.6956293178
C        0.6247354193    0.7861395807    1.6313899108
N       -1.9337376878    1.4214745585    1.7997031013
N       -0.0905186960   -1.3897065882    1.8406422680
N        0.9087463599   -0.6545116444    1.8868004209
N        0.1578540933   -3.2220726091    3.2836675885
O        0.4926279544   -3.4870351376    1.0176694386
H        2.2062770267    0.7825410064    0.1547490492
H        0.5892278709    0.4970370890   -0.5286872836
H        1.0591585768    2.1352653021   -0.0139145217
H        2.4570293671    1.3247259264    2.6407770878
H        1.0278745052    1.3555664938    3.6983986239
H        1.2798209682    2.6567958777    2.5175730356
H        0.1293034025   -4.2220022153    3.4414952060
H       -0.2743923406   -2.6226820499    3.9747698637
18   
torsion grid (-75,)
C       -0.8051561343    1.0868372318    1.7652767355
C        0.3319410318   -2.8016641227    2.0754987370
C        1.1104617429    1.0740168832    0.1943493906
C        1.4346729135    1.6027320917    2.6671540436
C        0.6383675938    0.7856510978    1.6339450986
N       -1.9238894847    1.3777960765    1.8869209581
N       -0.0311452425   -1.3943241865    1.9264678410
N        0.9583055956   -0.6470134701    1.8833722371
N        0.0339123905   -3.2621221662    3.3244372092
O        0.7801394601   -3.4489253988    1.1497749697
H        2.1668677769    0.8089792951    0.1026784123
H        0.5339891497    0.4857841859   -0.5231847677
H        0.9848878723    2.1358286668   -0.0307452033
H        2.4958040391    1.3573565039    2.5770750403
H        1.1033787754    1.3726726844    3.6829513007
H        1.2951192235    2.6711373591    2.4870695301
H        0.0239790983   -4.2669430774    3.4495809606
H       -0.5699937560   -2.7086857463    3.9190971960
18   
torsion grid (-60,)
C       -0.7873144454    1.0796758111    1.8180830186
C        0.4167196694   -2.7886448805    2.1577795937
C        1.0731175339    1.0871785262    0.1822010825
C        1.4768488686    1.6243382119    2.6413018456
C        0.6546814619    0.7952396856    1.6377260025
N       -1.9057494284    1.3559397715    1.9723665796
N        0.0254049099   -1.3835842538    2.0068390073
N        1.0024595958   -0.6307545802    1.8777244956
N       -0.0842423183   -3.2948715072    3.3207525080
O        1.0483007397   -3.3927683487    1.3138514390
H        2.1277232770    0.8308349941    0.0536408461
H        0.4770158561    0.4941545883   -0.5151148567
H        0.9301638337    2.1477655900   -0.0382256344
H        2.5372115529    1.3930924429    2.5130828300
H        1.1851255900    1.3905406223    3.6682572385
H        1.3162001014    2.6904518711    2.4651745111
H       -0.0535775888   -4.2997600213    3.4380477758
H       -0.8080065761   -2.7804786671    3.8064674561
18   
torsion grid (-45,)
C       -0.7779595486    1.0722094581    1.8460233974
C        0.4699366919   -2.7848226361    2.2014731224
C        1.0359870351    1.1065077594    0.1597097518
C        1.5065112398    1.6197708528    2.6116470038
C        0.6601270771    0.7959391226    1.6229811504
N       -1.8937384199    1.3428404238    2.0270745691
N        0.0596800998   -1.3772841681    2.0585743574
N        1.0231884687   -0.6282842917    1.8389736199
N       -0.2046555009   -3.3415897295    3.2463745223
O        1.2522883282   -3.3441782398    1.4599259827
H        2.0896388206    0.8639892966    0.0009032225
H        0.4286394618    0.5132340815   -0.5277175192
H        0.8739682681    2.1671481714   -0.0467995652
H        2.5636269435    1.3910707653    2.4552993777
H        1.2403480989    1.3784093882    3.6437209887
H        1.3396465931    2.6866707736    2.4461185380
H       -0.1421675562   -4.3439444121    3.3679668404
H       -0.9993694512   -2.8520221855    3.6368365714
18   
torsion grid (-30,)
C       -0.7598153344    1.0643923292    1.8849256123
C        0.5435801071   -2.7776588620    2.2729701726
C        1.0016889889    1.1140359325    0.1458788576
C        1.5446222075    1.6252157672    2.5827296181
C        0.6730649918    0.7969885423    1.6189914697
N       -1.8731449012    1.3278535001    2.0900993998
N        0.1092104401   -1.3702767088    2.1191581439
N        1.0533380440   -0.6229621582    1.8240736534
N       -0.2942048631   -3.3832712732    3.1576977804
O        1.4688158163   -3.2915964510    1.6785766911
H        2.0512529052    0.8779397561   -0.0458846831
H        0.3766456414    0.5197295222   -0.5246936150
H        0.8269113592    2.1741949349   -0.0525085126
H        2.5977621291    1.4028433289    2.3939475719
H        1.3111768443    1.3809574411    3.6219585636
H        1.3661165220    2.6911618603    2.4230431542
H       -0.2039284107   -4.3792468920    3.3066173399
H       -1.1339110312   -2.9059439798    3.4577987634
18   
torsion grid (-15,)
C       -0.7590334207    1.0675404982    1.9449123317
C        0.5727614322   -2.7650529443    2.3840262071
C        0.9434965480    1.0957782908    0.1484632978
C        1.5677779924    1.6375836017    2.5587158420
C        0.6646700707    0.7965177225    1.6353492784
N       -1.8657677579    1.3334969376    2.1804039402
N        0.1246503567   -1.3580762174    2.2066592588
N        1.0532547498   -0.6194084857    1.8483553760
N       -0.4033030010   -3.4206483417    3.0654656326
O        1.6136099693   -3.2347967635    1.9739677096
H        1.9866933860    0.8593502719   -0.0750337885
H        0.2976611400    0.4925143037   -0.4939156449
H        0.7598495493    2.1530194572   -0.0573829907
H        2.6140179490    1.4109618674    2.3393183879
H        1.3676744058    1.4080884915    3.6081493264
H        1.3846851467    2.7012912683    2.3893567636
H       -0.2991834039   -4.4094804866    3.2471382757
H       -1.2700232267   -2.9486045546    3.2859757174
18   
torsion grid (0,)
C       -0.7433629296    1.0857024039    1.9802396960
C        0.6184039249   -2.7334306041    2.4617934386
C        0.9078397515    1.1048165620    0.1380298391
C        1.6014199832    1.6556582505    2.5271072045
C        0.6713146089    0.8117984172    1.6333990074
N       -1.8447881628    1.3531387820    2.2378574512
N        0.1588358504   -1.3296373747    2.2734578608
N        1.0656419222   -0.6022302425    1.8436913939
N       -0.4412672006   -3.4431643763    2.9296654452
O        1.7329720532   -3.1556798185    2.2351843697
H        1.9471948394    0.8777436163   -0.1114035388
H        0.2515898292    0.4909811407   -0.4835917870
H        0.7072599109    2.1585553033   -0.0696964829
H        2.6407973588    1.4239002101    2.2820649891
H        1.4280482503    1.4338841895    3.5829018746
H        1.4173867407    2.7188358875    2.3550095687
H       -0.3299457315   -4.4273693675    3.1307930524
H       -1.3274557033   -2.9831761284    3.0899828534
18   
torsion grid (15,)
C       -0.7349972756    1.0885659465    2.0194063632
C        0.6318215803   -2.7177903469    2.5604095089
C        0.8669855228    1.0878801008    0.1357634452
C        1.6286211611    1.6431183886    2.5030586390
C        0.6680367695    0.8028262563    1.6372626371
N       -1.8303963099    1.3624236471    2.2953654201
N        0.1741344740   -1.3184254602    2.3560737872
N        1.0582628297   -0.6127966556    1.8492705495
N       -0.4693890966   -3.4722169169    2.8152013311
O        1.7826667683   -3.1009832388    2.5240974871
H        1.8964582450    0.8474749639   -0.1408146077
H        0.1868549582    0.4804037659   -0.4662458651
H        0.6737236761    2.1431286162   -0.0711156603
H        2.6593637680    1.3997995385    2.2338506539
H        1.4790297590    1.4285088240    3.5638337945
H        1.4503247141    2.7068388808    2.3282311702
H       -0.3597792423   -4.4572465381    3.0133603447
H       -1.3767635945   -3.0326202989    2.8925289481
18   
torsion grid (30,)
C       -0.7041974320    1.1112235281    2.0681246636
C        0.6627329884   -2.6821236502    2.6620606356
C        0.8359187675    1.0683226122    0.1347166426
C        1.6779335765    1.6550690234    2.4673251430
C        0.6836172420    0.8092702891    1.6460278592
N       -1.7883905728    1.3968912220    2.3746051674
N        0.2046634274   -1.2928791841    2.4313378721
N        1.0709406023   -0.6058215486    1.8705820543
N       -0.4307352930   -3.4918860757    2.6639077801
O        1.8150262754   -3.0154038756    2.8481831158
H        1.8555864013    0.8202574512   -0.1701336090
H        0.1355296783    0.4531526125   -0.4355256562
H        0.6391833122    2.1204621816   -0.0841496044
H        2.6977013891    1.3961820538    2.1721134408
H        1.5582455922    1.4606461822    3.5356985306
H        1.5048158185    2.7172009945    2.2782536427
H       -0.3119451987   -4.4659275212    2.9076824577
H       -1.3556286159   -3.0826021640    2.6721111351
18   
torsion grid (45,)
C       -0.7007669075    1.1361334428    2.1036858482
C        0.6374197069   -2.6510898036    2.7567546673
C        0.7893283486    1.0561998146    0.1344098950
C        1.7009116061    1.6385728529    2.4423724627
C        0.6706411783    0.8081909032    1.6499698445
N       -1.7755418579    1.4383941675    2.4269201523
N        0.1942823133   -1.2689365310    2.5054212620
N        1.0382520375   -0.6131955145    1.8766976188
N       -0.4046455078   -3.5004481355    2.5340725420
O        1.7485571223   -2.9493066605    3.1457104692
H        1.7965886345    0.7888430862   -0.1945102600
H        0.0644122968    0.4503885175   -0.4149211603
H        0.6053528867    2.1102210749   -0.0862962005
H        2.7081073753    1.3600486960    2.1226878030
H        1.6047380948    1.4497912219    3.5140592358
H        1.5427602837    2.7029520759    2.2527962019
H       -0.2948482323   -4.4659480339    2.8154294176
H       -1.3387932533   -3.1218544463    2.4460669390
18   
torsion grid (60,)
C       -0.6953212629    1.1553388005    2.1267594776
C        0.6148372750   -2.6306605451    2.8186251363
C        0.7483039480    1.0517368840    0.1252673997
C        1.7234066588    1.6076519367    2.4141199157
C        0.6585726003    0.8022335944    1.6419174504
N       -1.7593888334    1.4738087268    2.4693372749
N        0.1922177724   -1.2497084438    2.5647162861
N        1.0011306144   -0.6286903986    1.8589862878
N       -0.3455558429   -3.5022912584    2.3971524518
O        1.6551014163   -2.9103957961    3.3804732911
H        1.7442455460    0.7702670967   -0.2256728129
H        0.0032855286    0.4578308427   -0.4101056500
H        0.5751339225    2.1086076062   -0.0902871905
H        2.7175901943    1.3042312143    2.0765287435
H        1.6419170360    1.4218228770    3.4874751721
H        1.5885776004    2.6753885032    2.2253643206
H       -0.2603143551   -4.4646526805    2.6989699394
H       -1.2708458729   -3.1481003079    2.1904136946
18   
torsion grid (75,)
C       -0.6844207441    1.1852943716    2.1730331355
C        0.5862047391   -2.5992519877    2.9296101299
C        0.7017289473    1.0266045341    0.1359267807
C        1.7505403850    1.5864389013    2.3911421002
C        0.6477240736    0.7969688113    1.6569762031
N       -1.7337554945    1.5304284364    2.5346914465
N        0.1863667850   -1.2203043508    2.6589086820
N        0.9625573937   -0.6405750091    1.8838048448
N       -0.2506601298   -3.4878780285    2.3207658158
O        1.5171661160   -2.8635741427    3.6646191967
H        1.6805323006    0.7167969647   -0.2386202062
H       -0.0717290936    0.4452207487   -0.3722883830
H        0.5482655612    2.0846953553   -0.0883228842
H        2.7284597748    1.2599870692    2.0281752103
H        1.6955099157    1.4108502159    3.4678654199
H        1.6327497198    2.6551485780    2.1965528769
H       -0.2039966005   -4.4486167732    2.6373544108
H       -1.1341177617   -3.1563946431    1.9543830578
18   
torsion grid (90,)
C       -0.6702710698    1.2308500339    2.2089865916
C        0.5533871444   -2.5538929927    3.0409540008
C        0.6572512890    1.0037906003    0.1405080491
C        1.7790835415    1.5714527766    2.3583917795
C        0.6374273493    0.8001635955    1.6656812519
N       -1.7028598672    1.6064200904    2.5880528081
N        0.1791877346   -1.1742848569    2.7525448134
N        0.9195893503   -0.6428383606    1.9096087131
N       -0.1288640490   -3.4493723689    2.2722869556
O        1.3444210734   -2.8108990011    3.9272211594
H        1.6188317581    0.6659787061   -0.2539773508
H       -0.1419213962    0.4322776017   -0.3384572625
H        0.5213261652    2.0611603778   -0.0979011490
H        2.7386506038    1.2105078769    1.9790995633
H        1.7441909042    1.4170556750    3.4391783177
H        1.6875374362    2.6393237917    2.1459392464
H       -0.1152871949   -4.4167383259    2.5716231089
H       -0.9207938957   -3.1353278357    1.7264380184
18   
torsion grid (105,)
C       -0.6584531424    1.2667465680    2.2577623199
C        0.4712831499   -2.5432624808    3.1161379202
C        0.5975134157    0.9714089860    0.1544440695
C        1.8038795065    1.5237840401    2.3313326421
C        0.6167746486    0.7844669716    1.6816830962
N       -1.6650241153    1.6880823447    2.6579487196
N        0.1391320120   -1.1533004422    2.8240904830
N        0.8549616177   -0.6654649392    1.9336872051
N       -0.0274880725   -3.4205721714    2.2027843946
O        1.0798948889   -2.8204524754    4.1312884804
H        1.5339860694    0.5954179422   -0.2652105831
H       -0.2362366217    0.4248592896   -0.2939709889
H        0.4918882702    2.0303748131   -0.0919552214
H        2.7392482810    1.1286118089    1.9263142469
H        1.7966723650    1.3799594065    3.4141209472
H        1.7408652464    2.5922474461    2.1116420613
H       -0.0285732878   -4.4028814679    2.4471417904
H       -0.6456400282   -3.1031616867    1.4687877850
18   
torsion grid (120,)
C       -0.5899023305    1.4118365902    2.3287120886
C        0.3109312822   -2.4486502258    3.2622834711
C        0.5202742884    0.9326228557    0.1777374210
C        1.8813295031    1.5100595271    2.2543597797
C        0.6160193386    0.8171224941    1.7097777913
N       -1.5342256907    1.9321258914    2.7623238504
N        0.0387490309   -1.0498213542    2.9276332503
N        0.7765657267   -0.6306781706    2.0197046467
N        0.0391314662   -3.3228028025    2.2512048168
O        0.6567378846   -2.7280985042    4.3928546327
H        1.4079036035    0.4824462896   -0.2742853205
H       -0.3696174437    0.4190569070   -0.1955503890
H        0.4629297833    1.9835298293   -0.1147295196
H        2.7666085726    1.0398036864    1.8180841157
H        1.9288321822    1.4184666426    3.3418457101
H        1.8688647448    2.5691380523    1.9861323042
H        0.2963752511   -4.2892843763    2.4104095736
H        0.0466495334   -2.9853146160    1.2972595467
18   
torsion grid (135,)
C       -0.5589246627    1.4568452740    2.3695327765
C        0.2058580618   -2.4460383402    3.2832221741
C        0.4620795803    0.9212070897    0.1879229625
C        1.9096422202    1.4625932340    2.2151930927
C        0.6030045496    0.8121349168    1.7173222272
N       -1.4656120357    2.0207030745    2.8280502545
N       -0.0104664507   -1.0285994597    2.9589328248
N        0.7187484585   -0.6376045054    2.0318609507
N        0.1974944854   -3.2791231290    2.2028688474
O        0.2972651794   -2.7692805849    4.4506554153
H        1.3180813123    0.4368880727   -0.2892771398
H       -0.4573160926    0.4378819174   -0.1523851279
H        0.4336529330    1.9718082385   -0.1098276218
H        2.7632900137    0.9586111079    1.7541458641
H        1.9889975105    1.3775353984    3.3013783325
H        1.9257342270    2.5195741717    1.9391634620
H        0.4566913644   -4.2422296078    2.3775305346
H        0.4234812665   -2.8881065366    1.2967196648
18   
torsion grid (150,)
C       -0.5268591669    1.4637045837    2.4486837987
C        0.0813147147   -2.4987478295    3.2466592774
C        0.3772078063    0.8976387998    0.2226106319
C        1.9298683054    1.4036414463    2.1796403844
C        0.5854848684    0.7857693290    1.7452222968
N       -1.3862366867    2.0628551438    2.9512250727
N       -0.0929854971   -1.0633348972    2.9428210182
N        0.6761153619   -0.6650454127    2.0523186769
N        0.4318347718   -3.2801859102    2.1854108255
O       -0.1533625412   -2.8778640921    4.3765694231
H        1.1970020589    0.3910749385   -0.2936013865
H       -0.5694359159    0.4387944423   -0.0732372098
H        0.3639524389    1.9489880097   -0.0736668765
H        2.7479706892    0.8831983452    1.6746274404
H        2.0621946090    1.3131425065    3.2602863508
H        1.9559771728    2.4613434283    1.9073947152
H        0.6908217269   -4.2348378865    2.3993298016
H        0.8695817744   -2.8314737122    1.3896490666
18   
torsion grid (165,)
C       -0.4880183941    1.4964920172    2.4863490813
C       -0.0163974370   -2.5085222694    3.1988711815
C        0.3212970111    0.9181877310    0.2265792449
C        1.9539055501    1.3649596331    2.1320575441
C        0.5778087400    0.7892397551    1.7408344222
N       -1.3053434627    2.1238199431    3.0233779001
N       -0.1402098527   -1.0560233461    2.9221950473
N        0.6358643995   -0.6646847644    2.0352913448
N        0.6156770999   -3.2422640716    2.2433282341
O       -0.5165258558   -2.9362483361    4.2202496835
H        1.1080260512    0.3922842427   -0.3207792430
H       -0.6473212653    0.4880545264   -0.0392539701
H        0.3282017350    1.9718390068   -0.0616449219
H        2.7389464398    0.8246757686    1.5963260206
H        2.1207856394    1.2647257490    3.2070854469
H        2.0012024424    2.4231147470    1.8646198100
H        0.8248622907   -4.2062960924    2.4650661851
H        1.1614062559   -2.7610384248    1.5393209869
18   
torsion grid (180,)
C       -0.8085265315    1.2245170836    1.2308505851
C       -0.3836407089   -2.7202521460    2.2454605512
C        1.5057306536    0.9512405686    0.4129135056
C        1.0319754586    1.5246105579    2.8505514941
C        0.5462066113    0.7581904894    1.6041153315
N       -1.8364976245    1.6708049227    0.9242269695
N       -0.4888054750   -1.2822426479    1.8871382811
N        0.5968175438   -0.6835140418    1.9531272926
N        0.8540045233   -3.1616823204    2.5829376386
O       -1.3988836284   -3.3876424540    2.2090330358
H        2.5033611421    0.6000310886    0.6895151409
H        1.1577375181    0.3893498846   -0.4570986440
H        1.5593554756    2.0100287955    0.1493658490
H        2.0249450503    1.1652778082    3.1334641129
H        0.3457880118    1.3739714939    3.6873149494
H        1.0877712606    2.5929066752    2.6291287606
H        0.9673421572   -4.1315002249    2.8416282588
H        1.6383446370   -2.5232777765    2.5908622768
