20   
torsion grid (-90,)
C        3.5770901071   -2.6243915982   -2.5727581320
C        4.5956482508   -0.2176998778   -1.9480108564
C        3.1796063651   -0.4144916233   -2.0086269596
C        5.3770788218   -1.3952852577   -1.9931855176
C        2.3299659598   -0.5201122388    0.3021034950
C        0.8080372254    0.4108412664   -1.5136331944
C        2.2522558752    0.2800414018   -1.0131119965
N        2.7259230510   -1.6228550146   -2.3789517369
N        4.8714206748   -2.6093559766   -2.2404493265
O        6.7073399581   -1.3121900149   -1.7977650013
Br       5.4009108927    1.2326125252   -2.9568835180
H        3.1828694454   -3.5472533037   -2.9929257210
H        1.9343860571   -1.5302806665    0.1624214564
H        1.7291839779   -0.0147232735    1.0654433767
H        3.3588619525   -0.5920440627    0.6662681593
H        0.3863335722   -0.5714690513   -1.7414990584
H        0.7599837219    1.0213846180   -2.4207574116
H        0.1842745487    0.8868955565   -0.7501536078
H        2.6536450111    1.2828149559   -0.8210870129
H        7.0553303521   -2.2167164336   -1.9084522288
20   
torsion grid (-75,)
C        3.6064050565   -2.6604016732   -2.5535864763
C        4.6023749541   -0.2625909932   -1.8913542641
C        3.1996832108   -0.4742781711   -1.9385365643
C        5.4156922198   -1.4041494348   -2.0467878018
C        2.2808166024   -0.4717525371    0.3472656203
C        0.8405582314    0.4241692072   -1.5498060040
C        2.2653643620    0.2788896464   -0.9991729292
N        2.7387296175   -1.6838832781   -2.3072241202
N        4.9222041971   -2.6159565194   -2.3208271415
O        6.7522057547   -1.2930993739   -1.9261527642
Br       5.3476902672    1.3590735838   -2.6351491089
H        3.2094580209   -3.5946272551   -2.9456351401
H        1.8704503067   -1.4789803436    0.2299392596
H        1.6653194666    0.0715973077    1.0718125288
H        3.2955080267   -0.5511193017    0.7486726675
H        0.4010752569   -0.5565072930   -1.7490638251
H        0.8356227832    0.9958017788   -2.4832757850
H        0.2068095747    0.9483686334   -0.8271562371
H        2.6848026702    1.2784680531   -0.8352256500
H        7.1150082565   -2.1840515943   -2.0886314632
20   
torsion grid (-60,)
C        3.6163105241   -2.7008847269   -2.5477931268
C        4.6136188942   -0.3202050715   -1.8410285894
C        3.2207463085   -0.5381169255   -1.8679934786
C        5.4386542919   -1.4321798686   -2.1034307994
C        2.2417285987   -0.4234221817    0.3912575318
C        0.8682501950    0.4000288948   -1.5863075685
C        2.2747755687    0.2654798833   -0.9874830708
N        2.7454825963   -1.7434198854   -2.2428936995
N        4.9452930029   -2.6351409020   -2.4095005520
O        6.7775702079   -1.3051365263   -2.0505617970
Br       5.3579516935    1.3989309923   -2.2874675849
H        3.2123108673   -3.6403849464   -2.9199757503
H        1.8256460866   -1.4317095660    0.3063809067
H        1.6113710048    0.1561800913    1.0736150869
H        3.2436197911   -0.4945326491    0.8256868257
H        0.4234369098   -0.5841159592   -1.7533637872
H        0.8964788342    0.9277974230   -2.5449958505
H        0.2208997840    0.9641342709   -0.9070808685
H        2.6992075995    1.2668919927   -0.8566678885
H        7.1420968158   -2.1836172780   -2.2685444787
20   
torsion grid (-45,)
C        3.6057534498   -2.7449547242   -2.5066171645
C        4.6177957538   -0.3727782270   -1.8123672269
C        3.2328811737   -0.5977166840   -1.7781421311
C        5.4405974631   -1.4600981080   -2.1655845413
C        2.1859064547   -0.3779939627    0.4441518702
C        0.9079967934    0.4097601266   -1.6108136610
C        2.2880624392    0.2595350113   -0.9557664686
N        2.7426485267   -1.8036484168   -2.1409655756
N        4.9418108906   -2.6569452893   -2.4779000632
O        6.7776091803   -1.3125483271   -2.1941757855
Br       5.3546407990    1.3890183803   -2.0125153122
H        3.1911868674   -3.6915000839   -2.8479339470
H        1.7548468999   -1.3814329443    0.3779709383
H        1.5411210019    0.2359647521    1.0814449411
H        3.1684979213   -0.4523346474    0.9207402627
H        0.4368195129   -0.5666435784   -1.7493717199
H        0.9865046207    0.8919848203   -2.5905542990
H        0.2577287710    1.0251490711   -0.9807201115
H        2.7347087181    1.2523387827   -0.8465847827
H        7.1399240504   -2.1795234224   -2.4577588035
20   
torsion grid (-30,)
C        3.6121130168   -2.7361453494   -2.5384543055
C        4.6055939676   -0.3536964076   -1.8643604265
C        3.2327959281   -0.6100520442   -1.7582626233
C        5.4316911335   -1.4049015777   -2.3041624788
C        2.1542079819   -0.2834320340    0.4413641318
C        0.9102773288    0.3942933054   -1.6724739593
C        2.2800164401    0.2821411413   -0.9875317895
N        2.7487430405   -1.8238130871   -2.1060679581
N        4.9424602756   -2.6041220864   -2.6200973768
O        6.7598764977   -1.2204442829   -2.4154352105
Br       5.3353884404    1.4168443740   -1.8304328748
H        3.2033967938   -3.6959700706   -2.8485540219
H        1.7246534042   -1.2894848261    0.4181632684
H        1.4996081972    0.3603139549    1.0379387684
H        3.1289208923   -0.3335415773    0.9372593414
H        0.4432960798   -0.5890384139   -1.7683197307
H        1.0033680336    0.8260668989   -2.6743115845
H        0.2494788022    1.0396759116   -1.0846605396
H        2.7211177303    1.2799727846   -0.9211230170
H        7.1254050805   -2.0686580386   -2.7306730078
20   
torsion grid (-15,)
C        3.0470411219   -3.6201467655   -2.3374765933
C        4.1790522129   -1.2143912476   -2.5005929480
C        2.8239213678   -1.3421939194   -2.1706606722
C        4.9092563418   -2.3908349697   -2.7394078521
C        2.2260467574    0.0513408476   -0.2094229796
C        0.4854073715   -0.3807138593   -2.0125159629
C        1.9757010681   -0.1727250049   -1.7155951360
N        2.2687167655   -2.5716679329   -2.0884711389
N        4.3493509987   -3.5976376790   -2.6466147100
O        6.2120436995   -2.3263325135   -3.0704256898
Br       5.0128781555    0.4766611056   -2.8207793494
H        2.5828092002   -4.6028940719   -2.2813144552
H        1.9265764648   -0.8326376775    0.3630088818
H        1.6378739665    0.9047258500    0.1433755597
H        3.2812047961    0.2562369911   -0.0047607909
H        0.0868596831   -1.2304395961   -1.4535146724
H        0.3148484353   -0.5716846852   -3.0765805069
H       -0.0743790700    0.5173776990   -1.7316081283
H        2.3171701464    0.7201370274   -2.2473536025
H        6.5077728501   -3.2491475180   -3.1861870892
20   
torsion grid (0,)
C        3.3140643592   -3.3985075225   -2.1081913639
C        3.6697006348   -0.9973433645   -3.2062858872
C        2.7057785809   -1.1887899224   -2.2118188740
C        4.4454049334   -2.1065302367   -3.5889746824
C        1.6390890760   -0.1315217252   -0.1867888617
C        0.4201170067   -0.2325878967   -2.4182000907
C        1.7854656473   -0.0943539024   -1.7149704620
N        2.5343099788   -2.4165965285   -1.6702850902
N        4.2721823404   -3.3084905615   -3.0405723682
O        5.3949030944   -1.9759892980   -4.5334174615
Br       3.9558882859    0.6804167115   -4.0759713518
H        3.1647962579   -4.3817246905   -1.6661368086
H        1.1977935238   -1.0757245994    0.1405394481
H        0.9945190932    0.6903068621    0.1418581931
H        2.6098547039   -0.0212699820    0.3074029219
H       -0.0383501061   -1.1962606623   -2.1752720972
H        0.5243199630   -0.1628508400   -3.5058023566
H       -0.2543982690    0.5644042949   -2.0886501673
H        2.2169600522    0.8674443524   -2.0015656292
H        5.8002075992   -2.8581191732   -4.6336879661
20   
torsion grid (15,)
C        3.6738605634   -2.7732859563   -2.2555932992
C        3.7566618075   -0.1854830326   -2.8823226114
C        2.8805803407   -0.6504003759   -1.8937439910
C        4.5801762894   -1.1266461064   -3.5233434245
C        1.4495655901   -0.2385872392    0.1556914783
C        0.5865031376    0.2402678195   -2.1883281837
C        1.8186236976    0.2238187427   -1.2593667556
N        2.8498044527   -1.9678752200   -1.5930100885
N        4.5333910878   -2.4244934234   -3.2209518830
O        5.4477058903   -0.7337803815   -4.4740683786
Br       4.0079037651    1.6735625725   -3.2544428245
H        3.6484013926   -3.8290315465   -1.9925029293
H        1.0160032372   -1.2411154735    0.1418743207
H        0.7205959615    0.4530696540    0.5904738888
H        2.3285245027   -0.2633121710    0.8074434652
H        0.1771210581   -0.7693017511   -2.2972820122
H        0.8396533126    0.6212685226   -3.1823603310
H       -0.1916676110    0.8831245249   -1.7642528706
H        2.2091279229    1.2439578299   -1.2036018307
H        5.9058529842   -1.5419778848   -4.7730260108
20   
torsion grid (30,)
C        3.6015274433   -2.7624936452   -2.4505308567
C        3.9592730693   -0.1641646601   -2.9384959136
C        3.0117698867   -0.5896619513   -1.9989449418
C        4.6811195039   -1.1553969841   -3.6293549883
C        1.6521306438    0.0350788268    0.0435158823
C        0.6686151752    0.1358291282   -2.3011960681
C        1.9340872707    0.3176423213   -1.4392212514
N        2.8463619583   -1.9111966501   -1.7651431905
N        4.4892676132   -2.4555082278   -3.4052964642
O        5.5970537442   -0.8065469621   -4.5512257949
Br       4.5867096935    1.6430419238   -3.0328529866
H        3.4825000779   -3.8206890734   -2.2257436595
H        1.3274446568   -0.9985737857    0.1860975155
H        0.8649625005    0.7026587096    0.4087539531
H        2.5461782054    0.1983926209    0.6540762143
H        0.3059022724   -0.8943995039   -2.2357652933
H        0.8660006530    0.3682103515   -3.3526337783
H       -0.1210528559    0.8055583436   -1.9452553056
H        2.2693927157    1.3529676554   -1.5408682482
H        5.9655276732   -1.6418307303   -4.8961604793
20   
torsion grid (45,)
C        3.5738247542   -2.7594735302   -2.4743962138
C        3.9153968226   -0.1629312003   -2.9989832773
C        3.0257043614   -0.5799106059   -1.9966870198
C        4.5634277016   -1.1660452499   -3.7456490929
C        1.6044148489    0.0678432349    0.0053870172
C        0.6685020538    0.0471920248   -2.3610866885
C        1.9070180437    0.3065008661   -1.4804049255
N        2.8743265725   -1.8985908400   -1.7434614189
N        4.3684667053   -2.4645197723   -3.5112593032
O        5.4105599445   -0.8290028669   -4.7350804407
Br       4.7243639783    1.5783237311   -2.9780148156
H        3.4818320672   -3.8137598884   -2.2207651415
H        1.3136808239   -0.9712712920    0.1793290224
H        0.7867966729    0.7186482135    0.3317841707
H        2.4796084562    0.2849244859    0.6262752414
H        0.3415526213   -0.9926293429   -2.2662792240
H        0.8798614945    0.2505375589   -3.4156521232
H       -0.1514670792    0.6996372231   -2.0435736017
H        2.2081485485    1.3497905741   -1.6141859657
H        5.7360981577   -1.6689124780   -5.1105280021
20   
torsion grid (60,)
C        3.6153825907   -2.7279989891   -2.4492590139
C        3.9416776585   -0.1225331169   -2.9656653483
C        3.0951231958   -0.5492020397   -1.9218187936
C        4.5164238881   -1.1256234865   -3.7715834298
C        1.5610191267    0.0605761045    0.0194026628
C        0.7369900561   -0.0030311696   -2.3872981815
C        1.9240522392    0.3015582060   -1.4520359476
N        2.9613049738   -1.8682340645   -1.6740064127
N        4.3177222042   -2.4273436047   -3.5474255219
O        5.2992543273   -0.7870951572   -4.8128369648
Br       4.9456279980    1.5146717178   -2.8228228185
H        3.5538159498   -3.7819738572   -2.1851727948
H        1.3076439459   -0.9890046868    0.1881925474
H        0.7010182784    0.6763345668    0.3020073791
H        2.3954064449    0.3194690963    0.6790929088
H        0.4337354274   -1.0500504644   -2.2936906405
H        0.9922319371    0.1944428614   -3.4329681141
H       -0.1135738645    0.6306018376   -2.1153570385
H        2.1954911160    1.3551492557   -1.5798978173
H        5.5880365941   -1.6260256042   -5.2189448009
20   
torsion grid (75,)
C        3.6188528125   -2.6923974764   -2.4268050797
C        3.9811659586   -0.0823006444   -2.9129239286
C        3.1455301096   -0.5097288766   -1.8481989353
C        4.4611027324   -1.0877309409   -3.7775143954
C        1.5182847846    0.0886422997    0.0273421085
C        0.7897409549   -0.0543855668   -2.4067215115
C        1.9292073966    0.3099208875   -1.4343477397
N        3.0150695231   -1.8290575522   -1.6161104932
N        4.2361610839   -2.3896094056   -3.5734199952
O        5.1871201180   -0.7473285555   -4.8592690466
Br       5.2083744548    1.3851933298   -2.6320292295
H        3.5778739395   -3.7453918730   -2.1555625131
H        1.2937548504   -0.9651807335    0.2106920792
H        0.6276647231    0.6797480850    0.2640567444
H        2.3179065240    0.3906185009    0.7111313364
H        0.5157702575   -1.1080101224   -2.2995001621
H        1.0777775484    0.1289743893   -3.4461601591
H       -0.0894332573    0.5576699335   -2.1798381018
H        2.1713363951    1.3696127042   -1.5771350005
H        5.4297468190   -1.5840568006   -5.2984026036
20   
torsion grid (90,)
C        3.6203879796   -2.6675640653   -2.3834558541
C        4.0271563096   -0.0551704264   -2.8634848076
C        3.1955615219   -0.4739728213   -1.7769230604
C        4.3967087573   -1.0711881953   -3.7748046150
C        1.4686955419    0.0805580155    0.0288939813
C        0.8491296418   -0.1049482956   -2.4331304571
C        1.9323133907    0.3053839105   -1.4160656024
N        3.0708755885   -1.7914795893   -1.5494027183
N        4.1429339195   -2.3701409215   -3.5769581615
O        5.0568804065   -0.7389681568   -4.9010808543
Br       5.4794182227    1.1891017015   -2.5282306616
H        3.6044211038   -3.7166332149   -2.0956523208
H        1.2774458031   -0.9795429624    0.2140951891
H        0.5462159236    0.6377598447    0.2216766626
H        2.2261203876    0.4201765320    0.7422751718
H        0.6012903877   -1.1648606366   -2.3254418533
H        1.1758635596    0.0776728308   -3.4608995195
H       -0.0560851982    0.4833567044   -2.2500227370
H        2.1417105521    1.3726471594   -1.5597462752
H        5.2480948213   -1.5774496836   -5.3614087619
