25   
torsion grid (-165,)
C        2.3535182174   -1.0698786747   -0.1124871895
C        0.9867899625   -1.0834475620    0.1574664881
C        3.2870759716   -1.1729473112    0.9218322299
C        1.4861400881   -1.3367949816    2.5257207141
C        0.5516389086   -1.2258414288    1.4867123085
C        2.8633284691   -1.2926314370    2.2580524694
C       -0.9098277700   -1.2290837795    1.7457473109
C       -3.2421605168    0.3423231476    3.7796272844
C       -1.4394861334   -1.7489574223    3.0802512873
N        3.7933467763   -1.4269974609    3.2987594749
O       -1.7282113741   -0.8408441681    0.9168920411
O       -1.8268970031   -1.0158973438    5.6132300450
O       -0.6111480454    0.6029817020    4.0723427477
S       -1.6753766514   -0.3909610546    4.2898843992
H        2.7035937252   -0.9729302371   -1.1367909738
H        0.2505260306   -0.9884947246   -0.6331359712
H        4.3515334658   -1.1573630720    0.6965610626
H        1.1616058159   -1.4033483320    3.5589538337
H       -3.3681727281    1.2382377167    4.3902918961
H       -3.1734364406    0.5968671070    2.7210432391
H       -4.0444809485   -0.3717175641    3.9697860521
H       -2.4136204821   -2.2163660763    2.9275643602
H       -0.7741555585   -2.4484441354    3.5885984451
H        3.4487925090   -1.1276526178    4.2043658791
H        4.6995367683   -1.0170708057    3.1031563268
25   
torsion grid (-150,)
C        2.3907282065   -1.0563893986   -0.1032435597
C        1.0167914320   -1.0906139657    0.1237247539
C        3.2938293158   -1.1733173448    0.9564122133
C        1.4469726546   -1.3891246615    2.5005588400
C        0.5436709327   -1.2634489412    1.4359361094
C        2.8310505417   -1.3282841096    2.2757609649
C       -0.9252800705   -1.2864161932    1.6501807095
C       -3.2944431137    0.2455246735    3.9823133154
C       -1.4779404244   -1.7227397702    3.0056472015
N        3.7306438923   -1.4814493913    3.3406823569
O       -1.7281112539   -0.9800925750    0.7748036720
O       -1.4085509561   -0.8718941904    5.5360421009
O       -0.7046712602    0.7628888428    3.7192670415
S       -1.5909227636   -0.3146576806    4.1855644627
H        2.7706904134   -0.9318255369   -1.1138187634
H        0.3031311888   -0.9856862386   -0.6860725488
H        4.3644307361   -1.1418492600    0.7642935351
H        1.0963680091   -1.4946666188    3.5225023536
H       -3.3876281635    1.1524569452    4.5825624031
H       -3.4568437724    0.4644952007    2.9254804228
H       -3.9720858299   -0.5288466972    4.3445247339
H       -2.4863231392   -2.1165449373    2.8704156490
H       -0.8629994194   -2.4615774788    3.5209291056
H        3.3567382843   -1.2051676526    4.2420194554
H        4.6381521361   -1.0586447925    3.1818719040
25   
torsion grid (-135,)
C        2.4633496781   -1.0713608055   -0.0616018033
C        1.0809023818   -1.1279903111    0.0996491412
C        3.3166284346   -1.1823398108    1.0393276161
C        1.4013723924   -1.4331512818    2.4925337830
C        0.5478633486   -1.3130582429    1.3866034152
C        2.7936659076   -1.3536956430    2.3338826184
C       -0.9291095598   -1.3580434067    1.5342362659
C       -3.2842779756    0.1456136547    4.1931371886
C       -1.5273380463   -1.7007442613    2.8995831018
N        3.6427551659   -1.5058064659    3.4394482299
O       -1.6982397978   -1.1488119195    0.6039966894
O       -1.0470038068   -0.7423142882    5.3532256911
O       -0.8631035574    0.8811958686    3.3959220518
S       -1.5288432312   -0.2551904427    4.0484604165
H        2.8891233655   -0.9335336622   -1.0520172933
H        0.4048726484   -1.0284560043   -0.7424505232
H        4.3946049100   -1.1342409971    0.8987222645
H        1.0077723184   -1.5613581576    3.4966912037
H       -3.3365022001    1.0307864355    4.8298784893
H       -3.6730957971    0.3666671228    3.1977853254
H       -3.8071606857   -0.6918367615    4.6576153789
H       -2.5652470553   -2.0027391994    2.7533408265
H       -0.9868940191   -2.4839002608    3.4321088491
H        3.2215252678   -1.2442294093    4.3242442148
H        4.5510585738   -1.0695722343    3.3288914339
25   
torsion grid (-120,)
C        2.4996590957   -1.0869083032   -0.0239784639
C        1.1127535904   -1.1345681317    0.0950345834
C        3.3195732461   -1.2025352406    1.1021067573
C        1.3608797436   -1.4412857961    2.4966584716
C        0.5412645691   -1.3140785430    1.3663419547
C        2.7581207575   -1.3709532685    2.3804922401
C       -0.9393919921   -1.3434254159    1.4750411027
C       -3.1854925556    0.0790418090    4.4831160493
C       -1.5764953491   -1.6171066009    2.8421014312
N        3.5700437387   -1.5287708999    3.5128160707
O       -1.6834362308   -1.1799799518    0.5172200112
O       -0.7046325516   -0.5919758003    5.1675113596
O       -1.0504648305    1.0155198626    3.2112343685
S       -1.4670999402   -0.1657049689    3.9786407390
H        2.9558492461   -0.9511408722   -1.0010576162
H        0.4627594583   -1.0295780252   -0.7666464260
H        4.4014337742   -1.1601612212    0.9930064947
H        0.9382342590   -1.5694738539    3.4888471826
H       -3.1740715600    0.9239477621    5.1744079632
H       -3.7808192460    0.3162259897    3.6001133501
H       -3.5442676468   -0.8200071803    4.9868248672
H       -2.6354841349   -1.8181707952    2.6747928099
H       -1.1175101415   -2.4480174600    3.3792684506
H        3.1206862304   -1.2631775920    4.3826534158
H        4.4845398236   -1.0989847174    3.4319247977
25   
torsion grid (-105,)
C        2.5488817270   -1.1495487641   -0.0055521131
C        1.1597191662   -1.1639038737    0.0877610903
C        3.3444649298   -1.2695253768    1.1379823929
C        1.3527437080   -1.4452772805    2.4978956329
C        0.5589892530   -1.3136770045    1.3505107357
C        2.7535322708   -1.4081571554    2.4060884807
C       -0.9240381832   -1.3126096599    1.4255387438
C       -3.1186330487   -0.0487096294    4.6906273382
C       -1.6144354132   -1.5252145879    2.7812722580
N        3.5376918557   -1.5679105488    3.5578127994
O       -1.6391390472   -1.1778723421    0.4420834211
O       -0.4961294947   -0.3656959306    4.9432301738
O       -1.3731765295    1.1470242679    3.0785291151
S       -1.4936113315   -0.0651621732    3.8981569661
H        3.0264709182   -1.0364409147   -0.9752837565
H        0.5290281237   -1.0563095302   -0.7877184305
H        4.4289619981   -1.2527411571    1.0496229492
H        0.9068080754   -1.5424610196    3.4824131868
H       -3.0872525811    0.7706345571    5.4114369700
H       -3.8799389463    0.1390609027    3.9322527929
H       -3.2801445195   -0.9986410907    5.2029672032
H       -2.6748517645   -1.6763592833    2.5745920737
H       -1.2134331422   -2.3714519708    3.3422038069
H        3.0754801388   -1.2742784978    4.4118992843
H        4.4634486836   -1.1604922189    3.4894616585
25   
torsion grid (-90,)
C        2.5901680029   -1.2280605329   -0.0028292493
C        1.2004138505   -1.1716877686    0.0547469338
C        3.3514867007   -1.3507032984    1.1638607773
C        1.3222664180   -1.3881837687    2.4762111373
C        0.5629726482   -1.2535136026    1.3065001023
C        2.7250835109   -1.4204691674    2.4201274931
C       -0.9207984012   -1.1855333027    1.3377215962
C       -3.0979249403   -0.1575746595    4.7903608061
C       -1.6734893204   -1.3707886751    2.6659537837
N        3.4723618533   -1.5782873888    3.5971845119
O       -1.5950488841   -1.0258611661    0.3296715810
O       -0.4541317314    0.0135708513    4.6406640824
O       -1.8563358820    1.3004622717    2.9385460710
S       -1.6341768808    0.1051709004    3.7604163658
H        3.0958478311   -1.1690805827   -0.9630578049
H        0.5970726018   -1.0620888637   -0.8395153031
H        4.4373013640   -1.3886069559    1.1022923290
H        0.8458782986   -1.4231806688    3.4496173893
H       -3.0985208924    0.6588810046    5.5151652338
H       -3.9886550811   -0.1109172120    4.1625629680
H       -3.0116493363   -1.1173830496    5.3024022707
H       -2.7223865073   -1.5290724613    2.4109935859
H       -1.2934647675   -2.2051837899    3.2595820404
H        3.0063222075   -1.2253446474    4.4263929462
H        4.4192942249   -1.2211322852    3.5372320138
25   
torsion grid (-75,)
C        2.6346669141   -1.3361972930    0.0238798964
C        1.2497454574   -1.1957724765    0.0487225182
C        3.3630415126   -1.4622048300    1.2108371475
C        1.3076381300   -1.3360274343    2.4768300709
C        0.5811236082   -1.1984664570    1.2869704890
C        2.7069246337   -1.4503485498    2.4537149809
C       -0.8990121196   -1.0540607614    1.2759419750
C       -2.9843307143   -0.3264262460    4.9035530152
C       -1.7024561197   -1.2716351542    2.5689554284
N        3.4198690869   -1.6072823446    3.6528312955
O       -1.5285942265   -0.8188775838    0.2541302353
O       -0.4859172049    0.3736308540    4.3331705087
O       -2.3718903793    1.3110220502    2.8942253905
S       -1.7846184639    0.2043228714    3.6570636662
H        3.1622299601   -1.3419347791   -0.9263127414
H        0.6729485267   -1.0832068409   -0.8625125639
H        4.4457919311   -1.5656196010    1.1754988154
H        0.8083115344   -1.3011169072    3.4384163197
H       -3.0638430568    0.5052236084    5.6065240517
H       -3.9456222644   -0.5095778151    4.4217631180
H       -2.6089436515   -1.2159251287    5.4118547030
H       -2.7328849438   -1.4760646709    2.2748149888
H       -1.3046989258   -2.0862493397    3.1785329124
H        2.9681060502   -1.1800695177    4.4544393401
H        4.3912841589   -1.3226542408    3.5953070078
25   
torsion grid (-60,)
C        2.5416717577   -0.1679144675    0.1754819284
C        1.2648913860    0.2407365602    0.5512748651
C        3.1769612297   -1.2263237201    0.8322242349
C        1.2594841813   -1.4686215484    2.2837330895
C        0.6211287521   -0.4146832609    1.6171841130
C        2.5359005220   -1.8985641535    1.8870683836
C       -0.7393313546    0.0517594332    1.9964319633
C       -3.0498427521   -2.2505392193    4.7137142460
C       -1.3989863949   -0.4659240115    3.2849062667
N        3.1727586606   -2.9429471188    2.5756789092
O       -1.3517693853    0.8866396480    1.3454659944
O       -3.3036882003   -1.9422588849    2.0878811817
O       -1.2382994209   -3.1484705568    2.9972156371
S       -2.2497364355   -2.0815960352    3.0984235217
H        3.0530947417    0.3338167884   -0.6417885267
H        0.7536629476    1.0506202748    0.0428342296
H        4.1730389347   -1.5374554307    0.5235587621
H        0.7571479473   -2.0069551917    3.0794194787
H       -3.5706001583   -3.2097474689    4.6836302406
H       -2.2904847291   -2.2570175502    5.4971110172
H       -3.7637258807   -1.4366748102    4.8473727221
H       -0.6840006203   -0.5861152543    4.1020370279
H       -2.1798477593    0.2459926610    3.5558194241
H        3.8792881682   -3.4253294784    2.0315859465
H        2.5300231920   -3.6053886111    2.9965663419
25   
torsion grid (-45,)
C        2.4458960902   -0.1944789205    0.1051894421
C        1.2033519861    0.2404467001    0.5578804674
C        3.1070625987   -1.2537197339    0.7349452536
C        1.2856173259   -1.4452156722    2.3115371446
C        0.6201881525   -0.3911239857    1.6718933366
C        2.5277542942   -1.9002638016    1.8403292342
C       -0.7077250609    0.0926359652    2.1302457267
C       -3.2445359274   -2.2097840689    4.5844471916
C       -1.3403066791   -0.4853247879    3.4074553789
N        3.1936039627   -2.9416381843    2.5045805699
O       -1.3217454227    0.9790015369    1.5527301601
O       -2.8845249944   -2.1391378936    1.9490276503
O       -1.0677124146   -3.1756656968    3.4221658846
S       -2.0967432568   -2.1454400181    3.1869391171
H        2.9095829289    0.2865305649   -0.7520496195
H        0.6718117418    1.0508562577    0.0716397653
H        4.0758279706   -1.5849821213    0.3662152072
H        0.8347169116   -1.9604982020    3.1522446090
H       -3.6878387882   -3.2070724388    4.5554719430
H       -2.6901724144   -2.0702539283    5.5140122918
H       -4.0127814303   -1.4469642721    4.4518027645
H       -0.6286969626   -0.5776074528    4.2309589934
H       -2.1590749812    0.1817741225    3.6807524165
H        3.8495433021   -3.4508010673    1.9228931200
H        2.5712490718   -3.5801092741    2.9886977333
25   
torsion grid (-30,)
C        2.3697734522   -0.2068372471    0.0601944252
C        1.1547295798    0.2410494447    0.5717400177
C        3.0547718193   -1.2670328535    0.6618753875
C        1.3140032786   -1.4344583365    2.3306201845
C        0.6250317055   -0.3794654586    1.7173814851
C        2.5275004959   -1.9015939910    1.8001439008
C       -0.6792998589    0.1051874118    2.2362999203
C       -3.3534885788   -2.1812473933    4.4306837680
C       -1.2533504574   -0.4916418764    3.5305742097
N        3.2195353707   -2.9415938038    2.4375508658
O       -1.3202716964    0.9941894534    1.6929253347
O       -2.4284617084   -2.3276384486    1.9402994772
O       -0.9518935200   -3.1520727218    3.8573715582
S       -1.9307847137   -2.1904260776    3.3145148576
H        2.7927574678    0.2648628731   -0.8228750850
H        0.6039536763    1.0509440134    0.1063777299
H        4.0012996614   -1.6077857027    0.2469207980
H        0.9095238191   -1.9375987518    3.2027553318
H       -3.7615369880   -3.1933281842    4.3977300587
H       -3.0175706288   -1.9412364534    5.4408759800
H       -4.0866710434   -1.4615045239    4.0641760784
H       -0.5217625334   -0.5558275244    4.3382065693
H       -2.0903183382    0.1430417730    3.8252450531
H        3.8388370246   -3.4634733735    1.8278549634
H        2.6218938421   -3.5668429512    2.9677849867
25   
torsion grid (-15,)
C        2.3481873849   -0.9505773673   -0.0724114975
C        1.1415267026   -0.4201473042    0.3773895181
C        3.2448168485   -1.5475056588    0.8184892892
C        1.7388066461   -1.0685348884    2.6463135412
C        0.8371999686   -0.4804413607    1.7482430026
C        2.9452150978   -1.6231712358    2.1904065904
C       -0.4621589561    0.0739141435    2.2054322706
C       -2.7475808251   -1.3269726350    5.2320882874
C       -0.7836528553    0.0766241004    3.7051152888
N        3.8531607429   -2.1831457698    3.1005413386
O       -1.2888707346    0.5549901191    1.4421769638
O       -1.4692267161   -2.4960231335    3.2144831556
O       -0.1670446544   -1.9626438219    5.3443298590
S       -1.1952343103   -1.6038167588    4.3486530125
H        2.5982564532   -0.9093317582   -1.1292925152
H        0.4281182959    0.0311575618   -0.3033161078
H        4.1821660715   -1.9601986248    0.4508084048
H        1.5161581418   -1.1353351519    3.7070340276
H       -3.0227348893   -2.2938401504    5.6579149831
H       -2.5845103720   -0.5949923240    6.0248190431
H       -3.5037920018   -0.9940094337    4.5196651802
H        0.0363541745    0.4403537469    4.3258166679
H       -1.6667219265    0.7014997106    3.8454866422
H        4.4738355385   -2.8751621446    2.6962759765
H        3.4219138012   -2.5347548897    3.9487924143
25   
torsion grid (0,)
C        2.2864397562   -0.9422376252   -0.0940651219
C        1.0926815338   -0.4171787231    0.3954790231
C        3.2097968554   -1.5432955119    0.7654626341
C        1.7577193268   -1.0793221965    2.6408763210
C        0.8293681861   -0.4855561772    1.7740420662
C        2.9503403542   -1.6289320743    2.1453079800
C       -0.4556277565    0.0676447663    2.2721266565
C       -2.8812734941   -1.2578254131    5.0172751848
C       -0.7020157867    0.1170768503    3.7815359324
N        3.8878474766   -2.1940688347    3.0216787226
O       -1.3259327052    0.5064025133    1.5305243515
O       -1.2111294402   -2.5189911710    3.3888401621
O       -0.3406346147   -1.7561257762    5.6639838756
S       -1.1793630592   -1.5278881066    4.4734420476
H        2.5052903029   -0.8923450277   -1.1574627790
H        0.3590894242    0.0383024402   -0.2605964149
H        4.1370316438   -1.9512117274    0.3680207292
H        1.5663893288   -1.1524847337    3.7076108068
H       -3.2257739091   -2.2182018653    5.4055689530
H       -2.8924248073   -0.5010543943    5.8031623252
H       -3.4788226834   -0.9580106478    4.1548659178
H        0.1703937615    0.4269112064    4.3578347076
H       -1.5308776490    0.8012602942    3.9675847769
H        4.4966480238   -2.8813677028    2.5921142627
H        3.4866943000   -2.5533852196    3.8811952814
25   
torsion grid (15,)
C        2.2199751565   -0.9212241285   -0.1220904601
C        1.0350246754   -0.4289766532    0.4201314538
C        3.1844553863   -1.5197097830    0.6926231545
C        1.7934542574   -1.1172442950    2.6267659135
C        0.8234076154   -0.5247206609    1.8061983764
C        2.9767793089   -1.6364026850    2.0789921023
C       -0.4530623752   -0.0022413976    2.3562416230
C       -2.9695987235   -1.2269430679    4.7832592332
C       -0.6267918572    0.1057263811    3.8701428080
N        3.9554108326   -2.2022092099    2.9090485608
O       -1.3820735733    0.3629544634    1.6440895142
O       -0.9942885959   -2.5668229435    3.6432949790
O       -0.5905727570   -1.5641446537    5.9601183714
S       -1.1891684578   -1.4824843131    4.6173609996
H        2.3995015076   -0.8469814911   -1.1914017424
H        0.2700269294    0.0241282910   -0.2007788400
H        4.1041810342   -1.9023674678    0.2547570924
H        1.6362195978   -1.2194740203    3.6961489758
H       -3.3786585631   -2.1763619794    5.1338619059
H       -3.1530561235   -0.4360388030    5.5118851760
H       -3.3725484132   -0.9750785900    3.8007630995
H        0.2908207180    0.3547554959    4.4045863488
H       -1.3912223994    0.8528121978    4.0873243487
H        4.5614285032   -2.8676699304    2.4427197801
H        3.5925661255   -2.5890154397    3.7735103147
25   
torsion grid (30,)
C        2.1936049405   -0.8933117040   -0.1127771840
C        1.0102416676   -0.4373458671    0.4638208918
C        3.1809153763   -1.5011554676    0.6668113091
C        1.8191854173   -1.1780520227    2.6369325628
C        0.8271292164   -0.5757665659    1.8507453839
C        2.9988814926   -1.6644635150    2.0522157173
C       -0.4465540600   -0.0886422693    2.4371466009
C       -2.9894137760   -1.2196154638    4.5739885742
C       -0.5576226337    0.1021082209    3.9480115894
N        3.9983906703   -2.2447415201    2.8463472198
O       -1.4270795648    0.1860961195    1.7517563800
O       -0.7926164199   -2.5798014277    3.9932921563
O       -0.8663083486   -1.2934713117    6.2033589073
S       -1.2051196322   -1.4034903866    4.7758482569
H        2.3539899765   -0.7826418753   -1.1819638858
H        0.2279205683    0.0220897551   -0.1303545338
H        4.0985411814   -1.8557109364    0.2017257744
H        1.6723823727   -1.3244460837    3.7021416374
H       -3.4313167584   -2.1491719711    4.9375053110
H       -3.3290007245   -0.3713470127    5.1697274346
H       -3.2013416571   -1.0773431760    3.5130867223
H        0.3920640163    0.3025895452    4.4463816634
H       -1.2595802888    0.9095300406    4.1616182051
H        4.6059087497   -2.8853643646    2.3483169011
H        3.6557825618   -2.6644763538    3.7035982692
25   
torsion grid (45,)
C        2.1021649214   -0.8384911296   -0.1304537227
C        0.9403627490   -0.3792270683    0.4861652065
C        3.0983605179   -1.4812282644    0.6090340876
C        1.7909305998   -1.1850248191    2.6207664827
C        0.7902017831   -0.5479051756    1.8740601246
C        2.9467268818   -1.6768983867    1.9940065643
C       -0.4602351282   -0.0566982696    2.5053998739
C       -2.9302165905   -1.2851010843    4.4374078764
C       -0.5083228871    0.1620345153    4.0161501399
N        3.9533929045   -2.2959442489    2.7481554243
O       -1.4686985784    0.2036971345    1.8549945038
O       -0.5650050189   -2.4964200678    4.3566222403
O       -1.0888687746   -0.9832179265    6.3478810122
S       -1.1895357383   -1.2833067996    4.9113095864
H        2.2386844317   -0.7025511351   -1.2000346813
H        0.1518030168    0.1074498572   -0.0773527995
H        3.9986289452   -1.8379491399    0.1127195683
H        1.6601833536   -1.3623251365    3.6829880237
H       -3.3540956225   -2.1894141459    4.8781100020
H       -3.4069299195   -0.3948657105    4.8490547331
H       -3.0017675861   -1.3079633858    3.3499841998
H        0.4652972708    0.3288256012    4.4800153603
H       -1.1678457130    1.0028892404    4.2378234901
H        4.5346153974   -2.9377646178    2.2211996374
H        3.6242738055   -2.7256761400    3.6057634035
25   
torsion grid (60,)
C        2.0275715250   -0.8284902119   -0.1194697691
C        0.8961962296   -0.3313255719    0.5233914800
C        3.0137465543   -1.5131272976    0.5959898733
C        1.7575945430   -1.1870425869    2.6355607182
C        0.7673172146   -0.5063509432    1.9131559221
C        2.8827932392   -1.7146704202    1.9822216453
C       -0.4506058168    0.0256244787    2.5744491499
C       -2.8106543438   -1.4428087633    4.2570215317
C       -0.4708545710    0.2125721429    4.0903779518
N        3.8810864066   -2.3744044533    2.7119468639
O       -1.4559773223    0.3434938078    1.9451138185
O       -0.3621984659   -2.3989007126    4.6878442366
O       -1.3601887324   -0.7794001465    6.3896989809
S       -1.1814109784   -1.2131513610    4.9955105696
H        2.1486504938   -0.6887035352   -1.1904258729
H        0.1161792582    0.1904220754   -0.0202920840
H        3.8908512975   -1.8974351557    0.0792426497
H        1.6381894700   -1.3701407008    3.6980674518
H       -3.2703386038   -2.2520583926    4.8278061294
H       -3.3818910058   -0.5205462230    4.3654719497
H       -2.7001897963   -1.7170989672    3.2088421076
H        0.5125025274    0.3464926018    4.5444101825
H       -1.1078698501    1.0650078925    4.3315882400
H        4.4241727693   -3.0388952339    2.1725789216
H        3.5557545720   -2.7891364272    3.5783968203
25   
torsion grid (75,)
C        1.9754763055   -0.8821457135   -0.1020463140
C        0.8841668901   -0.3124911660    0.5492649803
C        2.9347174826   -1.6083810025    0.6097557259
C        1.7319334299   -1.1805864361    2.6627375167
C        0.7680087934   -0.4592623628    1.9438661174
C        2.8173690296   -1.7779548417    2.0013651571
C       -0.4097185716    0.1457005472    2.6157444123
C       -2.5672614088   -1.6571936784    3.9853351381
C       -0.4372948185    0.2733121517    4.1386055869
N        3.7904074525   -2.4750146884    2.7287694294
O       -1.3815603932    0.5610226618    1.9911732883
O       -0.1667771178   -2.2684169731    4.9693496592
O       -1.6669353977   -0.6881777578    6.2944413499
S       -1.1583408166   -1.1775783825    5.0042082207
H        2.0862294710   -0.7673062879   -1.1770746354
H        0.1254652479    0.2434364643    0.0093830867
H        3.7804510991   -2.0489135877    0.0856281391
H        1.6241447254   -1.3360928067    3.7308223053
H       -3.0902777636   -2.4208174033    4.5642604110
H       -3.2042619611   -0.7870244094    3.8246732860
H       -2.2094169696   -2.0641293040    3.0399250032
H        0.5439736962    0.3949079387    4.6004254304
H       -1.0829183329    1.1122166342    4.4007189340
H        4.2976967982   -3.1710421445    2.1946340183
H        3.4597335656   -2.8564921156    3.6083084507
25   
torsion grid (90,)
C        1.8024753447   -0.9125510072   -0.0770066586
C        0.7821258781   -0.2519809782    0.6028548520
C        2.7436341413   -1.6810347696    0.6145055403
C        1.6635372253   -1.1175052188    2.7038064801
C        0.7175752555   -0.3536683679    2.0047105205
C        2.6791928299   -1.8009539814    2.0147319502
C       -0.3929180724    0.3384323063    2.7089107271
C       -2.2246474303   -1.8171203599    3.7944344347
C       -0.4093165174    0.3868351992    4.2369267275
N        3.6387343996   -2.5344440629    2.7220698535
O       -1.3221475934    0.8683131691    2.1084854754
O       -0.0142830210   -2.0701281032    5.2632225369
O       -1.9332151509   -0.6579380758    6.1689468744
S       -1.1176726403   -1.1174041337    5.0354015549
H        1.8710345917   -0.8366746058   -1.1589757776
H        0.0382203323    0.3387787465    0.0796903127
H        3.5341553374   -2.1916017080    0.0682343453
H        1.6025187118   -1.2311168096    3.7808782748
H       -2.7331443982   -2.6418682040    4.2974035916
H       -2.9384123771   -1.0537713898    3.4830267455
H       -1.6376709955   -2.1825673213    2.9512723197
H        0.5765083870    0.4937836815    4.6919804012
H       -1.0633484274    1.2030633380    4.5434859510
H        4.0789013027   -3.2781742966    2.1929229917
H        3.3303509194   -2.8601157450    3.6316254563
25   
torsion grid (105,)
C        1.7283935395   -0.9077116933   -0.0619653699
C        0.7487900273   -0.1977452251    0.6295845575
C        2.6386086005   -1.7211363851    0.6181139200
C        1.6080568146   -1.1070733940    2.7189233690
C        0.6918869265   -0.2969093894    2.0305403630
C        2.5842475236   -1.8365899001    2.0198253494
C       -0.3838728256    0.4385673439    2.7499143098
C       -1.9231790272   -1.9605661604    3.6960587701
C       -0.3795360403    0.4448502221    4.2773544458
N        3.5187788921   -2.6099982163    2.7157470782
O       -1.2866039619    1.0240860582    2.1634706908
O       -0.0067793343   -1.8857901107    5.5564759439
O       -2.1775654527   -0.6121556843    5.9637588021
S       -1.1232372669   -1.0664778461    5.0457240556
H        1.7880303902   -0.8348991461   -1.1446620999
H        0.0280102222    0.4273600028    0.1139788331
H        3.3982163268   -2.2683425918    0.0635919921
H        1.5631607554   -1.2119141950    3.7985802693
H       -2.4352048783   -2.7962198722    4.1770977948
H       -2.6417838516   -1.2995438670    3.2104185788
H       -1.1692293764   -2.3200225058    2.9958743390
H        0.6160474145    0.5145287810    4.7158910101
H       -1.0115026145    1.2654149125    4.6163761594
H        3.9232201706   -3.3724458837    2.1850642833
H        3.2179399763   -2.9127291959    3.6354961988
25   
torsion grid (120,)
C        1.9453508237   -0.8498547773   -0.1093876416
C        0.6398186847   -1.2363955644    0.1881962701
C        2.9024863063   -0.7188630653    0.9000318443
C        1.2556876264   -1.3828535872    2.5406883411
C        0.2962687182   -1.5070929151    1.5236015618
C        2.5673406334   -0.9777454962    2.2425042042
C       -1.1118505821   -1.8812914920    1.8310444404
C       -1.7122637957    0.6171818117    3.3662122013
C       -1.4687630024   -2.2866202514    3.2595738089
N        3.5294464937   -0.8972377138    3.2542380560
O       -1.9985082740   -1.8577788182    0.9862839971
O       -3.1425764046   -0.9779165318    4.9037865465
O       -0.6190613778   -0.8053936188    5.3329335616
S       -1.7649382101   -0.8609822405    4.4046708673
H        2.2277583197   -0.6425073161   -1.1381294233
H       -0.1169638577   -1.3305342818   -0.5829338353
H        3.9175747166   -0.4174691492    0.6498412356
H        0.9994017284   -1.5683592706    3.5795046031
H       -1.9718461079    1.4377873077    4.0379435140
H       -0.7093939543    0.7516316252    2.9618183238
H       -2.4573387546    0.5215583208    2.5757484439
H       -2.4198895909   -2.8184585603    3.2353862456
H       -0.7022648699   -2.8859228904    3.7505590673
H        3.1555587729   -0.7599099895    4.1866279035
H        4.2996350935   -0.2671875020    3.0636084955
25   
torsion grid (135,)
C        2.0115288863   -0.8701170187   -0.1108119249
C        0.6920100642   -1.2021270280    0.1871956252
C        2.9750374934   -0.7869798768    0.8986202002
C        1.3034445246   -1.3946408383    2.5373398248
C        0.3384538795   -1.4699561381    1.5221538159
C        2.6296442534   -1.0397826270    2.2388672967
C       -1.0805075146   -1.7954474216    1.8236881439
C       -2.0356450849    0.6068959009    3.3644009946
C       -1.4707126362   -2.2267743392    3.2375808988
N        3.5931964755   -1.0012099190    3.2528895331
O       -1.9667933674   -1.7160012091    0.9800338185
O       -2.9620926929   -1.1084917571    5.1607216360
O       -0.4550541698   -0.6035738397    5.1305357057
S       -1.7263973863   -0.8276159303    4.4157073502
H        2.3011257256   -0.6682604541   -1.1386778464
H       -0.0687671970   -1.2596132505   -0.5835016985
H        4.0015051043   -0.5259744480    0.6491543455
H        1.0370047816   -1.5679259309    3.5746404597
H       -2.2800835853    1.4174329958    4.0536534149
H       -1.1348439039    0.8427224106    2.7970727643
H       -2.8783926243    0.3915556939    2.7067747582
H       -2.4367249560   -2.7285305721    3.1843444556
H       -0.7329912934   -2.8640823197    3.7272644810
H        3.2191830276   -0.8419617034    4.1819417349
H        4.3853348747   -0.3982347182    3.0638554066
25   
torsion grid (150,)
C        2.1065259771   -0.9499239311   -0.1405803270
C        0.7669845829   -1.1794414882    0.1634471229
C        3.0742734463   -0.9193450488    0.8678846218
C        1.3678096730   -1.3777308570    2.5167810502
C        0.3986773925   -1.4006602957    1.5034326382
C        2.7147773817   -1.1209313708    2.2129209974
C       -1.0368754083   -1.6292777359    1.8065361332
C       -2.4637854756    0.5689094109    3.4434826729
C       -1.4565795908   -2.1161694042    3.1935941930
N        3.6811168218   -1.1276409077    3.2266205711
O       -1.9217711444   -1.4407490363    0.9771284733
O       -2.7667080602   -1.2574419088    5.3503243372
O       -0.4312078652   -0.3200987158    4.9147856434
S       -1.7430577434   -0.7703939898    4.4138558854
H        2.4089117251   -0.7885249484   -1.1719142981
H        0.0028664288   -1.1952769165   -0.6059566909
H        4.1164899362   -0.7374204612    0.6135612752
H        1.0856942811   -1.5048685015    3.5563338155
H       -2.7751198552    1.3161077695    4.1760033486
H       -1.7081798781    0.9767961768    2.7720954037
H       -3.3216198094    0.1872560169    2.8891276880
H       -2.4172263677   -2.6234293679    3.1007372438
H       -0.7300539824   -2.7682343463    3.6814951847
H        3.3186610778   -0.9159232831    4.1498249629
H        4.5098638071   -0.5809386181    3.0232124144
25   
torsion grid (165,)
C        2.1847057866   -1.0266992222   -0.1492021644
C        0.8336278334   -1.1573021300    0.1633925735
C        3.1556110976   -1.0439440697    0.8560484779
C        1.4271004745   -1.3555616515    2.5174671815
C        0.4551373565   -1.3304530381    1.5072331908
C        2.7864785663   -1.1939449422    2.2053128230
C       -0.9911528041   -1.4592341737    1.8157632447
C       -2.8287482109    0.4826790746    3.5905471680
C       -1.4339261328   -1.9928145039    3.1773247095
N        3.7550023364   -1.2428708457    3.2168292655
O       -1.8659681659   -1.1634291906    1.0064816808
O       -2.4851281879   -1.3149310272    5.5217041972
O       -0.4539814869   -0.0065093771    4.6941918386
S       -1.7348898069   -0.6840630177    4.4248807177
H        2.4933795243   -0.9059117999   -1.1842293529
H        0.0676656896   -1.1330768785   -0.6040000995
H        4.2070959522   -0.9384730380    0.5966425044
H        1.1383984996   -1.4387967429    3.5596716014
H       -3.1097791905    1.2070031172    4.3575726073
H       -2.2925532483    0.9661231745    2.7749945036
H       -3.7052772632   -0.0519192052    3.2237957636
H       -2.3892937145   -2.5055509374    3.0565599187
H       -0.7151787274   -2.6569900651    3.6605035188
H        3.4106241772   -0.9827567454    4.1345867701
H        4.6152077049   -0.7535061254    2.9980636900
25   
torsion grid (180,)
C        2.2668558358   -1.0640670428   -0.1461325062
C        0.9078228940   -1.1110904805    0.1568791393
C        3.2275744810   -1.1250018374    0.8666997291
C        1.4721669177   -1.3149369160    2.5172944540
C        0.5109066722   -1.2463752885    1.4991474711
C        2.8406746204   -1.2350610755    2.2149415900
C       -0.9425634627   -1.2859826058    1.7974401838
C       -3.0740037024    0.4332212554    3.6997474672
C       -1.4236688714   -1.8360586925    3.1386546344
N        3.7985476621   -1.3246318350    3.2344374743
O       -1.7907319265   -0.9062004099    0.9947397667
O       -2.1611948902   -1.1925352449    5.6108088927
O       -0.5087168770    0.3358259394    4.4105739995
S       -1.7057187947   -0.5226392186    4.3827775393
H        2.5895661682   -0.9743996869   -1.1800338692
H        0.1503395109   -1.0497176757   -0.6168846987
H        4.2853168152   -1.0838496184    0.6147009913
H        1.1712898157   -1.3675001852    3.5582034725
H       -3.2255453143    1.2613547068    4.3947426618
H       -2.7993651359    0.7962348530    2.7097817624
H       -3.9590661148   -0.2023833905    3.6579589777
H       -2.3830627443   -2.3367513699    2.9970119056
H       -0.7239171543   -2.5159500264    3.6274098112
H        3.4643028179   -1.0287969466    4.1450556376
H        4.6860030630   -0.8874140919    3.0139228570
