
  -OEChem-05262117483D

 38 40  0     0  0  0  0  0  0999 V2000
   -8.8629    3.3718    0.2105 C   0  0  0  0  0  0  0  0  0  0  0  0
   -7.5451    2.9134    0.1533 C   0  0  0  0  0  0  0  0  0  0  0  0
   -9.1867    4.5486    0.8897 C   0  0  0  0  0  0  0  0  0  0  0  0
   -6.8413    4.8230    1.4881 C   0  0  0  0  0  0  0  0  0  0  0  0
   -3.2603    2.0819    0.8636 C   0  0  0  0  0  0  0  0  0  0  0  0
   -6.5415    3.6363    0.8075 C   0  0  0  0  0  0  0  0  0  0  0  0
   -8.1619    5.2638    1.5144 C   0  0  0  0  0  0  0  0  0  0  0  0
   -3.0454    3.4884    0.6868 C   0  0  0  0  0  0  0  0  0  0  0  0
   -4.6433    1.9643    0.9196 C   0  0  0  0  0  0  0  0  0  0  0  0
   -2.3038    0.9945    0.9768 C   0  0  0  0  0  0  0  0  0  0  0  0
   -0.5421   -1.1746    0.9816 C   0  0  0  0  0  0  0  0  0  0  0  0
    1.1127    0.5163    0.3545 C   0  0  0  0  0  0  0  0  0  0  0  0
    0.6310   -2.0983    1.3133 C   0  0  0  0  0  0  0  0  0  0  0  0
    2.2053   -0.4677    0.7505 C   0  0  0  0  0  0  0  0  0  0  0  0
   -1.7462    4.2153    0.5527 C   0  0  0  0  0  0  0  0  0  0  0  0
   -4.1971    4.1512    0.6422 N   0  0  0  0  0  0  0  0  0  0  0  0
   -1.0344    1.2275    0.9140 N   0  0  0  0  0  0  0  0  0  0  0  0
   -5.1879    3.2117    0.7743 N   0  0  0  0  0  0  0  0  0  0  0  0
   -0.1212    0.2223    1.0912 N   0  0  0  0  0  0  0  0  0  0  0  0
    1.7848   -1.8140    0.5323 O   0  0  0  0  0  0  0  0  0  0  0  0
   -8.5456    6.7522    2.3626 Cl  0  0  0  0  0  0  0  0  0  0  0  0
   -5.5749    0.5413    1.2262 Cl  0  0  0  0  0  0  0  0  0  0  0  0
   -9.6459    2.8145   -0.2957 H   0  0  0  0  0  0  0  0  0  0  0  0
   -7.3018    2.0187   -0.4071 H   0  0  0  0  0  0  0  0  0  0  0  0
  -10.2088    4.9109    0.9276 H   0  0  0  0  0  0  0  0  0  0  0  0
   -6.0497    5.3821    1.9723 H   0  0  0  0  0  0  0  0  0  0  0  0
   -2.7281    0.0002    1.1274 H   0  0  0  0  0  0  0  0  0  0  0  0
   -0.9326   -1.3866   -0.0289 H   0  0  0  0  0  0  0  0  0  0  0  0
   -1.3390   -1.3765    1.7043 H   0  0  0  0  0  0  0  0  0  0  0  0
    1.4085    1.5408    0.5939 H   0  0  0  0  0  0  0  0  0  0  0  0
    0.9375    0.4524   -0.7316 H   0  0  0  0  0  0  0  0  0  0  0  0
    0.8730   -2.0067    2.3833 H   0  0  0  0  0  0  0  0  0  0  0  0
    0.3578   -3.1355    1.1039 H   0  0  0  0  0  0  0  0  0  0  0  0
    3.0966   -0.3148    0.1372 H   0  0  0  0  0  0  0  0  0  0  0  0
    2.4732   -0.3279    1.8091 H   0  0  0  0  0  0  0  0  0  0  0  0
   -1.1893    3.8572   -0.3182 H   0  0  0  0  0  0  0  0  0  0  0  0
   -1.9352    5.2864    0.4495 H   0  0  0  0  0  0  0  0  0  0  0  0
   -1.1103    4.0353    1.4243 H   0  0  0  0  0  0  0  0  0  0  0  0
  1  2  1  0  0  0  0
  1  3  2  0  0  0  0
  1 23  1  0  0  0  0
  2  6  2  0  0  0  0
  2 24  1  0  0  0  0
  3  7  1  0  0  0  0
  3 25  1  0  0  0  0
  4  6  1  0  0  0  0
  4  7  2  0  0  0  0
  4 26  1  0  0  0  0
  5  8  1  0  0  0  0
  5  9  2  0  0  0  0
  5 10  1  0  0  0  0
  6 18  1  0  0  0  0
  7 21  1  0  0  0  0
  8 15  1  0  0  0  0
  8 16  2  0  0  0  0
  9 18  1  0  0  0  0
  9 22  1  0  0  0  0
 10 17  2  0  0  0  0
 10 27  1  0  0  0  0
 11 13  1  0  0  0  0
 11 19  1  0  0  0  0
 11 28  1  0  0  0  0
 11 29  1  0  0  0  0
 12 14  1  0  0  0  0
 12 19  1  0  0  0  0
 12 30  1  0  0  0  0
 12 31  1  0  0  0  0
 13 20  1  0  0  0  0
 13 32  1  0  0  0  0
 13 33  1  0  0  0  0
 14 20  1  0  0  0  0
 14 34  1  0  0  0  0
 14 35  1  0  0  0  0
 15 36  1  0  0  0  0
 15 37  1  0  0  0  0
 15 38  1  0  0  0  0
 16 18  1  0  0  0  0
 17 19  1  0  0  0  0
M  END
$$$$
