20
0 1 C8ClH8NO2
C                     1.971382593389    -0.916315537301    -0.116009482563
C                     0.856410078793    -0.399537858861     0.541330209822
C                     2.981947597637    -1.544697663156     0.604860410512
C                     0.733512460523    -0.531595931530     1.932547928931
C                     2.908621331924    -1.664992205809     2.005370518483
C                     1.763724147695    -1.155573858339     2.656827972246
C                    -0.526272953844     0.031613586326     2.518653113740
C                    -2.211057297516    -0.176531940531     4.154228564786
N                     3.976928227194    -2.210553907111     2.716640311440
O                    -1.090504969074     1.012124230191     2.065209290079
O                    -1.003488798961    -0.687040049089     3.553480692009
Cl                    1.733159417059    -1.275858722340     4.413176246891
H                     2.056789329225    -0.826090076742    -1.195201643017
H                     0.065455268006     0.107366685186    -0.000127023698
H                     3.859116388219    -1.934294261352     0.092811793009
H                    -2.433995290659    -0.857787791661     4.975014761847
H                    -3.024818296681    -0.168328391990     3.425291105838
H                    -2.050625896417     0.838066992177     4.525932014581
H                     4.546777701937    -2.857052562943     2.184936396008
H                     3.749698516912    -2.560949808972     3.639580882830
