25
0 1 C10ClH10N3O
C                     5.892666175265    -1.613406233277    -0.418836957026
C                     6.387032055810    -2.903570578869    -0.638142873591
C                     5.092568531680    -1.356234252929     0.696146749668
C                     6.079603724173    -3.931265033551     0.256717067867
C                     6.363903847224    -3.630395588852     5.780655097496
C                     6.913426942666    -2.346639065979     4.055820849777
C                     7.437493164040    -3.307692784575     4.901152688333
C                     4.787374322725    -2.376211144836     1.605297545042
C                     5.287357863870    -3.668607163020     1.378048366331
C                     4.602518429962    -1.396575569574     3.762213938952
N                     5.262599434926    -2.938490739580     5.494399198976
N                     5.609188118427    -2.143618710367     4.455761386037
N                     8.757352574565    -3.803748211534     4.959356328806
O                     3.979160180250    -2.124423442062     2.691608858806
Cl                    4.926542669110    -4.952923026204     2.502053734826
H                     6.117875952633    -0.813669366839    -1.118820400225
H                     7.004626496759    -3.115292793327    -1.506413713421
H                     4.680374103341    -0.365699114115     0.870002937384
H                     6.453113028241    -4.937806745800     0.095534187504
H                     6.363898920584    -4.330739623985     6.607974315312
H                     7.344834329703    -1.807914371281     3.223322722770
H                     3.802178962975    -1.171626814157     4.464447184354
H                     5.052306501656    -0.477660216388     3.372214975573
H                     9.230514049105    -3.738499539603     4.063694043569
H                     8.781660197442    -4.769622771562     5.271189679714
