
  -OEChem-05262117483D

 28 29  0     1  0  0  0  0  0999 V2000
    1.1221    0.5818   -3.3503 C   0  0  0  0  0  0  0  0  0  0  0  0
    0.9458   -0.1917   -4.5533 C   0  0  0  0  0  0  0  0  0  0  0  0
    0.3924   -0.0428   -2.3803 C   0  0  0  0  0  0  0  0  0  0  0  0
    0.1249   -1.2371   -4.2366 C   0  0  0  0  0  0  0  0  0  0  0  0
    0.2312    1.9105    0.8005 C   0  0  0  0  0  0  0  0  0  0  0  0
    1.1828    1.0328    1.6072 C   0  0  0  0  0  0  0  0  0  0  0  0
    1.1449   -0.6189   -0.0636 C   0  0  0  0  0  0  0  0  0  0  0  0
    0.1795    0.2164   -0.9250 C   0  0  1  0  0  0  0  0  0  0  0  0
    0.0867   -3.7558   -4.5030 C   0  0  0  0  0  0  0  0  0  0  0  0
   -0.4227   -2.3926   -5.0057 C   0  0  0  0  0  0  0  0  0  0  0  0
    0.4241    1.6343   -0.6287 N   0  0  0  0  0  0  0  0  0  0  0  0
   -0.2227   -1.1566   -2.9054 O   0  0  0  0  0  0  0  0  0  0  0  0
    0.9674   -0.3503    1.3244 O   0  0  0  0  0  0  0  0  0  0  0  0
    1.7125    1.4772   -3.2136 H   0  0  0  0  0  0  0  0  0  0  0  0
    1.3729    0.0053   -5.5282 H   0  0  0  0  0  0  0  0  0  0  0  0
   -0.8022    1.7098    1.1340 H   0  0  0  0  0  0  0  0  0  0  0  0
    0.4542    2.9658    0.9922 H   0  0  0  0  0  0  0  0  0  0  0  0
    2.2234    1.3039    1.3724 H   0  0  0  0  0  0  0  0  0  0  0  0
    1.0147    1.1581    2.6800 H   0  0  0  0  0  0  0  0  0  0  0  0
    0.9541   -1.6850   -0.2042 H   0  0  0  0  0  0  0  0  0  0  0  0
    2.1768   -0.3910   -0.3695 H   0  0  0  0  0  0  0  0  0  0  0  0
   -0.8464   -0.0954   -0.6576 H   0  0  0  0  0  0  0  0  0  0  0  0
    1.1771   -3.8157   -4.5786 H   0  0  0  0  0  0  0  0  0  0  0  0
   -0.3448   -4.5708   -5.0935 H   0  0  0  0  0  0  0  0  0  0  0  0
   -0.1884   -3.9113   -3.4557 H   0  0  0  0  0  0  0  0  0  0  0  0
   -1.5192   -2.3747   -4.9612 H   0  0  0  0  0  0  0  0  0  0  0  0
   -0.1476   -2.2523   -6.0559 H   0  0  0  0  0  0  0  0  0  0  0  0
   -0.2096    2.2045   -1.1849 H   0  0  0  0  0  0  0  0  0  0  0  0
  1  2  1  0  0  0  0
  1  3  2  0  0  0  0
  1 14  1  0  0  0  0
  2  4  2  0  0  0  0
  2 15  1  0  0  0  0
  3  8  1  0  0  0  0
  3 12  1  0  0  0  0
  4 10  1  0  0  0  0
  4 12  1  0  0  0  0
  5  6  1  0  0  0  0
  5 11  1  0  0  0  0
  5 16  1  0  0  0  0
  5 17  1  0  0  0  0
  6 13  1  0  0  0  0
  6 18  1  0  0  0  0
  6 19  1  0  0  0  0
  7  8  1  0  0  0  0
  7 13  1  0  0  0  0
  7 20  1  0  0  0  0
  7 21  1  0  0  0  0
  8 11  1  0  0  0  0
  8 22  1  0  0  0  0
  9 10  1  0  0  0  0
  9 23  1  0  0  0  0
  9 24  1  0  0  0  0
  9 25  1  0  0  0  0
 10 26  1  0  0  0  0
 10 27  1  0  0  0  0
 11 28  1  0  0  0  0
M  END
$$$$
