28
0 1 C10H15NO2
C                     2.857740869033     0.219531483643     1.449998612543
C                     3.879992577350    -0.715412409125     1.846544715126
C                     2.266532711962    -0.303501693856     0.337962163615
C                     3.845812243422    -1.745174390919     0.949375290859
C                    -0.556886157112     0.687282248207     1.075207424307
C                    -1.407290952998    -0.435783132225     0.482469849846
C                     0.271648686592    -0.954423175773    -1.084912597852
C                     1.176580161562     0.184517356935    -0.574464185776
C                     5.445202879601    -3.047507690356    -0.522926542999
C                     4.631919192989    -3.002382251886     0.783546065249
N                     0.410807195573     1.242043510105     0.112563739864
O                     2.860449007493    -1.501965206367     0.017225337345
O                    -0.580155285589    -1.462995353007    -0.064031934771
H                     2.591799369241     1.156958418760     1.918047954765
H                     4.551209455241    -0.634488238188     2.692026490753
H                    -1.194083660908     1.502659275196     1.435180110738
H                     0.000020346864     0.296711556477     1.932085565635
H                    -2.026450906515    -0.914387903475     1.247187165510
H                    -2.071494296059    -0.037231961316    -0.304503913159
H                    -0.337301120735    -0.566776309843    -1.919405738819
H                     0.861898376732    -1.799187159555    -1.445166182130
H                     1.642166199744     0.646632135492    -1.456582746525
H                     4.786758418662    -2.969343443162    -1.393034770773
H                     6.001230108015    -3.987885725067    -0.599838444698
H                     6.160562778471    -2.219905018768    -0.565243082376
H                     5.300549791348    -3.091357367240     1.645686164839
H                     3.953932921465    -3.864817367771     0.819846727591
H                    -0.091242433323     1.780234540169    -0.591652533633
