
  -OEChem-05262117483D

 38 40  0     0  0  0  0  0  0999 V2000
   -4.6121    2.7429   -8.8990 C   0  0  0  0  0  0  0  0  0  0  0  0
   -3.8956    2.6055   -7.7085 C   0  0  0  0  0  0  0  0  0  0  0  0
   -3.9795    2.6161  -10.1381 C   0  0  0  0  0  0  0  0  0  0  0  0
   -1.8714    2.1925   -8.9946 C   0  0  0  0  0  0  0  0  0  0  0  0
   -0.9324    1.6309   -4.5770 C   0  0  0  0  0  0  0  0  0  0  0  0
   -2.5280    2.3167   -7.7643 C   0  0  0  0  0  0  0  0  0  0  0  0
   -2.6086    2.3486  -10.1657 C   0  0  0  0  0  0  0  0  0  0  0  0
   -0.0134    2.4167   -5.3410 C   0  0  0  0  0  0  0  0  0  0  0  0
   -2.0325    1.4977   -5.4197 C   0  0  0  0  0  0  0  0  0  0  0  0
   -0.6884    1.1206   -3.2370 C   0  0  0  0  0  0  0  0  0  0  0  0
   -0.2744    0.4321   -0.4930 C   0  0  0  0  0  0  0  0  0  0  0  0
   -2.5712   -0.3144   -0.6139 C   0  0  0  0  0  0  0  0  0  0  0  0
   -0.7508    1.7178    0.1907 C   0  0  0  0  0  0  0  0  0  0  0  0
   -2.9959    0.9773    0.0878 C   0  0  0  0  0  0  0  0  0  0  0  0
    1.3513    2.8832   -4.9356 C   0  0  0  0  0  0  0  0  0  0  0  0
   -0.5066    2.7325   -6.5346 N   0  0  0  0  0  0  0  0  0  0  0  0
   -1.5828    0.4517   -2.5901 N   0  0  0  0  0  0  0  0  0  0  0  0
   -1.7568    2.1758   -6.5800 N   0  0  0  0  0  0  0  0  0  0  0  0
   -1.3272   -0.1088   -1.3686 N   0  0  0  0  0  0  0  0  0  0  0  0
   -1.9493    1.4742    0.9291 O   0  0  0  0  0  0  0  0  0  0  0  0
   -1.7927    2.1956  -11.7130 Cl  0  0  0  0  0  0  0  0  0  0  0  0
   -3.4717    0.5841   -5.1928 Cl  0  0  0  0  0  0  0  0  0  0  0  0
   -5.6742    2.9674   -8.8620 H   0  0  0  0  0  0  0  0  0  0  0  0
   -4.3899    2.7370   -6.7534 H   0  0  0  0  0  0  0  0  0  0  0  0
   -4.5333    2.7300  -11.0642 H   0  0  0  0  0  0  0  0  0  0  0  0
   -0.8079    1.9873   -9.0207 H   0  0  0  0  0  0  0  0  0  0  0  0
    0.3043    1.3389   -2.8354 H   0  0  0  0  0  0  0  0  0  0  0  0
    0.6541    0.5823   -1.0478 H   0  0  0  0  0  0  0  0  0  0  0  0
   -0.0741   -0.3280    0.2687 H   0  0  0  0  0  0  0  0  0  0  0  0
   -2.3926   -1.0991    0.1292 H   0  0  0  0  0  0  0  0  0  0  0  0
   -3.3391   -0.6514   -1.3129 H   0  0  0  0  0  0  0  0  0  0  0  0
   -0.0117    2.0760    0.9127 H   0  0  0  0  0  0  0  0  0  0  0  0
   -0.9236    2.5070   -0.5561 H   0  0  0  0  0  0  0  0  0  0  0  0
   -3.2630    1.7344   -0.6652 H   0  0  0  0  0  0  0  0  0  0  0  0
   -3.8574    0.8093    0.7400 H   0  0  0  0  0  0  0  0  0  0  0  0
    2.0107    2.0380   -4.7087 H   0  0  0  0  0  0  0  0  0  0  0  0
    1.7973    3.4605   -5.7483 H   0  0  0  0  0  0  0  0  0  0  0  0
    1.3077    3.5181   -4.0438 H   0  0  0  0  0  0  0  0  0  0  0  0
  1  2  1  0  0  0  0
  1  3  2  0  0  0  0
  1 23  1  0  0  0  0
  2  6  2  0  0  0  0
  2 24  1  0  0  0  0
  3  7  1  0  0  0  0
  3 25  1  0  0  0  0
  4  6  1  0  0  0  0
  4  7  2  0  0  0  0
  4 26  1  0  0  0  0
  5  8  1  0  0  0  0
  5  9  2  0  0  0  0
  5 10  1  0  0  0  0
  6 18  1  0  0  0  0
  7 21  1  0  0  0  0
  8 15  1  0  0  0  0
  8 16  2  0  0  0  0
  9 18  1  0  0  0  0
  9 22  1  0  0  0  0
 10 17  2  0  0  0  0
 10 27  1  0  0  0  0
 11 13  1  0  0  0  0
 11 19  1  0  0  0  0
 11 28  1  0  0  0  0
 11 29  1  0  0  0  0
 12 14  1  0  0  0  0
 12 19  1  0  0  0  0
 12 30  1  0  0  0  0
 12 31  1  0  0  0  0
 13 20  1  0  0  0  0
 13 32  1  0  0  0  0
 13 33  1  0  0  0  0
 14 20  1  0  0  0  0
 14 34  1  0  0  0  0
 14 35  1  0  0  0  0
 15 36  1  0  0  0  0
 15 37  1  0  0  0  0
 15 38  1  0  0  0  0
 16 18  1  0  0  0  0
 17 19  1  0  0  0  0
M  END
$$$$
