
  -OEChem-05262117483D

 38 40  0     0  0  0  0  0  0999 V2000
   -4.1839    1.9855   -9.3868 C   0  0  0  0  0  0  0  0  0  0  0  0
   -3.4322    1.5451   -8.2956 C   0  0  0  0  0  0  0  0  0  0  0  0
   -3.8650    3.1745  -10.0472 C   0  0  0  0  0  0  0  0  0  0  0  0
   -2.0143    3.5124   -8.5003 C   0  0  0  0  0  0  0  0  0  0  0  0
   -0.7704    1.2003   -4.7835 C   0  0  0  0  0  0  0  0  0  0  0  0
   -2.3570    2.3210   -7.8496 C   0  0  0  0  0  0  0  0  0  0  0  0
   -2.7734    3.9195   -9.5945 C   0  0  0  0  0  0  0  0  0  0  0  0
    0.2751    1.6359   -5.6570 C   0  0  0  0  0  0  0  0  0  0  0  0
   -1.9288    1.4038   -5.5283 C   0  0  0  0  0  0  0  0  0  0  0  0
   -0.5789    0.6855   -3.4366 C   0  0  0  0  0  0  0  0  0  0  0  0
   -0.1047   -0.6157   -0.9352 C   0  0  0  0  0  0  0  0  0  0  0  0
   -2.4834   -1.0438   -1.0144 C   0  0  0  0  0  0  0  0  0  0  0  0
    0.1476   -2.0500   -1.4112 C   0  0  0  0  0  0  0  0  0  0  0  0
   -2.1801   -2.4728   -1.4702 C   0  0  0  0  0  0  0  0  0  0  0  0
    1.7492    1.6433   -5.3900 C   0  0  0  0  0  0  0  0  0  0  0  0
   -0.2008    2.0631   -6.8227 N   0  0  0  0  0  0  0  0  0  0  0  0
   -1.5682    0.2679   -2.7206 N   0  0  0  0  0  0  0  0  0  0  0  0
   -1.5594    1.9095   -6.7489 N   0  0  0  0  0  0  0  0  0  0  0  0
   -1.4067   -0.1307   -1.4220 N   0  0  0  0  0  0  0  0  0  0  0  0
   -0.9081   -2.9106   -0.9801 O   0  0  0  0  0  0  0  0  0  0  0  0
   -2.3498    5.4118  -10.4172 Cl  0  0  0  0  0  0  0  0  0  0  0  0
   -3.5713    1.1983   -5.0619 Cl  0  0  0  0  0  0  0  0  0  0  0  0
   -5.0197    1.3871   -9.7378 H   0  0  0  0  0  0  0  0  0  0  0  0
   -3.6690    0.6057   -7.8107 H   0  0  0  0  0  0  0  0  0  0  0  0
   -4.4436    3.5144  -10.8999 H   0  0  0  0  0  0  0  0  0  0  0  0
   -1.1671    4.0924   -8.1542 H   0  0  0  0  0  0  0  0  0  0  0  0
    0.4557    0.6923   -3.0845 H   0  0  0  0  0  0  0  0  0  0  0  0
   -0.1499   -0.6019    0.1583 H   0  0  0  0  0  0  0  0  0  0  0  0
    0.6986    0.0620   -1.2315 H   0  0  0  0  0  0  0  0  0  0  0  0
   -3.4164   -0.6829   -1.4517 H   0  0  0  0  0  0  0  0  0  0  0  0
   -2.5623   -1.0111    0.0776 H   0  0  0  0  0  0  0  0  0  0  0  0
    0.2324   -2.0801   -2.5077 H   0  0  0  0  0  0  0  0  0  0  0  0
    1.0681   -2.4515   -0.9785 H   0  0  0  0  0  0  0  0  0  0  0  0
   -2.9173   -3.1787   -1.0778 H   0  0  0  0  0  0  0  0  0  0  0  0
   -2.1944   -2.5190   -2.5698 H   0  0  0  0  0  0  0  0  0  0  0  0
    2.1241    0.6331   -5.1919 H   0  0  0  0  0  0  0  0  0  0  0  0
    2.2767    2.0426   -6.2589 H   0  0  0  0  0  0  0  0  0  0  0  0
    1.9940    2.2640   -4.5209 H   0  0  0  0  0  0  0  0  0  0  0  0
  1  2  1  0  0  0  0
  1  3  2  0  0  0  0
  1 23  1  0  0  0  0
  2  6  2  0  0  0  0
  2 24  1  0  0  0  0
  3  7  1  0  0  0  0
  3 25  1  0  0  0  0
  4  6  1  0  0  0  0
  4  7  2  0  0  0  0
  4 26  1  0  0  0  0
  5  8  1  0  0  0  0
  5  9  2  0  0  0  0
  5 10  1  0  0  0  0
  6 18  1  0  0  0  0
  7 21  1  0  0  0  0
  8 15  1  0  0  0  0
  8 16  2  0  0  0  0
  9 18  1  0  0  0  0
  9 22  1  0  0  0  0
 10 17  2  0  0  0  0
 10 27  1  0  0  0  0
 11 13  1  0  0  0  0
 11 19  1  0  0  0  0
 11 28  1  0  0  0  0
 11 29  1  0  0  0  0
 12 14  1  0  0  0  0
 12 19  1  0  0  0  0
 12 30  1  0  0  0  0
 12 31  1  0  0  0  0
 13 20  1  0  0  0  0
 13 32  1  0  0  0  0
 13 33  1  0  0  0  0
 14 20  1  0  0  0  0
 14 34  1  0  0  0  0
 14 35  1  0  0  0  0
 15 36  1  0  0  0  0
 15 37  1  0  0  0  0
 15 38  1  0  0  0  0
 16 18  1  0  0  0  0
 17 19  1  0  0  0  0
M  END
$$$$
