25
0 1 C10ClH10N3O
C                     0.834033153676    -3.465988855085     4.144234015976
C                     1.127158148107    -4.833020656783     4.096590424247
C                     1.743948673621    -2.542224862789     3.626298698887
C                     2.327113374132    -5.271544858166     3.531511868358
C                     7.352952601337    -3.161455863639     4.521222766040
C                     5.296231784685    -2.894205137094     5.311387700463
C                     6.456660960352    -3.613526763486     5.532413882179
C                     2.954312116867    -2.969973132292     3.067698446829
C                     3.241157815139    -4.343920322322     3.023570936035
C                     4.586250278939    -1.298127695306     3.501051369757
N                     6.789851458973    -2.249698727624     3.730550043749
N                     5.544023268166    -2.076072382737     4.229087957422
N                     6.743790731534    -4.524012926968     6.571718516614
O                     3.839254742929    -2.057807688433     2.537075386434
Cl                    4.747006774766    -4.898656204881     2.339681396387
H                    -0.103610701764    -3.120717944549     4.570720981014
H                     0.422702062081    -5.560122616950     4.490552580969
H                     1.522936192303    -1.478083983902     3.633299898596
H                     2.564319328985    -6.329904544820     3.484396358443
H                     8.380460812100    -3.463321505604     4.353814512675
H                     4.339798137687    -2.898195900569     5.815994625855
H                     3.900553144025    -0.827661542553     4.213307406157
H                     5.125074935212    -0.548421433158     2.924948761377
H                     7.386319203593    -5.249200742037     6.268355382519
H                     5.905347801283    -4.963802036513     6.937689109221
