
  -OEChem-05262117483D

 25 26  0     0  0  0  0  0  0999 V2000
    5.8496   -3.0955    0.1625 C   0  0  0  0  0  0  0  0  0  0  0  0
    5.9986   -1.8959   -0.5417 C   0  0  0  0  0  0  0  0  0  0  0  0
    5.0056   -3.1526    1.2722 C   0  0  0  0  0  0  0  0  0  0  0  0
    5.3016   -0.7546   -0.1369 C   0  0  0  0  0  0  0  0  0  0  0  0
    6.4813   -3.9640    4.8910 C   0  0  0  0  0  0  0  0  0  0  0  0
    6.4942   -1.8998    4.0794 C   0  0  0  0  0  0  0  0  0  0  0  0
    7.3460   -2.9374    4.4152 C   0  0  0  0  0  0  0  0  0  0  0  0
    4.3005   -2.0178    1.6856 C   0  0  0  0  0  0  0  0  0  0  0  0
    4.4566   -0.8189    0.9739 C   0  0  0  0  0  0  0  0  0  0  0  0
    3.9911   -1.6737    4.0182 C   0  0  0  0  0  0  0  0  0  0  0  0
    5.1999   -3.5954    4.8458 N   0  0  0  0  0  0  0  0  0  0  0  0
    5.2180   -2.3293    4.3716 N   0  0  0  0  0  0  0  0  0  0  0  0
    8.7571   -2.9598    4.3914 N   0  0  0  0  0  0  0  0  0  0  0  0
    3.4482   -2.1162    2.7639 O   0  0  0  0  0  0  0  0  0  0  0  0
    3.5816    0.6170    1.4759 Cl  0  0  0  0  0  0  0  0  0  0  0  0
    6.3916   -3.9839   -0.1497 H   0  0  0  0  0  0  0  0  0  0  0  0
    6.6519   -1.8435   -1.4082 H   0  0  0  0  0  0  0  0  0  0  0  0
    4.8799   -4.0642    1.8486 H   0  0  0  0  0  0  0  0  0  0  0  0
    5.4025    0.1812   -0.6778 H   0  0  0  0  0  0  0  0  0  0  0  0
    6.7496   -4.9425    5.2728 H   0  0  0  0  0  0  0  0  0  0  0  0
    6.6828   -0.9181    3.6665 H   0  0  0  0  0  0  0  0  0  0  0  0
    3.2285   -1.9200    4.7551 H   0  0  0  0  0  0  0  0  0  0  0  0
    4.1746   -0.5961    3.9923 H   0  0  0  0  0  0  0  0  0  0  0  0
    9.1405   -2.3225    3.7007 H   0  0  0  0  0  0  0  0  0  0  0  0
    9.1176   -3.8919    4.2132 H   0  0  0  0  0  0  0  0  0  0  0  0
  1  2  1  0  0  0  0
  1  3  2  0  0  0  0
  1 16  1  0  0  0  0
  2  4  2  0  0  0  0
  2 17  1  0  0  0  0
  3  8  1  0  0  0  0
  3 18  1  0  0  0  0
  4  9  1  0  0  0  0
  4 19  1  0  0  0  0
  5  7  1  0  0  0  0
  5 11  2  0  0  0  0
  5 20  1  0  0  0  0
  6  7  2  0  0  0  0
  6 12  1  0  0  0  0
  6 21  1  0  0  0  0
  7 13  1  0  0  0  0
  8  9  2  0  0  0  0
  8 14  1  0  0  0  0
  9 15  1  0  0  0  0
 10 12  1  0  0  0  0
 10 14  1  0  0  0  0
 10 22  1  0  0  0  0
 10 23  1  0  0  0  0
 11 12  1  0  0  0  0
 13 24  1  0  0  0  0
 13 25  1  0  0  0  0
M  END
$$$$
