25
0 1 C10ClH10N3O
C                     2.632505188441    -5.125096832565     3.465150738927
C                     1.462655600070    -4.763434377465     4.141974662124
C                     3.437533541230    -4.141579070408     2.889338040282
C                     1.097743869894    -3.418306453500     4.240487868610
C                     7.211345525902    -3.575378267241     4.118162555494
C                     5.487074640241    -2.651585836961     5.163876388509
C                     6.466362985292    -3.614871746743     5.331256029261
C                     3.081250336521    -2.792016810754     2.978540463707
C                     1.907017430437    -2.438465599815     3.660082181657
C                     4.818325807817    -1.188549398636     3.231592968807
N                     6.728379265498    -2.668359119382     3.267412889529
N                     5.692644947370    -2.094681243316     3.920436697252
N                     6.742652942321    -4.400168711212     6.471032852466
O                     3.878332167432    -1.847955199939     2.368456253901
Cl                    1.442160153943    -0.751007810540     3.784772975114
H                     2.918936768503    -6.170304560496     3.388415682960
H                     0.829054008882    -5.523194456271     4.590986383224
H                     4.358400970937    -4.388531469337     2.369577860874
H                     0.189421464400    -3.123742525690     4.756950078055
H                     8.081595361497    -4.162195184815     3.846908084757
H                     4.681763796781    -2.323910835987     5.807164515621
H                     4.290763979376    -0.588525075151     3.978114309119
H                     5.407912571206    -0.555387151535     2.570764987875
H                     7.127738029624    -5.305874621155     6.222340540035
H                     5.920670561344    -4.540983629530     7.049575750969
