
  -OEChem-05262117483D

 25 26  0     0  0  0  0  0  0999 V2000
    1.2364   -2.9945    4.2972 C   0  0  0  0  0  0  0  0  0  0  0  0
    0.5532   -3.8924    3.4760 C   0  0  0  0  0  0  0  0  0  0  0  0
    2.3753   -2.3265    3.8356 C   0  0  0  0  0  0  0  0  0  0  0  0
    1.0160   -4.1273    2.1775 C   0  0  0  0  0  0  0  0  0  0  0  0
    6.0723   -1.9200    5.7924 C   0  0  0  0  0  0  0  0  0  0  0  0
    6.4073   -2.5257    3.6823 C   0  0  0  0  0  0  0  0  0  0  0  0
    6.8477   -2.7851    4.9708 C   0  0  0  0  0  0  0  0  0  0  0  0
    2.8382   -2.5504    2.5325 C   0  0  0  0  0  0  0  0  0  0  0  0
    2.1488   -3.4632    1.7124 C   0  0  0  0  0  0  0  0  0  0  0  0
    4.6600   -0.9801    2.7223 C   0  0  0  0  0  0  0  0  0  0  0  0
    5.2135   -1.1942    5.0725 N   0  0  0  0  0  0  0  0  0  0  0  0
    5.4327   -1.5642    3.7914 N   0  0  0  0  0  0  0  0  0  0  0  0
    7.8903   -3.6383    5.3882 N   0  0  0  0  0  0  0  0  0  0  0  0
    3.9309   -1.9382    1.9706 O   0  0  0  0  0  0  0  0  0  0  0  0
    2.7195   -3.7667    0.0832 Cl  0  0  0  0  0  0  0  0  0  0  0  0
    0.8928   -2.8106    5.3113 H   0  0  0  0  0  0  0  0  0  0  0  0
   -0.3298   -4.4119    3.8365 H   0  0  0  0  0  0  0  0  0  0  0  0
    2.9080   -1.6594    4.5030 H   0  0  0  0  0  0  0  0  0  0  0  0
    0.5033   -4.8224    1.5198 H   0  0  0  0  0  0  0  0  0  0  0  0
    6.1098   -1.8032    6.8691 H   0  0  0  0  0  0  0  0  0  0  0  0
    6.6869   -2.9445    2.7252 H   0  0  0  0  0  0  0  0  0  0  0  0
    4.0140   -0.2236    3.1747 H   0  0  0  0  0  0  0  0  0  0  0  0
    5.3209   -0.5190    1.9859 H   0  0  0  0  0  0  0  0  0  0  0  0
    8.0730   -4.3804    4.7203 H   0  0  0  0  0  0  0  0  0  0  0  0
    7.7027   -4.0520    6.2961 H   0  0  0  0  0  0  0  0  0  0  0  0
  1  2  1  0  0  0  0
  1  3  2  0  0  0  0
  1 16  1  0  0  0  0
  2  4  2  0  0  0  0
  2 17  1  0  0  0  0
  3  8  1  0  0  0  0
  3 18  1  0  0  0  0
  4  9  1  0  0  0  0
  4 19  1  0  0  0  0
  5  7  1  0  0  0  0
  5 11  2  0  0  0  0
  5 20  1  0  0  0  0
  6  7  2  0  0  0  0
  6 12  1  0  0  0  0
  6 21  1  0  0  0  0
  7 13  1  0  0  0  0
  8  9  2  0  0  0  0
  8 14  1  0  0  0  0
  9 15  1  0  0  0  0
 10 12  1  0  0  0  0
 10 14  1  0  0  0  0
 10 22  1  0  0  0  0
 10 23  1  0  0  0  0
 11 12  1  0  0  0  0
 13 24  1  0  0  0  0
 13 25  1  0  0  0  0
M  END
$$$$
