28
0 1 C10H15NO2
C                     1.745930987328     0.397950676486    -3.214229330998
C                     1.454372965995    -0.186634071069    -4.498545760402
C                     0.794497985594    -0.061161397116    -2.351026564193
C                     0.342143123964    -0.962329326722    -4.336869877382
C                    -1.097130363003     0.989604723566     0.700877630974
C                     0.024388121315     1.788115073649     1.357670598632
C                     1.585903745324     0.969187913172    -0.209700540550
C                     0.499786295631     0.140639776537    -0.902399838276
C                    -1.916790820216    -1.285180475246    -5.435545628344
C                    -0.476744903858    -1.800755577307    -5.260342965091
N                    -0.787472380232     0.841881566100    -0.725684315587
O                    -0.070837778129    -0.897276662029    -3.024176214220
O                     1.287969376732     1.145866483417     1.172646729146
H                     2.555658767130     1.074070333609    -2.974366869505
H                     2.001285011120    -0.046096695615    -5.421904979759
H                    -1.193434540391     0.019296711576     1.220159190762
H                    -2.043750095832     1.530912766155     0.806621207944
H                     0.054721284003     2.800895610584     0.928241736392
H                    -0.124720575551     1.861722184291     2.437989149821
H                     2.550253359509     0.457647961971    -0.253557239615
H                     1.669475506265     1.947767097260    -0.705450081914
H                     0.480048700062    -0.848797166103    -0.407971467195
H                    -2.442180794258    -1.265330556522    -4.476206517995
H                    -2.478040620233    -1.932366934449    -6.117589096250
H                    -1.919969095586    -0.269392936438    -5.843260211754
H                     0.034409933336    -1.824177775584    -6.227923470735
H                    -0.501959965109    -2.834102872289    -4.891353718127
H                    -1.519657606101     0.312723178263    -1.194062716074
