17   
torsion grid (-165,)
C       -0.5188708191   -0.6965780688    0.9782048466
C        1.5835454028   -1.1937837818   -1.3693882440
C       -0.9844527991   -0.2171965857    3.2418535324
C       -0.6277512240   -0.1873579421   -0.4476601623
C        0.7389230878    0.0318998305   -1.0990138219
O       -0.0266101623   -1.7621125325    1.2994066337
O       -1.0517655492    0.1784087652    1.8531934477
F        1.4536748215    0.9084458716   -0.2929808278
F        0.5213587152    0.7102131265   -2.2876155298
H        1.5805534672   -1.8475228576   -0.4961602033
H        1.1804049388   -1.7383550634   -2.2261233742
H        2.6088903029   -0.8796891020   -1.5770524277
H       -1.4565206905    0.5934391826    3.7957705168
H        0.0567220372   -0.3406102367    3.5473730155
H       -1.5206302344   -1.1564017672    3.3947443637
H       -1.1762090452   -0.9285487642   -1.0355089712
H       -1.1696791103    0.7586389939   -0.4724437033
17   
torsion grid (-150,)
C       -0.5577681121   -0.6964414023    0.9749714706
C        1.5626775417   -1.1841244795   -1.3472384474
C       -0.9469482888   -0.1619864653    3.2404891416
C       -0.6782614940   -0.2069940459   -0.4567139442
C        0.6850525704    0.0315098234   -1.1096413230
O       -0.0968029978   -1.7743707824    1.3021116756
O       -1.0371339789    0.2112761391    1.8469853268
F        1.3708718950    0.9419335857   -0.3148816997
F        0.4584937609    0.6831733892   -2.3103422982
H        1.3821133474   -1.9336922010   -0.5752017692
H        1.3422345230   -1.6138151040   -2.3263974828
H        2.6116183149   -0.8853234535   -1.2941790641
H       -1.3753864492    0.6745102394    3.7913846363
H        0.0969874854   -0.3169792777    3.5212269656
H       -1.5115267199   -1.0787056879    3.4244925441
H       -1.2097431770   -0.9667956832   -1.0361413068
H       -1.2376516129    0.7284225432   -0.4926027836
17   
torsion grid (-135,)
C       -0.7450993797   -0.6948986965    0.6834570591
C        1.5961735380   -1.3381930465   -1.3477173220
C       -1.3627017273   -0.4776601674    2.9508252135
C       -0.4831094006    0.0518863492   -0.6117083545
C        0.9925941947    0.0205662566   -1.0146756623
O       -0.6460949596   -1.9003628650    0.8199541610
O       -1.1114415723    0.1448534855    1.6707422686
F        1.7152318288    0.6085725007    0.0156260586
F        1.1359341620    0.8720731278   -2.0985237256
H        0.9593028398   -2.1425639394   -0.9776449794
H        1.7118071980   -1.4334728186   -2.4288688162
H        2.5697049895   -1.4302492946   -0.8625796851
H       -1.6438744456    0.3368186846    3.6174008472
H       -0.4604993967   -0.9778910606    3.3092620490
H       -2.1713930479   -1.2068340650    2.8652454787
H       -1.0648862391   -0.4229318785   -1.4061579794
H       -0.7844484193    1.0956578333   -0.5176120026
17   
torsion grid (-120,)
C       -0.7321877306   -0.6961200531    0.6795284489
C        1.5971482088   -1.3504375157   -1.3327179979
C       -1.3347408180   -0.4863353910    2.9519569374
C       -0.4818409576    0.0535798326   -0.6161747823
C        0.9892679242    0.0169887147   -1.0329364726
O       -0.6253615900   -1.9011914081    0.8122064506
O       -1.0948723320    0.1401448510    1.6716520216
F        1.7276654929    0.6520841328   -0.0455957704
F        1.0996687525    0.8275651723   -2.1539931024
H        0.8653267181   -2.1466783050   -1.1963240475
H        1.9650004490   -1.3624508101   -2.3604234175
H        2.4332429763   -1.5339952969   -0.6558341592
H       -1.6147026473    0.3254142563    3.6223738058
H       -0.4281268429   -0.9837473800    3.3031656129
H       -2.1409764932   -1.2186676243    2.8702775713
H       -1.0696734674   -0.4193191509   -1.4068777642
H       -0.7798219186    1.0979407262   -0.5182737215
17   
torsion grid (-105,)
C       -0.7160220861   -0.6800999201    0.7211248001
C        1.5661363763   -1.3353266725   -1.3217515085
C       -1.3540602046   -0.4865526692    2.9856484460
C       -0.5010802292    0.0716165032   -0.5798858513
C        0.9557940893    0.0319547903   -1.0406512199
O       -0.5418482802   -1.8755681624    0.8657455638
O       -1.1340275269    0.1429562824    1.7032222564
F        1.7277809599    0.7081972972   -0.1097904476
F        1.0121373545    0.8012891906   -2.1961572701
H        0.8003539795   -2.1038100333   -1.4220203095
H        2.1488938207   -1.2736682300   -2.2436806650
H        2.2406235412   -1.6105451788   -0.5097112270
H       -1.6850275125    0.3135240711    3.6468190579
H       -0.4259627438   -0.9317787610    3.3505130956
H       -2.1185662707   -1.2620160716    2.9009190493
H       -1.1120142378   -0.3988235568   -1.3543682992
H       -0.7962971474    1.1158525253   -0.4729256288
17   
torsion grid (-90,)
C       -0.6192916660   -0.6380121642    0.7837524393
C        1.5902537763   -1.3406107251   -1.3430001032
C       -1.3835610667   -0.4561477201    3.0101766939
C       -0.4212158779    0.1013414744   -0.5268284414
C        1.0190928224    0.0305354065   -1.0304853604
O       -0.3500854102   -1.8103032837    0.9649891691
O       -1.1512056244    0.1661951738    1.7262659273
F        1.8392807570    0.6796198132   -0.1223492411
F        1.0550023707    0.8047605835   -2.1841993844
H        0.8157391186   -2.0239776007   -1.6922841528
H        2.3520454008   -1.2246724772   -2.1180111090
H        2.0634659048   -1.7563521950   -0.4532195194
H       -1.8131919929    0.3252305363    3.6360585075
H       -0.4416469584   -0.8151853760    3.4303501192
H       -2.0758283522   -1.2944707478    2.9053151825
H       -1.0661285312   -0.3594301038   -1.2798944224
H       -0.6969205154    1.1509964440   -0.4199750527
17   
torsion grid (-75,)
C       -0.6042917498   -0.6516801487    0.7893622998
C        1.5841655005   -1.3427465395   -1.3903663920
C       -1.3712645143   -0.4438419823    3.0126179349
C       -0.4319689035    0.0663514360   -0.5366935430
C        1.0024249770    0.0143413233   -1.0600039642
O       -0.3044338806   -1.8122984234    0.9957334497
O       -1.1564484908    0.1576780383    1.7158111130
F        1.8262741984    0.6597057766   -0.1529292453
F        1.0210548087    0.7984459247   -2.2075651056
H        0.8728955515   -1.9367602057   -1.9670874953
H        2.4923035245   -1.1921769280   -1.9794683756
H        1.8352113904   -1.8743588577   -0.4726673768
H       -1.8209978720    0.3387136934    3.6227052318
H       -0.4198289511   -0.7689585582    3.4388985370
H       -2.0411386678   -1.3022098477    2.9260508424
H       -1.0810129320   -0.4164572213   -1.2724333918
H       -0.7241203523    1.1129430636   -0.4438627798
17   
torsion grid (-60,)
C       -0.6244868102   -0.6512360891    0.8075639667
C        1.6110650363   -1.3092017515   -1.3529388910
C       -1.3321984383   -0.3969199212    3.0452397218
C       -0.4451585627    0.0511157945   -0.5260302173
C        1.0028001257    0.0324413033   -1.0162391126
O       -0.3671181407   -1.8219075626    1.0163465422
O       -1.1255343342    0.1850484131    1.7382882180
F        1.7886204684    0.6640365416   -0.0633029673
F        1.0519054401    0.8434574498   -2.1407730206
H        1.0349303685   -1.7875611054   -2.1483559178
H        2.6365092320   -1.1523789799   -1.6959342191
H        1.6052103069   -1.9553784932   -0.4751602153
H       -1.7379918851    0.4071668602    3.6580999871
H       -0.3837051887   -0.7536943093    3.4523010464
H       -2.0354212982   -1.2302716180    2.9820599154
H       -1.0654603573   -0.4594271492   -1.2677279419
H       -0.7643725634    1.0913426372   -0.4531139508
17   
torsion grid (-45,)
C       -0.6328816677   -0.6615914455    0.7939797109
C        1.6212034541   -1.2977066521   -1.3671634306
C       -1.2867890410   -0.3655467551    3.0424111024
C       -0.4630436253    0.0213418988   -0.5509784560
C        0.9912947875    0.0342256979   -1.0247582485
O       -0.3916481056   -1.8340998495    1.0129900032
O       -1.1014250442    0.1944996366    1.7227563722
F        1.7486828827    0.6588835406   -0.0423290337
F        1.0536734449    0.8674763910   -2.1302931954
H        1.2184383926   -1.6481228827   -2.3211051506
H        2.7019083533   -1.1720936369   -1.4603433585
H        1.3841331673   -2.0367064404   -0.6012891877
H       -1.6673248414    0.4530932174    3.6521773514
H       -0.3343202871   -0.7297930352    3.4332303811
H       -2.0028364803   -1.1895585777    3.0071749606
H       -1.0621609411   -0.5200307207   -1.2883403752
H       -0.8102681990    1.0537825231   -0.4989383989
17   
torsion grid (-30,)
C       -0.6525859298   -0.6827553363    0.7650343941
C        1.6447073903   -1.2948601831   -1.3387806176
C       -1.2201670269   -0.3678014561    3.0338882783
C       -0.4806665197   -0.0017083758   -0.5803685374
C        0.9799117470    0.0351315857   -1.0349565975
O       -0.4673812206   -1.8682220705    0.9697262850
O       -1.0484638624    0.1898590872    1.7114641374
F        1.7040529662    0.6955182928   -0.0501124893
F        1.0435070228    0.8519737358   -2.1519203532
H        1.4667184147   -1.5441460638   -2.3881984806
H        2.7200884110   -1.2155053834   -1.1705916727
H        1.2162694798   -2.0886220416   -0.7260601972
H       -1.5379464900    0.4656509822    3.6592914518
H       -0.2758625831   -0.7832275091    3.3921579102
H       -1.9787871069   -1.1534521494    3.0181483748
H       -1.0584264844   -0.5582680341   -1.3231903769
H       -0.8453016038    1.0251129181   -0.5366549104
17   
torsion grid (-15,)
C       -0.6637055623   -0.6774114839    0.7671842012
C        1.6203065590   -1.2956364587   -1.3344032078
C       -1.1928472481   -0.3530215364    3.0440743318
C       -0.5147258000   -0.0025644875   -0.5840945587
C        0.9394047154    0.0389383162   -1.0580113873
O       -0.4723926664   -1.8615641784    0.9736591450
O       -1.0447051514    0.1989745713    1.7164540087
F        1.6667859957    0.7413887452   -0.1060324965
F        0.9713175093    0.8245054672   -2.1993362341
H        1.6827916766   -1.4432541342   -2.4150926756
H        2.6298005335   -1.2872631386   -0.9205057446
H        1.0522485155   -2.1208955120   -0.9044945380
H       -1.5015391611    0.4826594085    3.6710580513
H       -0.2418579262   -0.7651662543    3.3882094739
H       -1.9501241866   -1.1401270634    3.0447657939
H       -1.0974847308   -0.5676106882   -1.3163866210
H       -0.8845848903    1.0223922128   -0.5417856841
17   
torsion grid (0,)
C       -0.6294884994   -0.6889561713    0.7556443555
C        1.6543281817   -1.3138527498   -1.3171344339
C       -1.1561956968   -0.3845109495    3.0362227060
C       -0.4808877035   -0.0026588634   -0.5899228075
C        0.9714064198    0.0281448182   -1.0684708479
O       -0.4369893492   -1.8745966461    0.9515436200
O       -1.0086739529    0.1793424172    1.7135254739
F        1.7063839847    0.7659416663   -0.1526696556
F        0.9830372428    0.7758985917   -2.2376594469
H        1.9872261984   -1.3610792708   -2.3556135149
H        2.5224465231   -1.4075305918   -0.6624516869
H        0.9801132591   -2.1447499879   -1.1091995208
H       -1.4638993973    0.4456268190    3.6710196725
H       -0.2053055334   -0.8004533791    3.3760975870
H       -1.9139707860   -1.1711108625    3.0304092259
H       -1.0683104332   -0.5570303062   -1.3261320237
H       -0.8418378473    1.0249866757   -0.5377958554
17   
torsion grid (15,)
C       -0.5957139972   -0.6599157502    0.8128342949
C        1.6181535882   -1.2909656684   -1.3195063849
C       -1.1951467904   -0.3891313053    3.0801201484
C       -0.4935083100    0.0260341554   -0.5373988516
C        0.9368532911    0.0490660756   -1.0749926188
O       -0.3002521652   -1.8212997318    1.0232847387
O       -1.0684722783    0.1782410525    1.7566492921
F        1.7105594341    0.8222912158   -0.2243085401
F        0.8837570172    0.7556711616   -2.2704141169
H        2.1611648129   -1.2540280813   -2.2653692946
H        2.3211677078   -1.4900353025   -0.5086987727
H        0.8955390095   -2.1071259414   -1.3219306018
H       -1.5878215540    0.4144579181    3.7021054246
H       -0.2193274583   -0.7187189537    3.4432022403
H       -1.8812226873   -1.2388532695    3.0640781127
H       -1.1129007541   -0.5238072294   -1.2506751342
H       -0.8498168923    1.0545100571   -0.4719108451
17   
torsion grid (30,)
C       -0.5135156464   -0.6327748172    0.8306941508
C        1.6300665366   -1.3184959556   -1.3718122539
C       -1.2028123061   -0.3720948611    3.0737258413
C       -0.4305059643    0.0355035853   -0.5294921562
C        0.9837595615    0.0284725357   -1.1064405422
O       -0.1425634455   -1.7662695794    1.0700291631
O       -1.0719110237    0.1846684684    1.7460365344
F        1.8019121338    0.7837108362   -0.2824391172
F        0.9082476501    0.7335646473   -2.3023851058
H        2.3530804388   -1.2170966536   -2.1833633048
H        2.1374595847   -1.6589345692   -0.4681396490
H        0.8782220127   -2.0702667219   -1.6162836315
H       -1.6702261729    0.4107057769    3.6700443857
H       -0.2191572209   -0.6283263034    3.4729852610
H       -1.8278882676   -1.2674674636    3.0493423047
H       -1.0802352795   -0.5107342076   -1.2186462307
H       -0.7712989480    1.0696055904   -0.4688989875
17   
torsion grid (45,)
C       -0.4967087331   -0.6306316290    0.8616685943
C        1.6389980495   -1.3072255981   -1.3769131969
C       -1.1955222407   -0.3457036522    3.0988189560
C       -0.4269035168    0.0175097728   -0.5090133559
C        0.9842732882    0.0268746945   -1.0942853291
O       -0.1058926848   -1.7529097538    1.1213604777
O       -1.0721357519    0.1913504654    1.7623385740
F        1.8010477599    0.7742593695   -0.2618363336
F        0.9025971854    0.7448001973   -2.2818388221
H        2.5144026229   -1.1457122764   -2.0096123979
H        1.9380309950   -1.7750663185   -0.4386349896
H        0.9353506325   -1.9778661666   -1.8743057667
H       -1.6785110471    0.4381289340    3.6812075065
H       -0.2081320250   -0.5770794541    3.5039708463
H       -1.8039595254   -1.2527311288    3.0881476372
H       -1.0737526639   -0.5470802846   -1.1862009854
H       -0.7831433921    1.0471498158   -0.4614201921
17   
torsion grid (60,)
C       -0.5354788374   -0.6456259428    0.9089362047
C        1.6488416964   -1.2659490480   -1.3148628717
C       -1.1653756476   -0.3155762752    3.1599201461
C       -0.4634298032   -0.0087906144   -0.4669981064
C        0.9603405198    0.0466426228   -1.0211984496
O       -0.1857124659   -1.7818362005    1.1677949396
O       -1.0562585256    0.2047492451    1.8157252939
F        1.7376924978    0.7831127979   -0.1390953578
F        0.9039049335    0.7960714128   -2.1872941729
H        2.6460665558   -1.0584456988   -1.7096736960
H        1.7222637187   -1.8629808594   -0.4057766804
H        1.0760310100   -1.8256202432   -2.0580592958
H       -1.6022357485    0.4914664029    3.7469958697
H       -0.1773473202   -0.5816234458    3.5415545032
H       -1.8085172193   -1.1982844569    3.1735160233
H       -1.0756593101   -0.6025176369   -1.1512501950
H       -0.8538509085    1.0089712371   -0.4350117357
17   
torsion grid (75,)
C       -0.5424730608   -0.6549885097    0.8988200949
C        1.6516485532   -1.2609445794   -1.3335124851
C       -1.1263781553   -0.2808110393    3.1549149880
C       -0.4801750272   -0.0389592655   -0.4871622726
C        0.9475380764    0.0431139736   -1.0297549396
O       -0.2038532230   -1.7920602662    1.1693929229
O       -1.0373345517    0.2155556467    1.8002402847
F        1.7034307535    0.7678615926   -0.1171659820
F        0.9052075622    0.8170992130   -2.1780499694
H        2.7146876133   -1.0565333455   -1.4826675930
H        1.5204966753   -1.9676059127   -0.5140890588
H        1.2496793403   -1.6839186969   -2.2574125026
H       -1.5433110851    0.5408165389    3.7362080584
H       -0.1340228992   -0.5510275198    3.5221038495
H       -1.7784727703   -1.1560682484    3.1957167991
H       -1.0725506745   -0.6597304372   -1.1650585992
H       -0.8955507188    0.9692541708   -0.4733317945
17   
torsion grid (90,)
C       -0.5686956390   -0.6698167296    0.9103204825
C        1.6500941692   -1.2544000798   -1.2901879779
C       -1.0907344619   -0.2749351470    3.1778096161
C       -0.5132108034   -0.0576750004   -0.4775445019
C        0.9153361698    0.0448492740   -1.0154858014
O       -0.2591610155   -1.8166351354    1.1755752626
O       -1.0179453948    0.2160120937    1.8202289360
F        1.6457045971    0.8013309433   -0.1072031311
F        0.8664479761    0.8018934725   -2.1743838714
H        2.7233054120   -1.0760490811   -1.1873973821
H        1.3429578551   -2.0339494029   -0.5933888491
H        1.4615686891   -1.5647968407   -2.3204593697
H       -1.4710015829    0.5593662031    3.7661264440
H       -0.0984883423   -0.5725693323    3.5235011294
H       -1.7663617793   -1.1311961053    3.2353773723
H       -1.0921720760   -0.6906873440   -1.1556104383
H       -0.9430852254    0.9444819472   -0.4680495606
17   
torsion grid (105,)
C       -0.6058428022   -0.6711908970    0.9202800687
C        1.6207478123   -1.2415399036   -1.2532750742
C       -1.0574448202   -0.2563823448    3.1992299969
C       -0.5708636914   -0.0662462377   -0.4712634522
C        0.8521694699    0.0529581696   -1.0204040241
O       -0.3135908288   -1.8234603465    1.1819448444
O       -1.0116195061    0.2273941931    1.8379375743
F        1.5655290000    0.8648841995   -0.1478148544
F        0.7725616020    0.7663937326   -2.2055825325
H        2.6463420501   -1.1127186925   -0.9006447971
H        1.1661962922   -2.0749700417   -0.7180360831
H        1.6575393044   -1.4513610119   -2.3242013221
H       -1.4025073887    0.5885106328    3.7940787314
H       -0.0629064123   -0.5748976057    3.5187850009
H       -1.7501456910   -1.0970579798    3.2794019073
H       -1.1431431366   -0.7128188032   -1.1417831038
H       -1.0141405193    0.9300548103   -0.4649920399
17   
torsion grid (120,)
C       -0.6202122662   -0.6664775224    0.9554319363
C        1.6020941210   -1.1927746614   -1.2118073830
C       -1.0459692338   -0.2634420131    3.2417358451
C       -0.6159284241   -0.0601016023   -0.4358615386
C        0.7980255104    0.0871460799   -1.0001318546
O       -0.2992068297   -1.8124998540    1.2100598134
O       -1.0303750870    0.2228134891    1.8806735992
F        1.5002856560    0.9497923004   -0.1718740757
F        0.6702683054    0.7586996067   -2.2077249106
H        2.5200234633   -1.1477966560   -0.6232095275
H        1.0370172231   -2.0704897665   -0.8981182890
H        1.8636821475   -1.2826168474   -2.2678140428
H       -1.3987002784    0.5736468098    3.8430990677
H       -0.0406494932   -0.5626434979    3.5459065110
H       -1.7205589935   -1.1178119540    3.3311031604
H       -1.1787169112   -0.7200036563   -1.1008399154
H       -1.0807151163    0.9262751390   -0.4255704870
17   
torsion grid (135,)
C       -0.5655378799   -0.6425978173    0.9611079942
C        1.5976400357   -1.2250731702   -1.2357424531
C       -1.0546912387   -0.2601853137    3.2387961051
C       -0.5860834960   -0.0438190245   -0.4335342348
C        0.8115569767    0.0656389807   -1.0423201001
O       -0.1757755320   -1.7642849520    1.2261457450
O       -1.0441700851    0.2232738733    1.8766055105
F        1.5509141781    0.9574388212   -0.2824298324
F        0.6419386840    0.6825501498   -2.2760655207
H        2.3689734425   -1.3116436927   -0.4698940076
H        0.9433228558   -2.0937758495   -1.1551190619
H        2.0523026367   -1.2188632583   -2.2283431439
H       -1.4687930101    0.5550188515    3.8310617336
H       -0.0386901072   -0.4967798983    3.5620025253
H       -1.6772901437   -1.1540227288    3.3188725763
H       -1.1844924362   -0.6924058147   -1.0783738063
H       -1.0290889766    0.9523892756   -0.4158831425
17   
torsion grid (150,)
C       -0.4752701305   -0.6077755675    0.9321813260
C        1.5710173375   -1.2340394717   -1.3863357446
C       -1.1046973731   -0.2839913444    3.1847043215
C       -0.5600500495   -0.0424414063   -0.4738500845
C        0.8020974824    0.0543288614   -1.1572756885
O        0.0794075171   -1.6482200936    1.2306901635
O       -1.1167389518    0.1828258849    1.8165284961
F        1.5888388277    0.9493824950   -0.4509684379
F        0.5649727569    0.6568108295   -2.3876429258
H        2.1871127522   -1.4672546210   -0.5185898055
H        0.8805766238   -2.0644422417   -1.5461708033
H        2.1853711429   -1.1216563843   -2.2824274032
H       -1.6641403183    0.4614497240    3.7488042537
H       -0.0776227640   -0.3553118275    3.5489198990
H       -1.5824574373   -1.2636786031    3.2552778694
H       -1.1935703946   -0.7048052493   -1.0704019413
H       -1.0096811679    0.9509977736   -0.4588411053
17   
torsion grid (165,)
C       -0.4761659695   -0.6131543642    0.9505601928
C        1.5631855477   -1.2242869108   -1.3993559743
C       -1.0875183030   -0.2547099088    3.2028106639
C       -0.5745443120   -0.0695850269   -0.4631917510
C        0.7825390103    0.0482364016   -1.1544524414
O        0.0821188047   -1.6481471419    1.2613654462
O       -1.1123245669    0.1897872460    1.8274289055
F        1.5650498266    0.9383087992   -0.4346470511
F        0.5409138768    0.6644012392   -2.3753266176
H        1.9776196312   -1.5999054457   -0.4646457047
H        0.9059853009   -1.9891113324   -1.8200131103
H        2.3563513356   -1.0138338773   -2.1205656552
H       -1.6436046859    0.4987518140    3.7595234699
H       -0.0571799693   -0.3180778146    3.5591677925
H       -1.5626561593   -1.2340272300    3.2933669037
H       -1.1986297449   -0.7516715910   -1.0475151070
H       -1.0429777637    0.9152574421   -0.4594733026
17   
torsion grid (180,)
C       -0.5026080375   -0.6725588048    0.9596703942
C        1.5880923534   -1.2118398858   -1.3731045933
C       -1.0182751649   -0.2386586681    3.2220729852
C       -0.5999384897   -0.1441681692   -0.4599429733
C        0.7666021989    0.0314086407   -1.1225764071
O       -0.0003477324   -1.7356529225    1.2725562320
O       -1.0624560401    0.1812090445    1.8395871570
F        1.5055763964    0.9206456013   -0.3556069124
F        0.5431207397    0.6742552996   -2.3313312620
H        1.7856967301   -1.7275222219   -0.4334263704
H        1.0434370605   -1.8862222844   -2.0382575805
H        2.5282465182   -0.9211109392   -1.8476066619
H       -1.5108795891    0.5563134193    3.7808068384
H        0.0178661818   -0.3558816693    3.5465636370
H       -1.5463455482   -1.1865259199    3.3472860089
H       -1.1797051583   -0.8578878849   -1.0516147251
H       -1.1081311530    0.8206551460   -0.4716842671
