22   
torsion grid (-165,)
C        1.6888637971    0.0122032459   -1.9234638914
C        0.4381077286    0.4007592814   -1.6641174068
C       -0.9588734017   -1.2603758749   -2.8969822494
C       -1.9784020177    0.5826076830   -1.6708775416
C       -0.9135603948   -1.2492304265   -0.4077350824
C        2.3813346192   -1.2921773385   -2.1855292574
N       -0.8258440595   -0.3963669570   -1.6577164500
O        1.5825203187   -2.4226993732   -1.8448388137
H        2.3897938273    0.8457417887   -1.9088604631
H        0.2433408047    1.4469049293   -1.4608980971
H       -1.9426810271   -1.7306582867   -2.8751998041
H       -0.8685313354   -0.6151363735   -3.7704950266
H       -0.1770564488   -2.0135568205   -2.8850265789
H       -2.9118249378    0.0208838623   -1.6779286935
H       -1.9284121764    1.2050282573   -0.7771984694
H       -1.9052840764    1.2003237298   -2.5657648548
H       -1.8799075928   -1.7558843443   -0.4038054756
H       -0.0967725175   -1.9664972866   -0.4293758348
H       -0.8269799654   -0.5938865991    0.4589732651
H        2.6786842369   -1.3152933313   -3.2452776378
H        3.3062171729   -1.2823230376   -1.5940204041
H        2.1175225533   -3.2267318723   -1.9492017205
22   
torsion grid (-150,)
C        1.7069665288    0.0689889541   -1.8680976550
C        0.4719055092    0.4019646332   -1.4902353287
C       -0.8358414212   -1.2731680426   -2.8248652248
C       -1.9231662377    0.6193001160   -1.7519745611
C       -0.9965403237   -1.2054716188   -0.3501260317
C        2.3144922765   -1.2161048538   -2.3695852320
N       -0.7952258362   -0.3784013941   -1.6042265992
O        1.7094772940   -2.3378368340   -1.7156440785
H        2.4213262534    0.8766907092   -1.7230171928
H        0.2850646393    1.3842038251   -1.0713131360
H       -1.8391308210   -1.6935328703   -2.8972466054
H       -0.6216630076   -0.6637317079   -3.7025379417
H       -0.1047561344   -2.0671427429   -2.7064947773
H       -2.8623166343    0.0731528161   -1.8352641816
H       -1.9487934155    1.2642185546   -0.8734393216
H       -1.7488566551    1.2126014973   -2.6493304904
H       -1.9588624563   -1.7149010842   -0.4211602911
H       -0.1773716037   -1.9190647272   -0.2870129076
H       -0.9870521132   -0.5353956095    0.5097166162
H        2.2028112278   -1.2835316983   -3.4621234740
H        3.3870843807   -1.1813066659   -2.1539597842
H        2.2587259235   -3.1240614003   -1.8709239811
22   
torsion grid (-135,)
C        1.7012599310    0.0392066762   -1.8154785918
C        0.4803641758    0.3079991474   -1.3524073467
C       -0.7957741186   -1.3850792298   -2.7215915325
C       -1.8596623566    0.6284119780   -1.8664893454
C       -1.1498796141   -1.1600654624   -0.2897854674
C        2.2694499461   -1.1669594522   -2.5279280943
N       -0.8056125544   -0.4153301054   -1.5625042080
O        1.8688592395   -2.3471331516   -1.8168408930
H        2.4292895502    0.7969961093   -1.5347998364
H        0.3121134582    1.2037869201   -0.7638074396
H       -1.8035041635   -1.7874410502   -2.8250437272
H       -0.5222915556   -0.8399478048   -3.6244200887
H       -0.0875701780   -2.1825798745   -2.5129716273
H       -2.8158569114    0.1256213770   -2.0108529775
H       -1.9306034093    1.3223805754   -1.0288196844
H       -1.5681219695    1.1613675407   -2.7709268206
H       -2.1277141926   -1.6283173425   -0.4115842002
H       -0.3770894766   -1.9091113795   -0.1218294706
H       -1.1739914811   -0.4492136550    0.5363721380
H        1.9363882181   -1.2017172856   -3.5742540894
H        3.3589420486   -1.0725554493   -2.5353070628
H        2.4496368958   -3.0818919953   -2.0758278889
22   
torsion grid (-120,)
C        1.7888876364   -0.2246515095   -1.6617669620
C        0.5926999934    0.1535527209   -1.2111658297
C       -0.7580975189   -1.7978574222   -2.1017590104
C       -1.6449912355    0.5043530816   -2.0776618601
C       -1.2880437551   -0.7174251097    0.0327308614
C        2.2237429618   -1.3192626456   -2.6135743439
N       -0.7446136535   -0.4840183541   -1.3635619362
O        1.5593490918   -1.1100177941   -3.8669095635
H        2.5808711610    0.4465113884   -1.3370520780
H        0.5072242269    1.0357228625   -0.5847261546
H       -1.7937446926   -2.1320838543   -2.1641938001
H       -0.3346328355   -1.6574648233   -3.0940865169
H       -0.1766081837   -2.5216219987   -1.5325720292
H       -2.6552767271    0.0950146422   -2.1121397834
H       -1.6410237226    1.4458240270   -1.5290004056
H       -1.2556716626    0.6539341765   -3.0843239685
H       -2.2842297964   -1.1528507105   -0.0503713994
H       -0.6168576163   -1.3968618355    0.5569830700
H       -1.3415988503    0.2349726056    0.5596997976
H        3.3085867507   -1.2520737645   -2.7327878752
H        2.0009147813   -2.3146631683   -2.2086504731
H        2.0602449125   -1.5589746766   -4.5680156418
22   
torsion grid (-105,)
C        1.7909874831   -0.2680872624   -1.5813021589
C        0.6069190629    0.0571452579   -1.0624509268
C       -0.7260743591   -1.9048662658   -1.9406835555
C       -1.5197041486    0.4323502546   -2.1897109602
C       -1.4319843532   -0.6408493695    0.0260672555
C        2.1739675755   -1.1745440988   -2.7281226591
N       -0.7385048139   -0.5312892916   -1.3178306244
O        1.3182005627   -0.8892550455   -3.8439227857
H        2.6090972018    0.3032725896   -1.1485808592
H        0.5433472493    0.8242115486   -0.2982434919
H       -1.7567533549   -2.2564626101   -1.9892794881
H       -0.3000886758   -1.8388023373   -2.9382213877
H       -0.1400484942   -2.5659855545   -1.3027483402
H       -2.5377883118    0.0564630121   -2.3012150667
H       -1.5289391417    1.4092717045   -1.7067999405
H       -1.0190643616    0.4925873093   -3.1553922885
H       -2.4301318873   -1.0494251572   -0.1305296879
H       -0.8475818692   -1.3007370324    0.6669685077
H       -1.5040789993    0.3498536279    0.4740912497
H        3.2185383397   -0.9741372273   -2.9827502576
H        2.1049657894   -2.2312879931   -2.4346970657
H        1.7267769851   -1.2437824213   -4.6511407357
22   
torsion grid (-90,)
C        1.8128687350   -0.3127307357   -1.5498353140
C        0.6501957510   -0.0534782745   -0.9496607271
C       -0.7263642078   -1.9733513127   -1.8095446380
C       -1.3771554273    0.3892861872   -2.2636990159
C       -1.5150040861   -0.5458432599    0.0063802667
C        2.1751790430   -1.0351605291   -2.8211705370
N       -0.7153953455   -0.5576214504   -1.2798599152
O        1.1592919096   -0.8456056178   -3.8121884531
H        2.6591780149    0.1419431310   -1.0389725030
H        0.6308076051    0.5711154863   -0.0641354267
H       -1.7659876009   -2.2912379825   -1.8922811926
H       -0.2501944898   -1.9892366869   -2.7852282041
H       -0.1964463397   -2.6070083231   -1.0986025989
H       -2.4029279632    0.0561917052   -2.4291864024
H       -1.3693648811    1.3906353799   -1.8335231774
H       -0.8032369252    0.3668054366   -3.1880408950
H       -2.5228630357   -0.9001553373   -0.2076152199
H       -1.0292795450   -1.2029149706    0.7278446294
H       -1.5559656273    0.4723905029    0.3926784433
H        3.1298730797   -0.6285333567   -3.1704887399
H        2.3331258620   -2.1036808129   -2.6105050286
H        1.5074475492   -1.1270280569   -4.6744312208
22   
torsion grid (-75,)
C        1.7925201357   -0.3614210546   -1.5720476460
C        0.6556239246   -0.2100147903   -0.8884985533
C       -0.8188346023   -2.0437375017   -1.7320839125
C       -1.3000229773    0.3398792509   -2.2999473033
C       -1.5838601554   -0.4883111332   -0.0092502583
C        2.1755531382   -0.8476475494   -2.9375346433
N       -0.7367145276   -0.6079758874   -1.2578198787
O        1.0586892426   -0.9961848415   -3.8102674234
H        2.6600445380   -0.0177245366   -1.0101100081
H        0.6911883892    0.2246863736    0.1030139193
H       -1.8704800097   -2.2878089173   -1.8875777479
H       -0.2645667507   -2.1378329098   -2.6609674477
H       -0.3944905491   -2.6807630116   -0.9563184636
H       -2.3427951714    0.0735637712   -2.4792282110
H       -1.2298542894    1.3547717203   -1.9091873939
H       -0.7103546230    0.2366779377   -3.2075797826
H       -2.6055327098   -0.7769493483   -0.2535207165
H       -1.1806063606   -1.1515257378    0.7560428966
H       -1.5634017233    0.5448742872    0.3372785075
H        2.8882707656   -0.1174976826   -3.3437234266
H        2.7213016703   -1.7963785693   -2.8194659825
H        1.3821790698   -1.2349017155   -4.6945335345
22   
torsion grid (-60,)
C        1.7891598031   -0.3786063203   -1.5775375114
C        0.6758395046   -0.3478415445   -0.8407009303
C       -0.8972575862   -2.0821460800   -1.6687227823
C       -1.2065197363    0.2983308746   -2.3326173509
C       -1.6063992595   -0.4106174368   -0.0208281061
C        2.1556181044   -0.6952887504   -2.9946876845
N       -0.7362973571   -0.6372748404   -1.2359087178
O        1.0492413918   -1.0980842558   -3.7950217536
H        2.6711515750   -0.1065045217   -0.9985314696
H        0.7455272411   -0.0725547782    0.2045289061
H       -1.9550158923   -2.2631800581   -1.8652241331
H       -0.3052135134   -2.2407778784   -2.5657970878
H       -0.5489994975   -2.7201175273   -0.8566407401
H       -2.2623423590    0.0980512854   -2.5205185912
H       -1.0724961509    1.3224827308   -1.9848377299
H       -0.6145761293    0.1114302268   -3.2239992204
H       -2.6412556549   -0.6184956180   -0.2904235086
H       -1.2872450989   -1.0837159717    0.7749576515
H       -1.5061594748    0.6267413524    0.2986462015
H        2.6395151608    0.2004290091   -3.4113167689
H        2.9217167970   -1.4834540569   -2.9579862967
H        1.3664137870   -1.2952060298   -4.6917209931
22   
torsion grid (-45,)
C        1.7902916680   -0.3941897116   -1.5660039905
C        0.6886181370   -0.4930482997   -0.8182976008
C       -0.9861829251   -2.1166062496   -1.6225688258
C       -1.1209296654    0.2422887852   -2.3801188114
C       -1.6057405937   -0.3299104629   -0.0470308190
C        2.1191927077   -0.5295258017   -3.0239915958
N       -0.7355112822   -0.6699542573   -1.2341719955
O        1.0965930639   -1.1979732606   -3.7597681244
H        2.6779698259   -0.2020255422   -0.9650361333
H        0.7720033570   -0.3920266994    0.2572132401
H       -2.0473890917   -2.2336824315   -1.8476423907
H       -0.3745299866   -2.3438406247   -2.4922884440
H       -0.7063268622   -2.7495141588   -0.7804693124
H       -2.1894842904    0.1205757618   -2.5615871716
H       -0.9046981330    1.2689449671   -2.0845064158
H       -0.5511082069   -0.0400254973   -3.2598349356
H       -2.6494345906   -0.4526531102   -0.3344581592
H       -1.3663017470   -1.0043104300    0.7751375838
H       -1.4164896290    0.7032805528    0.2445886449
H        2.3140483720    0.4755217380   -3.4290400318
H        3.0621999993   -1.0876734208   -3.0845576956
H        1.4109376138   -1.3482694479   -4.6665379529
22   
torsion grid (-30,)
C        1.8274613483   -0.4249374502   -1.5065899677
C        0.7308476393   -0.6485509939   -0.7812250727
C       -1.0394614648   -2.1512368294   -1.5501915062
C       -1.0071914678    0.1642786254   -2.4073291540
C       -1.5473710723   -0.2516359101   -0.0528548649
C        2.0674401435   -0.3205519357   -2.9919696218
N       -0.6957500113   -0.7100484120   -1.2140231416
O        1.2594936787   -1.2796580139   -3.6858307372
H        2.7278258754   -0.3728099247   -0.8981830491
H        0.8132078503   -0.7731605014    0.2925981151
H       -2.1002130612   -2.2056090761   -1.8001497860
H       -0.4207192123   -2.4535321942   -2.3928696408
H       -0.8254887389   -2.7696669662   -0.6783890876
H       -2.0853372834    0.1378477260   -2.5672056022
H       -0.6897230158    1.1820024260   -2.1798469584
H       -0.4887975872   -0.2275107939   -3.2771349965
H       -2.5951314989   -0.3072888490   -0.3468550756
H       -1.3681451431   -0.9043665723    0.8013282760
H       -1.2782323836    0.7752449747    0.1949550094
H        1.8576498109    0.7020231036   -3.3389134604
H        3.1293231489   -0.5142297683   -3.1719714639
H        1.5934810017   -1.3721026740   -4.5935336882
22   
torsion grid (-15,)
C        1.8248718579   -0.4938586470   -1.5188750638
C        0.7336828085   -0.8046164792   -0.8189600868
C       -1.1636630034   -2.1880246647   -1.4297895845
C       -0.9960299226    0.0341291464   -2.4615684866
C       -1.4730766940   -0.1483579092   -0.0606945517
C        2.0311183839   -0.1741565392   -2.9823224659
N       -0.7032934664   -0.7577128340   -1.2106937745
O        1.3860530888   -1.1898119896   -3.7647527937
H        2.7355064228   -0.5828322621   -0.9307745977
H        0.8266463232   -1.1057022649    0.2192274728
H       -2.2339423332   -2.1824339047   -1.6412151103
H       -0.6025131982   -2.5951166679   -2.2698409131
H       -0.9624004293   -2.7636614183   -0.5262735337
H       -2.0763157311    0.0343905893   -2.6075487039
H       -0.6458593024    1.0557291825   -2.3147062973
H       -0.4971765482   -0.4358037327   -3.3049976592
H       -2.5316953676   -0.1342055029   -0.3198590817
H       -1.3187317323   -0.7522192718    0.8332764752
H       -1.1080962849    0.8653393235    0.1036873902
H        1.6416472110    0.8228240292   -3.2287569335
H        3.1068725425   -0.1619966057   -3.1778650069
H        1.7611019631   -1.1818616311   -4.6610905174
22   
torsion grid (0,)
C        1.8300463014   -0.5553203597   -1.5718649153
C        0.7394864795   -0.9417431688   -0.9097839505
C       -1.2767684409   -2.2120494776   -1.3190074209
C       -0.9919087413   -0.1258573528   -2.5686128474
C       -1.3769926929   -0.0395293812   -0.1397952513
C        2.0377041955    0.0140605299   -2.9598527571
N       -0.7030316267   -0.8086459608   -1.2554273545
O        1.5623389327   -0.9495225593   -3.9094240410
H        2.7425301824   -0.7759280969   -1.0224276444
H        0.8383307865   -1.3973555524    0.0704609417
H       -2.3515541145   -2.1428679056   -1.4906310966
H       -0.7891428245   -2.7413757348   -2.1368896173
H       -1.0815464036   -2.7183318646   -0.3738330498
H       -2.0702466326   -0.1522150359   -2.7255864391
H       -0.6614908209    0.9098304469   -2.5039685062
H       -0.4692825597   -0.6470759591   -3.3678967052
H       -2.4428540149    0.0288586423   -0.3594312701
H       -1.2238242936   -0.5677585128    0.8011080673
H       -0.9330351246    0.9540328972   -0.0870217583
H        1.5240279484    0.9759404508   -3.0810771907
H        3.1073697321    0.1972218613   -3.0935068175
H        1.9857265325   -0.7818768080   -4.7677128632
22   
torsion grid (15,)
C        1.8208285147   -0.8648431597   -1.5606990877
C        0.6738587931   -1.1836383387   -0.9607473051
C       -1.4672666151   -2.3119505918   -1.0961725812
C       -0.8761525709   -0.7744835022   -2.9157343397
C       -1.3489922050    0.1260407922   -0.6801565049
C        2.1218530628   -0.0849583357   -2.8206885319
N       -0.7304565096   -1.0365121750   -1.4367707669
O        1.3944012146    1.1513129212   -2.7731332487
H        2.6902637271   -1.1456210066   -0.9705824580
H        0.6891950945   -1.6686930711    0.0096355203
H       -2.5060160908   -2.2076230070   -1.4095262425
H       -0.9925116891   -3.1394212113   -1.6232075275
H       -1.4200750487   -2.4765261873   -0.0198945301
H       -1.9419031933   -0.7402760468   -3.1422537274
H       -0.4041333472    0.1742999468   -3.1567784554
H       -0.4120032216   -1.5965044258   -3.4604507189
H       -2.4008401762    0.2043683939   -0.9588548259
H       -1.2568050161   -0.0631277869    0.3893630549
H       -0.8049997369    1.0294651753   -0.9525011094
H        3.1986843079    0.1022436490   -2.8539925115
H        1.8615592921   -0.6638794207   -3.7170537763
H        1.7946661094    1.7756632545   -3.4010398850
22   
torsion grid (30,)
C        1.8393071165   -0.9192806381   -1.5921115745
C        0.7010684998   -1.3242284054   -1.0271788292
C       -1.5351127125   -2.2608631305   -1.0036165693
C       -0.8736245082   -0.9204107456   -2.9462827142
C       -1.2114302576    0.1772760670   -0.7603485522
C        2.1376099572    0.0346921906   -2.7216203232
N       -0.7079585628   -1.0782660353   -1.4519400857
O        1.2429253131    1.1529532898   -2.6656097759
H        2.7194286148   -1.3130869007   -1.0882908461
H        0.7333694137   -1.9612150149   -0.1504738723
H       -2.5719943091   -2.0888800407   -1.2910766936
H       -1.1525944581   -3.1595193131   -1.4877923869
H       -1.4631246261   -2.3571881865    0.0795949193
H       -1.9414451848   -0.8632677037   -3.1587706591
H       -0.3784492596   -0.0072284518   -3.2620242733
H       -0.4436000005   -1.7953319114   -3.4340198294
H       -2.2624607639    0.3174012943   -1.0178931023
H       -1.1014089570    0.0462579446    0.3162242757
H       -0.6067981244    1.0134430302   -1.1061455406
H        3.1737425841    0.3686812668   -2.6103208374
H        2.0634721374   -0.4864354594   -3.6875245947
H        1.5923238206    1.8619894090   -3.2305935203
22   
torsion grid (45,)
C        1.8083599089   -0.9038803140   -1.6600818674
C        0.6791733196   -1.4148743840   -1.1637584974
C       -1.6025095421   -2.2116460498   -0.9527616240
C       -0.9778496694   -1.0032290802   -2.9911433539
C       -1.1518110014    0.2050975375   -0.8309636068
C        2.1649779119    0.2117055496   -2.5984651379
N       -0.7417862253   -1.0962050719   -1.4979771617
O        1.0934982561    1.1329255607   -2.7914681539
H        2.6928984520   -1.3951261723   -1.2571776045
H        0.7393367114   -2.2166903414   -0.4375662983
H       -2.6436107954   -1.9951151147   -1.1898250343
H       -1.2997890246   -3.1500913067   -1.4175383251
H       -1.4724958405   -2.2663035500    0.1280807642
H       -2.0469047119   -0.8613005997   -3.1540120172
H       -0.4181287003   -0.1596036250   -3.3826950748
H       -0.6494743620   -1.9379053399   -3.4458007657
H       -2.2116549017    0.3738560269   -1.0278876949
H       -0.9770510052    0.1092514132    0.2406217846
H       -0.5443769061    1.0046338160   -1.2480228362
H        3.0356639074    0.7214860196   -2.1666210687
H        2.4917597530   -0.2301537459   -3.5524573511
H        1.4162116530    1.8821587049   -3.3188589798
22   
torsion grid (60,)
C        1.8121877896   -0.9224270703   -1.6784388006
C        0.6844661675   -1.5192016835   -1.2841010379
C       -1.6173752161   -2.1791666011   -0.8952861489
C       -1.0482464567   -1.0902098487   -3.0160531132
C       -1.0563020986    0.2078481256   -0.8905232696
C        2.1894167988    0.2992700799   -2.4582550991
N       -0.7366316162   -1.1284967410   -1.5325118622
O        1.0724570788    1.0679118335   -2.8922402081
H        2.6987692331   -1.4593991584   -1.3425521282
H        0.7485073482   -2.4280479054   -0.6984043587
H       -2.6590258885   -1.9093880235   -1.0655286122
H       -1.4034440249   -3.1454962403   -1.3520254464
H       -1.4121573501   -2.2129068396    0.1747215048
H       -2.1129923646   -0.8841008532   -3.1343535767
H       -0.4513149934   -0.3071453109   -3.4747450370
H       -0.8026027008   -2.0641147359   -3.4390414151
H       -2.1196595132    0.4076386617   -1.0305986833
H       -0.8213835517    0.1388006596    0.1714732813
H       -0.4532323899    0.9734721944   -1.3706978905
H        2.8517304743    0.8968524272   -1.8150945177
H        2.7941409524   -0.0369424392   -3.3134800769
H        1.3961227521    1.8465477241   -3.3744133350
22   
torsion grid (75,)
C        1.8145379486   -0.9234267668   -1.6861416214
C        0.6827951559   -1.5754650109   -1.4091901613
C       -1.6011038091   -2.1209777577   -0.8159207714
C       -1.1460482582   -1.1412276248   -3.0173241362
C       -0.9734158705    0.2375367524   -0.9422341514
C        2.1803428847    0.3876036930   -2.3146316095
N       -0.7346327831   -1.1255630652   -1.5570826372
O        1.0822967938    1.0182897389   -2.9685683617
H        2.6985732605   -1.4996682069   -1.4161042271
H        0.7384829585   -2.5660958721   -0.9745880744
H       -2.6416580661   -1.8116024019   -0.9071821870
H       -1.4677776151   -3.1080697478   -1.2584661374
H       -1.3055192585   -2.1343059911    0.2331770486
H       -2.2069660066   -0.8939233236   -3.0784330180
H       -0.5441891078   -0.4076206312   -3.5481235300
H       -0.9669689591   -2.1419828063   -3.4097871403
H       -2.0412218175    0.4518932120   -1.0018179819
H       -0.6538879554    0.1992290837    0.0989691514
H       -0.4048201557    0.9767891976   -1.4981898627
H        2.6049687138    1.0333131235   -1.5306590829
H        2.9877148878    0.1800204183   -3.0295867685
H        1.4030567492    1.8172186616   -3.4184392839
22   
torsion grid (90,)
C        1.8402016292   -0.9728101819   -1.7007506946
C        0.6985800443   -1.6482607302   -1.5604599696
C       -1.5397478549   -2.0857830691   -0.7584371346
C       -1.2174599210   -1.2070871901   -3.0326029243
C       -0.8703519061    0.2448298585   -1.0370193630
C        2.1533471083    0.4449231225   -2.1027043046
N       -0.7063957194   -1.1461556942   -1.6051541069
O        1.2005273020    0.9158425612   -3.0620727771
H        2.7182602801   -1.5964799196   -1.5458678824
H        0.7260528154   -2.7086256569   -1.3379261314
H       -2.5753141570   -1.7478669426   -0.7810182454
H       -1.4709292443   -3.0929729184   -1.1689268280
H       -1.1594239115   -2.0686424392    0.2629524973
H       -2.2700858843   -0.9198456987   -3.0366123008
H       -0.6213036004   -0.5213197241   -3.6314531979
H       -1.1026369649   -2.2287634243   -3.3942361082
H       -1.9373883084    0.4644249678   -0.9929436831
H       -0.4441296025    0.2555014886   -0.0340158608
H       -0.3678910387    0.9538967667   -1.6879578274
H        2.1737396716    1.0892066665   -1.2107453480
H        3.1610902621    0.4510665874   -2.5307270078
H        1.5394941398    1.7327113986   -3.4642015947
22   
torsion grid (105,)
C        1.8378405003   -0.9912945449   -1.7722904142
C        0.6901248590   -1.6683781483   -1.7359585483
C       -1.4457366898   -2.0560166485   -0.6790495936
C       -1.3458416679   -1.3236773321   -3.0289052280
C       -0.8524619458    0.2585727280   -1.1828380592
C        2.1346886107    0.4791525089   -1.9548050684
N       -0.7108574415   -1.1649925062   -1.6612834528
O        1.3468861534    0.9754822130   -3.0465762500
H        2.7090661104   -1.6423221445   -1.7589824139
H        0.7024091669   -2.7525277123   -1.7056791012
H       -2.4825800029   -1.7256945698   -0.6190134950
H       -1.4059516426   -3.0866428343   -1.0307286371
H       -0.9635883388   -1.9731964867    0.2948056306
H       -2.3994891032   -1.0494413017   -2.9593569912
H       -0.8182735928   -0.6693677070   -3.7219728085
H       -1.2465100232   -2.3633370588   -3.3402745178
H       -1.9171749961    0.4714984389   -1.0862626063
H       -0.3691705415    0.3434715079   -0.2098569345
H       -0.3965177163    0.9252150851   -1.9098657537
H        1.9306828344    1.0392379333   -1.0316634325
H        3.2016068007    0.5840640074   -2.1708838028
H        1.7385917692    1.8058549198   -3.3645797592
22   
torsion grid (120,)
C        1.8118906686   -0.9942922603   -1.8600232966
C        0.6517627456   -1.6493697343   -1.9047113375
C       -1.3535280534   -1.9754264259   -0.5939402041
C       -1.5035852691   -1.4501971806   -2.9975368034
C       -0.8797391339    0.2988756767   -1.3735510222
C        2.1511871449    0.4790604955   -1.7759472127
N       -0.7429371928   -1.1615448391   -1.7184407595
O        1.5551441682    1.1380067741   -2.9013864724
H        2.6632790418   -1.6571902589   -1.9973551321
H        0.6459836974   -2.7249486231   -2.0497775715
H       -2.3910350770   -1.6658707748   -0.4650322723
H       -1.3105230446   -3.0329124357   -0.8535796055
H       -0.7839728950   -1.7909030720    0.3162832501
H       -2.5505051457   -1.1829653320   -2.8494476681
H       -1.0637425107   -0.8545351198   -3.7969563534
H       -1.4167951224   -2.5117033071   -3.2279401961
H       -1.9436750242    0.5229133566   -1.2955861122
H       -0.4001135814    0.4749011730   -0.4118450617
H       -0.4128929719    0.8977534189   -2.1527839002
H        1.8053108681    0.9173031923   -0.8310554739
H        3.2400383575    0.5766922924   -1.8006438903
H        2.0144737279    1.9809132100   -3.0519759399
22   
torsion grid (135,)
C        1.6791148178    0.0421857474   -2.0556639560
C        0.3938264382    0.3184817408   -2.2769441452
C       -1.4092023573   -1.1296809803   -3.0476491948
C       -1.8084752586    0.6234926218   -1.3285216118
C       -0.6079972031   -1.4057502023   -0.7299871594
C        2.3677098671   -1.1777879118   -1.4875417244
N       -0.8318925860   -0.4115656980   -1.8459870462
O        1.8389860693   -2.3433205952   -2.1363193468
H        2.3435883582    0.8071382991   -2.4511067596
H        0.1205999742    1.2262625457   -2.8046517439
H       -2.3481250840   -1.6022546142   -2.7554959488
H       -1.5855485707   -0.4014471948   -3.8394859864
H       -0.6829267257   -1.8735296985   -3.3727591828
H       -2.7220046193    0.1159512597   -1.0189845411
H       -1.3521457171    1.1376166559   -0.4832497219
H       -2.0330025590    1.3350035073   -2.1232889162
H       -1.5795755701   -1.8121099725   -0.4488739128
H        0.0471341033   -2.1973010882   -1.0840111994
H       -0.1696784429   -0.8794532176    0.1173315677
H        3.4396432814   -1.0815009547   -1.6815707472
H        2.2356503411   -1.2354304362   -0.3984259309
H        2.4563271336   -3.0823270344   -2.0059076457
22   
torsion grid (150,)
C        1.6946016039    0.0708586490   -2.0044108992
C        0.4114336166    0.4094802725   -2.1379936302
C       -1.2473881411   -1.1760818462   -3.0179591495
C       -1.8922568658    0.6166962497   -1.4293446884
C       -0.6278488972   -1.2961325387   -0.6186886342
C        2.3823050329   -1.2234714228   -1.6525343860
N       -0.8138246432   -0.3755142016   -1.8061603535
O        1.6635057217   -2.3321677587   -2.2057842691
H        2.3710553538    0.8828057351   -2.2630469337
H        0.1517895613    1.4000589997   -2.4937154767
H       -2.1806320078   -1.6887143233   -2.7794386412
H       -1.3970957991   -0.4878402005   -3.8500242412
H       -0.4559056740   -1.8866302224   -3.2479865761
H       -2.8005273426    0.0671362599   -1.1838936771
H       -1.5522943957    1.1910901621   -0.5678718555
H       -2.0800031253    1.2801180414   -2.2737518708
H       -1.6009000823   -1.7198255575   -0.3693068002
H        0.0666131538   -2.0860351180   -0.8882619013
H       -0.2523548519   -0.7051137977    0.2163537832
H        3.3958918188   -1.1820763124   -2.0637367154
H        2.4763154716   -1.3143436353   -0.5600312740
H        2.2304122289   -3.1204842041   -2.1724796077
22   
torsion grid (165,)
C        1.6869459294    0.0128325862   -1.9481840053
C        0.4105801946    0.4044512237   -1.9608524539
C       -1.1555267480   -1.2204682610   -2.9781252398
C       -1.9616738943    0.5816889296   -1.4989232398
C       -0.7353924147   -1.2855588259   -0.5250604267
C        2.4137723662   -1.2952712810   -1.8473355482
N       -0.8340824145   -0.3947020891   -1.7482949540
O        1.5634059495   -2.4201318932   -2.0566501444
H        2.3745029685    0.8478842939   -2.0756927406
H        0.1834639031    1.4541581538   -2.1029547349
H       -2.1066843809   -1.7287931921   -2.8124607595
H       -1.2309307467   -0.5463373412   -3.8313524775
H       -0.3506279132   -1.9365007300   -3.1248946348
H       -2.8784540336    0.0182345104   -1.3289325472
H       -1.7208653011    1.1806037743   -0.6208272959
H       -2.0785848963    1.2228143438   -2.3729115681
H       -1.7069834919   -1.7571701366   -0.3730141667
H        0.0288930025   -2.0367320606   -0.6989916688
H       -0.4822355290   -0.6592688196    0.3300543393
H        3.2119515986   -1.2710440021   -2.6008106735
H        2.9037244567   -1.3398986005   -0.8624626739
H        2.1068118646   -3.2252141098   -2.0686946126
22   
torsion grid (180,)
C        1.6893094339    0.0024418250   -1.9359327294
C        0.4252018736    0.4148282080   -1.8122653303
C       -1.0549104690   -1.2312536407   -2.9423971491
C       -1.9835673588    0.5845245326   -1.5834212092
C       -0.8213147589   -1.2588441406   -0.4617882041
C        2.4102745964   -1.3076300421   -2.0182579029
N       -0.8313730495   -0.3870370311   -1.7027198522
O        1.5495003656   -2.4393511966   -1.9505332843
H        2.3885970757    0.8360809685   -1.9929279611
H        0.2202922524    1.4779166268   -1.7811857126
H       -2.0203718261   -1.7298976544   -2.8450784113
H       -1.0572836521   -0.5687420618   -3.8077499911
H       -0.2512245892   -1.9586392979   -3.0143754334
H       -2.9098723945    0.0170313628   -1.5013664010
H       -1.8415064197    1.1957437780   -0.6921258356
H       -2.0105468641    1.2138583137   -2.4730301677
H       -1.7894789451   -1.7561430030   -0.3875390171
H       -0.0204992484   -1.9866016140   -0.5580697240
H       -0.6593396981   -0.6155245611    0.4028713703
H        2.9806353416   -1.3017798068   -2.9587913914
H        3.1454045876   -1.3216867258   -1.2002297093
H        2.0875421337   -3.2462446141   -2.0048816669
