17   
torsion grid (-165,)
C        0.1211096882   -0.2427869546    1.1499314194
C       -0.7850145170   -1.0699660705    1.8079492275
C        1.4014913843   -0.0641918893    1.6869222381
C        1.7157461810   -0.7234135962    2.8908496192
C        0.7295510460   -1.5507312744    3.4658918938
C        2.3896113040    0.7787694837    0.9353839580
C        0.9759810295   -2.3531731316    4.7477106194
N       -0.4805140688   -1.7162614862    2.9359236070
O        3.5924034801    0.6360132059    0.9385074711
O        1.7622170953    1.7301653540    0.1926296636
F        0.9675771497   -1.5451187473    5.8361186495
F        0.0383142131   -3.2949527096    4.9216140077
F        2.1708063519   -2.9897786527    4.7204462881
Cl       3.2268293243   -0.4495241240    3.7007744443
H       -0.1541326308    0.2607152250    0.2302436517
H       -1.7882558173   -1.2238669820    1.4174378168
H        2.4661885851    2.2042331255   -0.2912398807
17   
torsion grid (-150,)
C        0.1045497489   -0.2161743818    1.1831101859
C       -0.8051849096   -1.0229345597    1.8633864732
C        1.3970155449   -0.0651796868    1.6942776997
C        1.7264452900   -0.7273429627    2.8941881164
C        0.7415360697   -1.5438929191    3.4842137552
C        2.3874815343    0.7512852857    0.9160632064
C        0.9586157609   -2.3748848231    4.7545405303
N       -0.4853478636   -1.6790083460    2.9789600049
O        3.5773439570    0.5384258498    0.8407501098
O        1.7735977429    1.7629179857    0.2462595344
F        0.6339658445   -1.6554898943    5.8564127994
F        0.1934304962   -3.4791421234    4.7359584230
F        2.2344547280   -2.7925031396    4.9021873627
Cl       3.2531623510   -0.4336059917    3.6704004169
H       -0.1793952663    0.2931213364    0.2690629225
H       -1.8218998885   -1.1515403546    1.4992860623
H        2.4729329873    2.2144874591   -0.2653009513
17   
torsion grid (-135,)
C        0.1021533793   -0.1943968936    1.2071458062
C       -0.8020778033   -0.9940736503    1.9048232197
C        1.4093209099   -0.0728285449    1.6835628024
C        1.7629097493   -0.7488335296    2.8710828882
C        0.7789700693   -1.5467136585    3.4854837079
C        2.3915443388    0.7263735548    0.8764466802
C        0.9591915306   -2.3866113849    4.7559360056
N       -0.4639234370   -1.6576909245    3.0080650477
O        3.5659385079    0.4681990682    0.7328483168
O        1.7847929940    1.7783045092    0.2649010430
F        0.3246711036   -1.7947864474    5.7963668293
F        0.4172266753   -3.6086468169    4.5824225921
F        2.2411183998   -2.5776185466    5.1208164404
Cl       3.3337250523   -0.4985506830    3.5727093953
H       -0.1976116341    0.3281740238    0.3056729543
H       -1.8292462467   -1.1064118262    1.5653412387
H        2.4740849242    2.2159283561   -0.2718823043
17   
torsion grid (-120,)
C        0.0652474112   -0.1917774703    1.2118001823
C       -0.8352698806   -0.9795193889    1.9283386527
C        1.3876508238   -0.1039103761    1.6502293569
C        1.7614586861   -0.7921500234    2.8250564638
C        0.7716843452   -1.5510701586    3.4774082927
C        2.3629823317    0.6712091087    0.8112300672
C        0.9426932642   -2.3826177065    4.7547461149
N       -0.4841632615   -1.6413411208    3.0276783535
O        3.5142713843    0.3632240166    0.5971689318
O        1.7736772525    1.7653815256    0.2600770255
F        0.0797877515   -1.9514911655    5.7020428416
F        0.6531196644   -3.6780311744    4.4962742101
F        2.1742019052   -2.3508487884    5.2943773305
Cl       3.3804922485   -0.6287813640    3.4379425518
H       -0.2483782313    0.3422623001    0.3217233002
H       -1.8704156983   -1.0792117554    1.6097120658
H        2.4524151642    2.1864685083   -0.3028666029
17   
torsion grid (-105,)
C        0.0607406128   -0.1870081847    1.2119950604
C       -0.8440418934   -0.9651263023    1.9323830586
C        1.3947970016   -0.1421254558    1.6234648413
C        1.7725700988   -0.8578874567    2.7796742717
C        0.7701214057   -1.5808574047    3.4551916455
C        2.3725890554    0.6178830600    0.7735545860
C        0.9564802522   -2.4070978048    4.7343239306
N       -0.4931350997   -1.6393749514    3.0252186280
O        3.5162571159    0.2940206904    0.5425260454
O        1.7939778826    1.7241127345    0.2346722655
F       -0.0678736200   -2.1833489943    5.5829660994
F        0.9505160388   -3.7281919463    4.4295116683
F        2.0902071357   -2.1509975922    5.4104485985
Cl       3.4214353910   -0.8118041796    3.3283459065
H       -0.2564656458    0.3684406008    0.3364758150
H       -1.8843760299   -1.0444938459    1.6252279346
H        2.4724045906    2.1362671466   -0.3351251063
17   
torsion grid (-90,)
C        0.0512480020   -0.1990958721    1.2448009357
C       -0.8691528695   -0.9656905136    1.9555996146
C        1.3933489573   -0.2063340816    1.6378758534
C        1.7574149948   -0.9632413838    2.7700814897
C        0.7367711378   -1.6596579710    3.4488613521
C        2.3854018759    0.5472827058    0.7993695006
C        0.9518528930   -2.4770860883    4.7295189062
N       -0.5310328996   -1.6692941697    3.0362946902
O        3.5340973205    0.2248672386    0.5917753420
O        1.8173467314    1.6520741962    0.2451764488
F       -0.1719516429   -2.5022155840    5.4677868062
F        1.2577317953   -3.7623767219    4.4187607664
F        1.9304011774   -1.9963732529    5.5213108137
Cl       3.4142461188   -1.0463838354    3.2854649424
H       -0.2588425359    0.3872416322    0.3872634510
H       -1.9136687208   -1.0086852173    1.6556407942
H        2.5073662755    2.0615963446   -0.3122867165
17   
torsion grid (-75,)
C        0.0419316997   -0.1548346291    1.2706800578
C       -0.8881620107   -0.8933582363    1.9966659320
C        1.3921200269   -0.2025425681    1.6386244173
C        1.7488959431   -0.9779276820    2.7589284542
C        0.7202637329   -1.6541674162    3.4473882221
C        2.3931780996    0.5326775264    0.7955435562
C        0.9803083223   -2.4768752823    4.7145139059
N       -0.5545778679   -1.6192158170    3.0664281930
O        3.5522401645    0.2223510261    0.6302201322
O        1.8255230655    1.6084839885    0.1856316695
F       -0.1670440792   -2.7656474391    5.3469815959
F        1.5764502233   -3.6560964021    4.4055844070
F        1.7699563529   -1.8278076348    5.5983177916
Cl       3.4000483725   -1.1177188822    3.2757568527
H       -0.2661153557    0.4436813202    0.4210802590
H       -1.9394818637   -0.8971013986    1.7185234127
H        2.5258030322    2.0070335954   -0.3667621517
17   
torsion grid (-60,)
C        0.0335779175   -0.1217892132    1.2835394676
C       -0.9066348990   -0.8245672283    2.0314162844
C        1.3871873712   -0.1974951121    1.6350320330
C        1.7377038654   -0.9713011283    2.7574625254
C        0.7038334489   -1.6322030431    3.4526672149
C        2.3972008384    0.5068897696    0.7772267914
C        0.9832913517   -2.4866971059    4.6926366149
N       -0.5755034048   -1.5640160598    3.0935521264
O        3.5484703783    0.1694416597    0.6102880676
O        1.8487136589    1.5857220684    0.1555965777
F       -0.1416023078   -3.0180766525    5.1882534083
F        1.8234176578   -3.5103485641    4.4039715803
F        1.5548289987   -1.7517192899    5.6780600610
Cl       3.3797633362   -1.0864778854    3.3068499949
H       -0.2703212988    0.4755079501    0.4315700837
H       -1.9628438618   -0.7929397311    1.7743997107
H        2.5539264748    1.9621274930   -0.4059871772
17   
torsion grid (-45,)
C        0.0271169271   -0.1032079574    1.3057899118
C       -0.9150450153   -0.7693046234    2.0847724550
C        1.3840672756   -0.2060042143    1.6339203949
C        1.7408153568   -0.9731908444    2.7595423892
C        0.7081818270   -1.6181726876    3.4705958912
C        2.3940627949    0.4636469584    0.7489137985
C        0.9789616110   -2.5108947767    4.6858850263
N       -0.5770241114   -1.5178186609    3.1374724356
O        3.5288852721    0.0871306775    0.5552476595
O        1.8648281905    1.5562218971    0.1351862117
F       -0.0931787930   -3.2465459522    5.0056957458
F        2.0101782170   -3.3601693943    4.4757852832
F        1.2975540221   -1.7533900503    5.7679941686
Cl       3.3827832073   -1.0414242936    3.3194614793
H       -0.2788452153    0.4900195444    0.4516429940
H       -1.9764673684   -0.7049644531    1.8568674193
H        2.5668282492    1.9067953439   -0.4468237406
17   
torsion grid (-30,)
C        0.3964432056   -0.5884879155    0.9138322816
C       -0.3162312857   -1.6849763197    1.3943109202
C        1.3450838291    0.0225372964    1.7393864982
C        1.5318592881   -0.4878050924    3.0399683902
C        0.7786090746   -1.6174914008    3.4162933706
C        2.1558039385    1.1579991980    1.1856583411
C        0.8973323410   -2.3223290459    4.7727926668
N       -0.1167856680   -2.1913104307    2.6114158664
O        3.3087785826    1.4051900034    1.4620095383
O        1.4430970543    1.8754342758    0.2765279882
F        0.5968144836   -3.6255084509    4.6663155263
F        2.1278437763   -2.2350364858    5.3176297411
F        0.0270119604   -1.7688059101    5.6587211086
Cl       2.5672128323    0.3352844792    4.1666175227
H        0.2228252321   -0.2073427826   -0.0861600396
H       -1.0687427959   -2.1763185147    0.7818205002
H        2.0497417190    2.5610922088   -0.0647645455
17   
torsion grid (-15,)
C        0.3843365328   -0.5728971717    0.9343727348
C       -0.3343599278   -1.6583494931    1.4337122789
C        1.3623145897    0.0201464661    1.7354800353
C        1.5739408754   -0.4875254475    3.0349239014
C        0.8074312895   -1.5991665263    3.4332253491
C        2.1831239204    1.1339857749    1.1518943240
C        0.8957473655   -2.3190850180    4.7844397087
N       -0.1169546689   -2.1592102606    2.6477296730
O        3.3655444103    1.3150782852    1.3400986468
O        1.4373990014    1.9103802535    0.3219059104
F        0.8801697017   -3.6538082795    4.6042550215
F        1.9944616053   -2.0253200644    5.5040384144
F       -0.1793609398   -1.9947095193    5.5453897827
Cl       2.6757802191    0.3227034094    4.1086408755
H        0.1928002280   -0.1896335456   -0.0617331056
H       -1.1063254472   -2.1414646987    0.8390408216
H        2.0477950890    2.5764433227   -0.0504731485
17   
torsion grid (0,)
C        0.3585794531   -0.5565073484    0.9489139875
C       -0.3646587413   -1.6346560680    1.4581956855
C        1.3673239854    0.0131741403    1.7279240049
C        1.6005874656   -0.5035348493    3.0211332843
C        0.8080257530   -1.5882351736    3.4411429522
C        2.1962867687    1.1103660265    1.1239507036
C        0.8836016074   -2.3148253590    4.7898416070
N       -0.1382185266   -2.1341549128    2.6703020053
O        3.3869386002    1.2661362642    1.2798920942
O        1.4447148206    1.9042618407    0.3155628724
F        1.1532997108   -3.6242339064    4.5872669948
F        1.8137031285   -1.8442195384    5.6393610855
F       -0.3101956868   -2.2357534183    5.4203595735
Cl       2.7912542777    0.2442887219    4.0439948340
H        0.1503832907   -0.1648310130   -0.0404941624
H       -1.1505953966   -2.1089348405    0.8747632372
H        2.0589315211    2.5580612245   -0.0719027815
17   
torsion grid (15,)
C        0.3412232258   -0.5277053228    0.9606686706
C       -0.3909418425   -1.5992139722    1.4698286108
C        1.3750321784    0.0133538978    1.7279841721
C        1.6188344821   -0.5203185303    3.0116466386
C        0.7957365579   -1.5781062859    3.4440033595
C        2.2165886790    1.0975754785    1.1176476064
C        0.8749142267   -2.2947815044    4.7980192367
N       -0.1660344505   -2.1045809814    2.6804423986
O        3.4141637136    1.2237924193    1.2440006740
O        1.4634379571    1.9205231394    0.3403819512
F        1.4281375796   -3.5214140383    4.6302306012
F        1.6007317988   -1.6540524198    5.7325604337
F       -0.3608760865   -2.4707321422    5.3058927854
Cl       2.8849981634    0.1458702820    3.9991325592
H        0.1246923105   -0.1225585395   -0.0215432098
H       -1.1861275693   -2.0616753693    0.8895122192
H        2.0827467776    2.5652963850   -0.0540722654
17   
torsion grid (30,)
C        0.3232786816   -0.5028952889    0.9722081788
C       -0.4234391862   -1.5662145482    1.4738220417
C        1.3880507577   -0.0004208658    1.7267532839
C        1.6417332254   -0.5673177936    2.9925179030
C        0.7916737700   -1.6048099731    3.4271187713
C        2.2403360821    1.0793226386    1.1239513194
C        0.8897124689   -2.2928319185    4.7947009003
N       -0.1963459600   -2.0938728487    2.6767343892
O        3.4333417384    1.2164028860    1.2801557017
O        1.5031022175    1.8915247447    0.3194117041
F        1.7245498968   -3.3626496889    4.7126399577
F        1.3658042588   -1.4924112775    5.7698791638
F       -0.3094816048   -2.7419417796    5.1951137850
Cl       2.9735276978   -0.0113691303    3.9591664208
H        0.0967212425   -0.0737231430    0.0027664363
H       -1.2368875958   -2.0017370618    0.8981019537
H        2.1298206636    2.5357542965   -0.0637431048
17   
torsion grid (45,)
C        0.2770838598   -0.4268596776    1.0029431883
C       -0.4857042596   -1.4769651323    1.5058111366
C        1.3631575355    0.0497480659    1.7469814299
C        1.6205191609   -0.5376786764    3.0008624921
C        0.7608443898   -1.5691706531    3.4328262643
C        2.2248733847    1.1249536450    1.1511869327
C        0.9017715202   -2.2411606044    4.8029114539
N       -0.2513722650   -2.0274127180    2.6993508455
O        3.4091645003    1.2808232653    1.3514315140
O        1.5109204671    1.9125422776    0.3017751539
F        1.9692890895   -3.0818720863    4.8095037788
F        1.0953871164   -1.3438430553    5.7961576851
F       -0.1840310699   -2.9599730863    5.1135242157
Cl       2.9592859605   -0.0274580240    3.9806504806
H        0.0458863409    0.0151042585    0.0405498447
H       -1.3192163396   -1.8854321759    0.9391565307
H        2.1456275468    2.5563866724   -0.0683782640
17   
torsion grid (60,)
C        0.2573693883   -0.4151107343    1.0186920871
C       -0.5341768890   -1.4343845174    1.5401032958
C        1.3659546358    0.0350054019    1.7464418182
C        1.6200948133   -0.5533177879    2.9994612454
C        0.7470605090   -1.5692913703    3.4401493719
C        2.2519549766    1.0827248768    1.1388776085
C        0.9315217095   -2.2618777230    4.7936282130
N       -0.2911233182   -1.9979834279    2.7267165316
O        3.4408011491    1.2079530637    1.3338834876
O        1.5561220797    1.8823675953    0.2861295574
F        2.1380760834   -2.8743589762    4.8700628524
F        0.8602027695   -1.3722221083    5.8140436038
F       -0.0074427331   -3.1935008471    5.0038410273
Cl       2.9362774668   -0.0274659825    4.0009756476
H        0.0281409181    0.0267351309    0.0557341813
H       -1.3942847658   -1.8115481807    0.9917774239
H        2.2061949685    2.5061257225   -0.0917022838
17   
torsion grid (75,)
C        0.2408858786   -0.3845719995    1.0164916412
C       -0.5712404135   -1.3751148046    1.5624432068
C        1.3655477314    0.0482460129    1.7283426240
C        1.6200662191   -0.5306582421    2.9860781473
C        0.7412795615   -1.5350611562    3.4397554274
C        2.2700322327    1.0682932414    1.1013063926
C        0.9436442792   -2.2600321724    4.7744910763
N       -0.3181853677   -1.9426544824    2.7441832486
O        3.4675295032    1.1486772494    1.2641286961
O        1.5800955424    1.8950798869    0.2705925962
F        2.2247780247   -2.6484112760    4.9583389709
F        0.5968077730   -1.4576206251    5.8128428072
F        0.1803750764   -3.3605247928    4.8488798519
Cl       2.9119185403    0.0417047171    3.9955518943
H        0.0115805839    0.0511050547    0.0506063567
H       -1.4535424170   -1.7293445770    1.0344728590
H        2.2408871416    2.4965555124   -0.1245442314
17   
torsion grid (90,)
C        0.2300490628   -0.3642097384    1.0300775193
C       -0.5921387536   -1.3326409629    1.6019914048
C        1.3775910359    0.0462816668    1.7156751500
C        1.6489439929   -0.5288106534    2.9735993670
C        0.7680835895   -1.5217296837    3.4461651842
C        2.2915733164    1.0397505207    1.0595612427
C        0.9548223350   -2.2774940698    4.7675868730
N       -0.3186854176   -1.9042951208    2.7751360512
O        3.4958601922    1.0841405717    1.1805655417
O        1.5995291313    1.8863955530    0.2511736902
F        2.2464860290   -2.4461130084    5.1134753068
F        0.3329442308   -1.6186572725    5.7781466441
F        0.4057012015   -3.5025603992    4.6922408186
Cl       2.9572863856    0.0641447171    3.9512764964
H       -0.0102930954    0.0711614762    0.0667146990
H       -1.4985192770   -1.6645582328    1.1008908909
H        2.2646080358    2.4668227024   -0.1675979885
17   
torsion grid (105,)
C        0.2168216743   -0.3496522954    1.0454588695
C       -0.6085509594   -1.3103536381    1.6284509597
C        1.3857243765    0.0335127295    1.7067431253
C        1.6784967919   -0.5525568491    2.9567393437
C        0.7880257545   -1.5269983445    3.4461599288
C        2.3033168388    1.0093464873    1.0280668073
C        0.9347242370   -2.3013615595    4.7620705951
N       -0.3204719278   -1.8868313191    2.7932308438
O        3.5134520638    0.9892200313    1.0688320327
O        1.6022322466    1.9175712123    0.2985587913
F        2.1645506936   -2.2552620148    5.3053225208
F        0.0614337993   -1.8188682803    5.6801307752
F        0.6383422852   -3.6022062506    4.5677626804
Cl       3.0432100958    0.0080132838    3.8763508641
H       -0.0385441181    0.0980616831    0.0915462056
H       -1.5286144094   -1.6279987341    1.1431131014
H        2.2656916551    2.4818277824   -0.1444125642
17   
torsion grid (120,)
C        0.2055586301   -0.3309632251    1.0678354483
C       -0.6173291838   -1.2824999325    1.6696289243
C        1.3984833339    0.0297302352    1.6970547197
C        1.7165919005   -0.5608183837    2.9397542855
C        0.8129033593   -1.5053339413    3.4618862671
C        2.3142269840    0.9855294886    0.9872771853
C        0.9492937866   -2.2779343404    4.7798157426
N       -0.3139510657   -1.8534598841    2.8323207855
O        3.5238606317    0.9317950619    0.9743238148
O        1.6075131840    1.9195387819    0.2967147067
F        2.0699483069   -2.0215730558    5.4777276227
F       -0.0996133039   -1.9969313367    5.5863836211
F        0.9286773746   -3.6066368539    4.5322880182
Cl       3.1493254454   -0.0607044963    3.7884016602
H       -0.0675064417    0.1220672053    0.1213285018
H       -1.5492643276   -1.5936180028    1.2030634444
H        2.2664180225    2.4696043187   -0.1703009467
17   
torsion grid (135,)
C        0.1923406666   -0.2988550026    1.0867827178
C       -0.6393639287   -1.2419277334    1.6888498726
C        1.4024677458    0.0290867516    1.7018272431
C        1.7243389578   -0.5796612669    2.9339332155
C        0.7957233351   -1.4909065502    3.4729025986
C        2.3294012560    0.9686938957    0.9846964615
C        0.9323149114   -2.2499208784    4.7988906305
N       -0.3412386114   -1.8171085097    2.8514619940
O        3.5360532796    0.8781232904    0.9413142312
O        1.6342588195    1.9348765747    0.3273417547
F        1.8898476602   -1.7792869766    5.6196653316
F       -0.2287454894   -2.2015554393    5.4827664833
F        1.2130699038   -3.5523325915    4.5537579359
Cl       3.2138957084   -0.1759908778    3.7340211159
H       -0.0841323521    0.1687029670    0.1483264869
H       -1.5770410253   -1.5399342067    1.2252934106
H        2.2976753709    2.4733288486   -0.1467961831
17   
torsion grid (150,)
C        0.1611597024   -0.2821832654    1.0879905425
C       -0.6846342149   -1.2109510348    1.6898473382
C        1.3966482487   -0.0007337020    1.6792411668
C        1.7231166589   -0.6409724071    2.8921533620
C        0.7708318316   -1.5217283603    3.4442835114
C        2.3354504415    0.9246196205    0.9594089078
C        0.9358467118   -2.2491913069    4.7848198154
N       -0.3857753046   -1.8062748101    2.8444270789
O        3.5424827520    0.8326966780    0.9275607352
O        1.6504411998    1.8878804314    0.2865004282
F        1.6736527634   -1.5575149905    5.6795915510
F       -0.2599504845   -2.4628237632    5.3592759326
F        1.5359095398   -3.4507008586    4.6021776487
Cl       3.2599602073   -0.3615727355    3.6522447949
H       -0.1212610822    0.2088858119    0.1635810266
H       -1.6373702670   -1.4776655201    1.2381962509
H        2.3210634552    2.4189927251   -0.1855753999
17   
torsion grid (165,)
C        0.1509980834   -0.2895225336    1.1200543078
C       -0.7209387385   -1.1897742751    1.7255750945
C        1.4088243601   -0.0619877540    1.6915863771
C        1.7283645889   -0.7359771622    2.8862387806
C        0.7546583370   -1.5943067022    3.4383716047
C        2.3675352494    0.8474861277    0.9793594558
C        0.9602253336   -2.3254634447    4.7697426982
N       -0.4254228147   -1.8198102321    2.8650099114
O        3.5759914660    0.7691323127    1.0020768491
O        1.7043222215    1.7844900647    0.2487833077
F        1.4558695945   -1.5025373820    5.7247982325
F       -0.1959300845   -2.8116509456    5.2426093445
F        1.8261295683   -3.3581390074    4.6298078013
Cl       3.2731695831   -0.5383483377    3.6525102474
H       -0.1290644561    0.2253065637    0.2082143961
H       -1.6933261040   -1.4072268326    1.2898457381
H        2.3913771355    2.3075885186   -0.2080612274
17   
torsion grid (180,)
C        0.1275634350   -0.2668161673    1.1368339400
C       -0.7648094106   -1.1296088663    1.7666521835
C        1.3969381872   -0.0657294680    1.6931171951
C        1.7088253741   -0.7342651712    2.8918299712
C        0.7261052783   -1.5754794280    3.4533546889
C        2.3746133983    0.8093954631    0.9648513824
C        0.9650219143   -2.3340474210    4.7621804279
N       -0.4689166273   -1.7695052110    2.9013291037
O        3.5803914233    0.6956209346    0.9803753300
O        1.7335179263    1.7569929701    0.2287942160
F        1.2177289781   -1.4797620387    5.7846097588
F       -0.0994240036   -3.0698473936    5.1072140682
F        2.0245153111   -3.1721586473    4.6581983451
Cl       3.2340767623   -0.5088015262    3.6884776240
H       -0.1477603861    0.2435537745    0.2209727732
H       -1.7528928769   -1.3133611531    1.3512352179
H        2.4316911551    2.2551085456   -0.2390443192
