21   
torsion grid (-165,)
C        2.0079769219   -1.1691194458   -0.0668867514
C        0.8098408192   -0.6212386177    0.3904891988
C        3.0042620738   -1.5760257368    0.8264576224
C        1.5674475399   -0.8814477117    2.6764624623
C        0.5746082157   -0.4684710151    1.7699819675
C        2.7534857913   -1.4166231062    2.1861648794
C        5.6383065463   -1.7441238709    4.4473269008
C        4.5864753668   -0.9676207700    3.6263247930
N       -0.6511788487    0.0228611907    2.2391881376
O        3.7221851293   -1.8815047896    3.1058397974
F        6.3636155132   -0.8715585653    5.1996104917
F        6.4873123067   -2.3800873474    3.5943956803
F        3.9551344819   -0.0742717297    4.4549159634
F        5.1961910880   -0.2197209231    2.6667432573
H        2.1701245232   -1.2781251016   -1.1357516197
H        0.0460231758   -0.3147752128   -0.3206396820
H        3.9443767204   -1.9997081319    0.4904984825
H        1.4186563967   -0.7913875388    3.7483114148
H        5.1613231918   -2.4778838055    5.1014712350
H       -1.1429754519    0.6159801381    1.5807636463
H       -0.6093658529    0.4509889626    3.1569237714
21   
torsion grid (-150,)
C        1.9938485569   -1.2015047486   -0.0585061831
C        0.8048635013   -0.6333101613    0.3977732073
C        2.9924802734   -1.6044002894    0.8341322381
C        1.5775277889   -0.8648866251    2.6824859573
C        0.5826709649   -0.4556844551    1.7764784287
C        2.7543784883   -1.4207716901    2.1931129687
C        5.6448000977   -1.7543457878    4.4522264774
C        4.5980229564   -0.9665906464    3.6205958858
N       -0.6336994943    0.0569258568    2.2469286323
O        3.7243513725   -1.8819965553    3.1134663438
F        6.1642157689   -0.9541577337    5.4232782233
F        6.6633770066   -2.1406513195    3.6367674435
F        3.9779516122   -0.0456471083    4.4220532468
F        5.2153872724   -0.2455075015    2.6441710426
H        2.1470599506   -1.3297870391   -1.1265439730
H        0.0389978860   -0.3302353430   -0.3126309711
H        3.9255721120   -2.0427674303    0.4974274167
H        1.4372624427   -0.7556869936    3.7536866093
H        5.1917060453   -2.6348865817    4.9130088333
H       -1.1245276688    0.6442632821    1.5826456168
H       -0.5800999816    0.4993580748    3.1572261512
21   
torsion grid (-135,)
C        1.9565142139   -1.2113146357   -0.0655940017
C        0.7729580360   -0.6405416610    0.4014015993
C        2.9626483351   -1.6147124410    0.8183748205
C        1.5671589848   -0.8672490443    2.6786039088
C        0.5637067245   -0.4593592974    1.7817239627
C        2.7378935441   -1.4268861366    2.1792610246
C        5.6339831738   -1.7718146120    4.4414588994
C        4.6318389781   -0.9814847796    3.5426884149
N       -0.6474393336    0.0561328138    2.2623352414
O        3.7116675221   -1.8860131706    3.0966911338
F        5.9355633925   -1.0516812738    5.5563344927
F        6.7885813314   -1.9889065417    3.7563128723
F        4.0541275541    0.0288943868    4.2587721899
F        5.2882473394   -0.3721079739    2.5160835019
H        2.0991566930   -1.3422228870   -1.1347832616
H        0.0008021248   -0.3378581455   -0.3023080671
H        3.8910481970   -2.0559841176    0.4728244871
H        1.4393629396   -0.7539209901    3.7510632201
H        5.2042399932   -2.7303568158    4.7390179137
H       -1.1428068633    0.6440821724    1.6019763240
H       -0.5851523675    0.4988938271    3.1719200669
21   
torsion grid (-120,)
C        1.9337103137   -1.2186466330   -0.0600216327
C        0.7571863472   -0.6421499947    0.4174984881
C        2.9488692997   -1.6203024099    0.8144383035
C        1.5778162902   -0.8583918190    2.6867417831
C        0.5650558718   -0.4532223084    1.7992997306
C        2.7410471711   -1.4241953106    2.1770624773
C        5.6298852223   -1.7599741448    4.4535107189
C        4.6715520767   -0.9826238578    3.4905513421
N       -0.6389280062    0.0682649814    2.2912274401
O        3.7222880497   -1.8800953909    3.0877672960
F        5.6659921533   -1.1543912384    5.6710036054
F        6.8915059684   -1.7750922196    3.9459638354
F        4.1172914053    0.0884646452    4.1297888694
F        5.3628133603   -0.4686165691    2.4355852121
H        2.0634240799   -1.3561146142   -1.1300408520
H       -0.0224173740   -0.3411703235   -0.2787043416
H        3.8713035538   -2.0667659485    0.4598099283
H        1.4637573056   -0.7381269592    3.7600517017
H        5.2822999166   -2.7873489283    4.5772563087
H       -1.1398909184    0.6547878866    1.6338238757
H       -0.5647943134    0.5150448507    3.1979624579
21   
torsion grid (-105,)
C        1.9313196382   -1.1827228869   -0.0627897958
C        0.7527422742   -0.6172127256    0.4225383743
C        2.9476525022   -1.5953110353    0.8055289348
C        1.5738485641   -0.8614182866    2.6868748638
C        0.5583427159   -0.4481799346    1.8066889356
C        2.7386062163   -1.4179359978    2.1707778128
C        5.5897270168   -1.7575563345    4.4848264203
C        4.7317174206   -1.0245458379    3.4045598631
N       -0.6476417459    0.0624200247    2.3052039512
O        3.7120155725   -1.8792309776    3.0866277116
F        5.3715120225   -1.2005732381    5.7061046844
F        6.9134850933   -1.6572388713    4.1892861173
F        4.2586141734    0.1595399922    3.8862155829
F        5.4936775570   -0.7169564922    2.3174389192
H        2.0612636216   -1.3053316574   -1.1346008017
H       -0.0275489846   -0.3094224530   -0.2698682250
H        3.8691276092   -2.0369971002    0.4431527397
H        1.4630619074   -0.7541368191    3.7621276969
H        5.3155654255   -2.8136548649    4.5222426739
H       -1.1483040784    0.6597290398    1.6573467253
H       -0.5763508046    0.4929357282    3.2200034219
21   
torsion grid (-90,)
C        1.9079066844   -1.1943352767   -0.0576709571
C        0.7380045082   -0.6161664915    0.4335935264
C        2.9284918122   -1.6085028434    0.8050472693
C        1.5774325334   -0.8502342618    2.6927389704
C        0.5574740474   -0.4359194524    1.8182871437
C        2.7331796394   -1.4195819934    2.1708386846
C        5.5673497423   -1.7366837389    4.4947497674
C        4.7445743974   -1.0364732991    3.3781202803
N       -0.6399856745    0.0874474187    2.3236958760
O        3.7106693482   -1.8808180843    3.0820490438
F        5.1028730750   -1.3487039597    5.7124236961
F        6.8825626856   -1.4025732990    4.3954621113
F        4.2948065122    0.1778514314    3.8025568628
F        5.5349880633   -0.8003704123    2.2920530438
H        2.0274383810   -1.3259788955   -1.1296360093
H       -0.0460886043   -0.3074883798   -0.2541200461
H        3.8431237898   -2.0603289872    0.4378267670
H        1.4773937002   -0.7344923232    3.7681772680
H        5.4714430171   -2.8209712526    4.4053956707
H       -1.1419251227    0.6842210237    1.6763733287
H       -0.5576681274    0.5227759220    3.2352709097
21   
torsion grid (-75,)
C        1.9151015807   -1.2103851803   -0.0581178551
C        0.7546182834   -0.6182134462    0.4385791146
C        2.9354537276   -1.6365895597    0.7991184535
C        1.6033848620   -0.8593649169    2.6936335034
C        0.5833868052   -0.4348685246    1.8241059382
C        2.7489156673   -1.4431883294    2.1655393469
C        5.5962510109   -1.7767081025    4.4661668010
C        4.7908085088   -1.1034937553    3.3316129087
N       -0.6055526258    0.1022579306    2.3348194023
O        3.7228015184   -1.9131587341    3.0763857447
F        4.9685064945   -1.5571015210    5.6534262077
F        6.8482873513   -1.2472074681    4.5249424127
F        4.4042875207    0.1493481726    3.7010513560
F        5.5941209831   -0.9558379493    2.2350606356
H        2.0272942328   -1.3444657379   -1.1305730491
H       -0.0294728551   -0.3011932424   -0.2453421017
H        3.8419024199   -2.1004772468    0.4269352158
H        1.5117282260   -0.7415507976    3.7696602844
H        5.6717882282   -2.8529690626    4.2936621625
H       -1.1034935556    0.7051490655    1.6900972450
H       -0.5149036403    0.5352405436    3.2466997726
21   
torsion grid (-60,)
C        1.9049845164   -1.2398609632   -0.0516018807
C        0.7531286213   -0.6253338079    0.4379507670
C        2.9206319543   -1.6672147803    0.8106585077
C        1.6012065230   -0.8457940026    2.6952615564
C        0.5858111327   -0.4201577521    1.8209035665
C        2.7382338478   -1.4518804068    2.1742168517
C        5.6071525258   -1.7854996636    4.4566179083
C        4.7806728530   -1.1227485317    3.3365055414
N       -0.5953395161    0.1394428259    2.3250097383
O        3.7068358617   -1.9215512967    3.0914322951
F        4.8710773579   -1.8185889339    5.6013332190
F        6.7292063472   -1.0500648347    4.6845676542
F        4.4200392481    0.1399038710    3.6981186163
F        5.5844396758   -0.9903678547    2.2329172080
H        2.0141505794   -1.3905221701   -1.1221642938
H       -0.0275372700   -0.3077141146   -0.2495776001
H        3.8206250735   -2.1479717156    0.4443102264
H        1.5122665248   -0.7126157881    3.7696936882
H        5.8915576603   -2.8036322736    4.1795258192
H       -1.0872950655    0.7390429802    1.6726780783
H       -0.4992303707    0.5826117360    3.2313888602
21   
torsion grid (-45,)
C        1.8837197042   -1.3030479196   -0.0210471174
C        0.7507004465   -0.6437823080    0.4542038229
C        2.8964007045   -1.7190845879    0.8499543893
C        1.6110991517   -0.7984339729    2.7123327383
C        0.5991968600   -0.3819819268    1.8293823825
C        2.7301081374   -1.4486880481    2.2055329226
C        5.6574740000   -1.7829704061    4.4325102987
C        4.7495157373   -1.0922480701    3.3919899077
N       -0.5648823497    0.2234671576    2.3204526679
O        3.6990668653   -1.9099573697    3.1271284818
F        4.9113856361   -2.1957997239    5.4944541171
F        6.5775548012   -0.8882967325    4.8839457823
F        4.3655707388    0.1379546624    3.8340771600
F        5.5170195020   -0.8618131346    2.2735398834
H        1.9805106128   -1.4965984593   -1.0858987997
H       -0.0283175016   -0.3346171747   -0.2390141831
H        3.7835461880   -2.2324414926    0.4963989013
H        1.5318594332   -0.6248775864    3.7816321622
H        6.1685448481   -2.6429112552    3.9928427659
H       -1.0480447464    0.8086755888    1.6487863890
H       -0.4503486403    0.7000305222    3.2075527906
21   
torsion grid (-30,)
C        1.8685363216   -1.3316214875   -0.0043470509
C        0.7448873467   -0.6516075389    0.4639204908
C        2.8815090001   -1.7435350067    0.8682992562
C        1.6162489942   -0.7760781589    2.7200232251
C        0.6041358503   -0.3644045325    1.8351090865
C        2.7257346861   -1.4472424144    2.2196731500
C        5.6850890606   -1.7760996284    4.4273512119
C        4.7524682687   -1.0953820980    3.3902813710
N       -0.5507490998    0.2617872364    2.3218759783
O        3.6932540206   -1.9039115135    3.1454057085
F        4.9498588882   -2.4511731891    5.3532198948
F        6.4020850048   -0.8215104860    5.0792183712
F        4.3879408925    0.1483114492    3.8092015579
F        5.5127073566   -0.8861341217    2.2574738734
H        1.9576196237   -1.5452140451   -1.0660264213
H       -0.0344481160   -0.3463936451   -0.2307207487
H        3.7608362241   -2.2730602333    0.5191820493
H        1.5438681839   -0.5831075906    3.7864673281
H        6.3669990331   -2.4713681998    3.9323558714
H       -1.0315404094    0.8402338458    1.6426996451
H       -0.4261167972    0.7526078196    3.1997903647
21   
torsion grid (-15,)
C        1.8523178631   -1.4033017992   -0.0018294570
C        0.7459268957   -0.6875217757    0.4542071613
C        2.8623303921   -1.8109780287    0.8759532188
C        1.6285380074   -0.7693375292    2.7091264732
C        0.6207513091   -0.3605604751    1.8178835359
C        2.7212561146   -1.4754482633    2.2196487774
C        5.7123642711   -1.7956534756    4.4071769736
C        4.7300883223   -1.1042186632    3.4095752326
N       -0.5176190889    0.3031822805    2.2939769139
O        3.6896609645   -1.9299074279    3.1452171814
F        5.0822462876   -2.7841319285    5.0964553671
F        6.1655272463   -0.8823738727    5.3079701367
F        4.3323086313    0.1098668823    3.8848261120
F        5.4599080156   -0.8203441217    2.2730685614
H        1.9302174627   -1.6477126409   -1.0577134688
H       -0.0315123015   -0.3850149230   -0.2437604160
H        3.7291281011   -2.3674400922    0.5371824871
H        1.5651367939   -0.5463744707    3.7701852380
H        6.5608688370   -2.2217319055    3.8673710095
H       -0.9903290161    0.8724597252    1.6014825793
H       -0.3761010638    0.8165112199    3.1563484734
21   
torsion grid (0,)
C        1.8311118156   -1.4161209377    0.0139377110
C        0.7327704775   -0.6855055288    0.4659648193
C        2.8444308241   -1.8168907229    0.8911334144
C        1.6307923104   -0.7366822023    2.7148383264
C        0.6189182997   -0.3354753848    1.8248678458
C        2.7154023243   -1.4584579651    2.2302080603
C        5.7107100475   -1.7480141809    4.4306466283
C        4.7440249632   -1.0912553130    3.3867949444
N       -0.5116367396    0.3436170928    2.2982385893
O        3.6859810605   -1.9044408919    3.1573093656
F        5.1873394064   -2.9034092312    4.9163590774
F        5.9099315433   -0.8997893019    5.4758345159
F        4.3637669219    0.1494916968    3.8052566127
F        5.4814127744   -0.8756630445    2.2403943355
H        1.8997099353   -1.6783725865   -1.0383183778
H       -0.0475443680   -0.3892382641   -0.2314647687
H        3.7044735620   -2.3855879155    0.5556368176
H        1.5766891516   -0.4955197163    3.7724396887
H        6.6732134490   -1.9642913497    3.9618706013
H       -0.9854417321    0.9050033304    1.6000913908
H       -0.3605991971    0.8695748247    3.1513236767
21   
torsion grid (15,)
C        1.8307495453   -1.4591229284    0.0274461923
C        0.7420609017   -0.7109810543    0.4742083157
C        2.8382343007   -1.8676553192    0.9077889862
C        1.6386280160   -0.7585917836    2.7230169100
C        0.6319433075   -0.3500664012    1.8305565522
C        2.7138188553   -1.4984173486    2.2444876479
C        5.6947317322   -1.8000146042    4.4608063053
C        4.7594918063   -1.1609591924    3.3812900394
N       -0.4897930165    0.3473028397    2.2987537515
O        3.6768917088   -1.9495247463    3.1761901019
F        5.3238734395   -3.0780846070    4.7253629898
F        5.6364970663   -1.0812460410    5.6156260221
F        4.4063398087    0.1005224087    3.7632140985
F        5.5058174486   -1.0055815673    2.2341748450
H        1.8959616560   -1.7297929544   -1.0229059996
H       -0.0340783732   -0.4093781811   -0.2255798399
H        3.6898135629   -2.4514261989    0.5767286745
H        1.5882697091   -0.5089850942    3.7788918423
H        6.7268374296   -1.7984245745    4.1023161246
H       -0.9550039970    0.9110005512    1.5966862597
H       -0.3321263579    0.8764915909    3.1486403789
21   
torsion grid (30,)
C        1.8254721909   -1.4838021071    0.0526605502
C        0.7423856893   -0.7222875306    0.4903845868
C        2.8342489727   -1.8825011782    0.9360642907
C        1.6474472623   -0.7354850963    2.7366303016
C        0.6395539052   -0.3375721128    1.8407676253
C        2.7166368886   -1.4892954223    2.2665630556
C        5.6897019999   -1.7543678499    4.4836829183
C        4.7747628088   -1.1476221313    3.3812449334
N       -0.4767721508    0.3737744205    2.3008515288
O        3.6811606179   -1.9277217141    3.2024466085
F        5.5294975271   -3.1001339192    4.5474020251
F        5.3836630986   -1.2121841534    5.6948989211
F        4.4370174455    0.1284234553    3.7338142124
F        5.5245472222   -1.0365595787    2.2339078844
H        1.8850877325   -1.7731388088   -0.9930395719
H       -0.0349121297   -0.4287476973   -0.2115655232
H        3.6810918752   -2.4771989541    0.6123739503
H        1.6029920686   -0.4672881314    3.7882491766
H        6.7361902057   -1.5323177743    4.2593653412
H       -0.9411929571    0.9281790026    1.5909033360
H       -0.3132789555    0.9162794982    3.1411814225
21   
torsion grid (45,)
C        1.7986925897   -1.5074664539    0.0608963630
C        0.7290449311   -0.7256581372    0.4959118152
C        2.8102041914   -1.9041820283    0.9420422920
C        1.6530046841   -0.7127007427    2.7348690449
C        0.6425989634   -0.3176509841    1.8406440740
C        2.7078923726   -1.4874458821    2.2666037257
C        5.6811447023   -1.7442927044    4.4682378137
C        4.7820711559   -1.1573779821    3.3558604149
N       -0.4611372179    0.4145352274    2.2982239930
O        3.6749930268   -1.9218384533    3.2015625128
F        5.7444564175   -3.0959315641    4.3540656450
F        5.1712186513   -1.4218784198    5.6893970751
F        4.4729701027    0.1340523454    3.6882459188
F        5.5306791986   -1.0835471597    2.2066395779
H        1.8454074327   -1.8144317741   -0.9804199056
H       -0.0508761874   -0.4340814452   -0.2039475668
H        3.6470038723   -2.5146976528    0.6215922837
H        1.6213493273   -0.4275022840    3.7825251329
H        6.6907455285   -1.3320552553    4.3900095115
H       -0.9252712567    0.9625355683    1.5831495712
H       -0.2841194852    0.9686853016    3.1281375106
21   
torsion grid (60,)
C        1.7902558826   -1.5400440139    0.0843221008
C        0.7274343957   -0.7404321120    0.5034058717
C        2.7991490681   -1.9271888644    0.9727874215
C        1.6549410985   -0.6897098947    2.7410852161
C        0.6467517652   -0.3048091173    1.8398219030
C        2.7028443408   -1.4829431451    2.2887031825
C        5.6864583970   -1.7350915777    4.4714214940
C        4.7833823796   -1.1552416894    3.3660545482
N       -0.4505042476    0.4451845771    2.2838081181
O        3.6667265893   -1.9062896931    3.2324846755
F        5.9806010689   -3.0328658255    4.1908411739
F        5.0369965822   -1.6788856769    5.6666769462
F        4.5027035418    0.1473725009    3.6930685009
F        5.5207805348   -1.0966784122    2.2097697346
H        1.8336350969   -1.8687171092   -0.9504832402
H       -0.0508347590   -0.4566870692   -0.2015187478
H        3.6303712473   -2.5511576263    0.6640967694
H        1.6263647360   -0.3834298071    3.7828560236
H        6.6154745328   -1.1630722063    4.5418189773
H       -0.9114212723    0.9821450701    1.5583525253
H       -0.2681330548    1.0145265956    3.1021852384
21   
torsion grid (75,)
C        1.7657672312   -1.6098035042    0.1183169818
C        0.7220552197   -0.7717878185    0.5098606502
C        2.7687469293   -1.9849483824    1.0183046627
C        1.6556431322   -0.6587067000    2.7418320069
C        0.6537857786   -0.2845071707    1.8289226269
C        2.6851253922   -1.4903832862    2.3167813187
C        5.7056003359   -1.7546886574    4.4531680899
C        4.7487291745   -1.1354383933    3.4140650071
N       -0.4258092596    0.5051904450    2.2470935809
O        3.6460130205   -1.9025519291    3.2690830112
F        6.2620098257   -2.8865909372    3.9390058130
F        5.0122221809   -2.0892015416    5.5746237035
F        4.4546065170    0.1428841580    3.8314404000
F        5.4420535749   -0.9796990462    2.2425183370
H        1.7993788394   -1.9768220486   -0.9038751944
H       -0.0515150682   -0.4973185351   -0.2038155289
H        3.5872319125   -2.6359225497    0.7317651695
H        1.6349295195   -0.3145158374    3.7717423576
H        6.4989717234   -1.0490211398    4.7123480650
H       -0.8778109012    1.0236770557    1.5028246841
H       -0.2280505512    1.1017755018    3.0421663047
21   
torsion grid (90,)
C        1.7090000814   -1.6820861791    0.1431023420
C        0.6894544079   -0.8066412005    0.5161114096
C        2.7037753640   -2.0621750384    1.0499286867
C        1.6304980826   -0.6646153142    2.7427745935
C        0.6370656629   -0.2852674018    1.8227288036
C        2.6360538363   -1.5338930548    2.3359149269
C        5.6710424330   -1.8410308446    4.4612973785
C        4.7011944268   -1.1989803031    3.4357519021
N       -0.4199500901    0.5432915077    2.2234262684
O        3.5882206497   -1.9515911836    3.2948012019
F        6.4486630905   -2.7674743270    3.8337128659
F        4.9665483346   -2.4769328490    5.4340885821
F        4.4260466602    0.0794565787    3.8754800072
F        5.3717197135   -1.0252714303    2.2564343177
H        1.7302801401   -2.0743209884   -0.8700058763
H       -0.0779610090   -0.5287410352   -0.2028401394
H        3.5045209474   -2.7409014912    0.7778596512
H        1.6205851495   -0.2953258701    3.7640423844
H        6.3127941143   -1.0799652288    4.9116512271
H       -0.8604853470    1.0542425452    1.4671514416
H       -0.2035059908    1.1550274209    3.0019544395
21   
torsion grid (105,)
C        1.6746959097   -1.7070512144    0.1577822483
C        0.6704557189   -0.8116130385    0.5246966362
C        2.6708546723   -2.0875411106    1.0628559571
C        1.6314811325   -0.6499475817    2.7424727230
C        0.6366345714   -0.2706896276    1.8239023444
C        2.6217375369   -1.5393800082    2.3414661980
C        5.6711592563   -1.8549606611    4.4615140713
C        4.7031241560   -1.2200154795    3.4137503362
N       -0.4052228055    0.5790219273    2.2201912758
O        3.5751180543   -1.9566540720    3.2992043008
F        6.6590282036   -2.5408572564    3.8217154541
F        5.0029217813   -2.7310513648    5.2555897865
F        4.4448044862    0.0712626501    3.8309704383
F        5.3556549938   -1.0771024369    2.2237715714
H        1.6827975382   -2.1147937474   -0.8493691246
H       -0.0984776930   -0.5332673868   -0.1924870459
H        3.4595409705   -2.7816488805    0.7944635123
H        1.6344650240   -0.2645457484    3.7578345829
H        6.1228670476   -1.0768128083    5.0809198095
H       -0.8446200279    1.0841616331    1.4593407478
H       -0.1730739170    1.2002897850    2.9865614849
21   
torsion grid (120,)
C        1.6575382021   -1.7314420599    0.1760276963
C        0.6671677997   -0.8172141272    0.5341656825
C        2.6571714935   -2.1055499095    1.0798472550
C        1.6493235737   -0.6233668012    2.7400291176
C        0.6510952404   -0.2503435843    1.8225758335
C        2.6257609263   -1.5319883575    2.3479304258
C        5.6714276455   -1.8358419421    4.4785151458
C        4.7158675436   -1.2109937666    3.4049958415
N       -0.3771679072    0.6195126176    2.2108542850
O        3.5829698251   -1.9448608472    3.3035094203
F        6.8389116475   -2.2197917528    3.8941816058
F        5.1046439264   -2.9277109336    5.0530669236
F        4.4522631720    0.0841493201    3.8087930159
F        5.3620486326   -1.0877915931    2.2123269323
H        1.6518990114   -2.1590025223   -0.8228903303
H       -0.1048392736   -0.5438975210   -0.1816390960
H        3.4353548806   -2.8141234305    0.8186076421
H        1.6650684052   -0.2177422290    3.7473148300
H        5.8911444281   -1.0997290886    5.2550219385
H       -0.8177032811    1.1139989362    1.4436830350
H       -0.1303499222    1.2539355485    2.9617067862
21   
torsion grid (135,)
C        1.6278261642   -1.7460606675    0.1906593021
C        0.6502865524   -0.8174823577    0.5471865418
C        2.6313169786   -2.1202023061    1.0902237395
C        1.6543300058   -0.6085374602    2.7405814707
C        0.6510612311   -0.2352560342    1.8287931798
C        2.6183011256   -1.5319271736    2.3520262087
C        5.6555035070   -1.8394126417    4.4799737073
C        4.7323724088   -1.2341636186    3.3713003894
N       -0.3646209441    0.6497723225    2.2162899490
O        3.5784177257   -1.9430984792    3.3051233522
F        6.9277800559   -1.9491521842    4.0128177091
F        5.2224705445   -3.0697098971    4.8584598001
F        4.4946593826    0.0795090456    3.7250424888
F        5.3782779171   -1.1822590980    2.1754007934
H        1.6086387629   -2.1852428462   -0.8030526903
H       -0.1252219597   -0.5445305341   -0.1649347388
H        3.3988512471   -2.8407489385    0.8304316751
H        1.6837379685   -0.1907754417    3.7426018210
H        5.6568812950   -1.1851304376    5.3548838352
H       -0.8073567223    1.1395001338    1.4473236514
H       -0.1039431350    1.2908686982    2.9567249501
21   
torsion grid (150,)
C        2.0725273400   -0.9944338691   -0.0851921782
C        0.8379529460   -0.5546046360    0.3914932983
C        3.0757831510   -1.4212467439    0.7908676899
C        1.5742389959   -0.9643338661    2.6624402254
C        0.5731765645   -0.5335019466    1.7738636352
C        2.7963269421   -1.3903895519    2.1544798052
C        5.6059936786   -1.7276860903    4.5486760708
C        4.6495648656   -0.9856543909    3.5715754366
N       -0.6863871205   -0.1531826061    2.2573171013
O        3.7660541163   -1.8806120564    3.0590628151
F        6.8152692304   -1.1069017654    4.5631256266
F        5.7765396081   -3.0223149257    4.1724009724
F        4.0039424513   -0.0140497418    4.3076403201
F        5.3456099422   -0.3288997473    2.6059874003
H        2.2570423686   -1.0049971524   -1.1559494260
H        0.0688761472   -0.2323904848   -0.3069219554
H        4.0409058364   -1.7671776010    0.4377860808
H        1.4053106482   -0.9727758220    3.7352655178
H        5.1867667185   -1.7105978432    5.5577720415
H       -1.1999454670    0.4665899739    1.6414261035
H       -0.6836650667    0.1963809099    3.2086387782
21   
torsion grid (165,)
C        2.0630033198   -1.0341931852   -0.0770842511
C        0.8372218338   -0.5664034898    0.3957435429
C        3.0649607847   -1.4547853766    0.8034745834
C        1.5790649658   -0.9344493774    2.6713006504
C        0.5792623367   -0.5095571530    1.7783963495
C        2.7925019354   -1.3891800585    2.1671702303
C        5.6135334337   -1.7234494115    4.5274571511
C        4.6493912576   -0.9724291759    3.5796463354
N       -0.6723127783   -0.1003630997    2.2590249405
O        3.7614078621   -1.8709530612    3.0772088613
F        6.6976080562   -0.9423443465    4.7795912246
F        6.0275821794   -2.8869144504    3.9577883421
F        4.0146309730   -0.0078706416    4.3302078285
F        5.3345884187   -0.3134216111    2.6080907025
H        2.2416391859   -1.0715127797   -1.1482384124
H        0.0692029242   -0.2494264255   -0.3062059067
H        4.0236766654   -1.8218448657    0.4541757091
H        1.4157723890   -0.9157711243    3.7448522462
H        5.1098383954   -1.9517158289    5.4702854068
H       -1.1803459171    0.5121652725    1.6314033537
H       -0.6597072322    0.2712664347    3.2018831770
21   
torsion grid (180,)
C        2.0378521343   -1.1193243411   -0.0748318054
C        0.8294012765   -0.6011843842    0.3900267031
C        3.0342502173   -1.5374780200    0.8131154213
C        1.5776584104   -0.9145933251    2.6729831230
C        0.5845374970   -0.4908281722    1.7718486709
C        2.7738767269   -1.4195176471    2.1753940736
C        5.6293254394   -1.7644204775    4.4770918884
C        4.6094119072   -0.9925251493    3.6160921759
N       -0.6510150840   -0.0301617318    2.2468374012
O        3.7420026986   -1.8976070676    3.0884868842
F        6.5354527315   -0.8901488790    4.9925439679
F        6.2874669921   -2.6700139857    3.7033591992
F        3.9686828110   -0.0912686921    4.4333656604
F        5.2453203346   -0.2589059391    2.6639650275
H        2.2076517109   -1.1967381740   -1.1452641249
H        0.0652868657   -0.2857924786   -0.3168927338
H        3.9812803149   -1.9404112986    0.4712374097
H        1.4215671421   -0.8562599159    3.7460500757
H        5.1263511352   -2.2874150671    5.2944543639
H       -1.1471551813    0.5739809413    1.6018202876
H       -0.6204332531    0.3734505653    3.1760493633
