
  -OEChem-05262117483D

 49 51  0     1  0  0  0  0  0999 V2000
   -5.4415   -1.8525   -2.6331 C   0  0  0  0  0  0  0  0  0  0  0  0
   -5.4949   -0.8441   -1.6606 C   0  0  0  0  0  0  0  0  0  0  0  0
   -3.7951   -1.9633   -0.3580 C   0  0  0  0  0  0  0  0  0  0  0  0
    0.2217   -6.7631   -0.3898 C   0  0  0  0  0  0  0  0  0  0  0  0
    0.3348   -7.3705    0.8788 C   0  0  0  0  0  0  0  0  0  0  0  0
   -4.5644   -2.9203   -2.4582 C   0  0  0  0  0  0  0  0  0  0  0  0
   -3.7486   -2.9663   -1.3220 C   0  0  0  0  0  0  0  0  0  0  0  0
   -4.6821   -0.8839   -0.5164 C   0  0  0  0  0  0  0  0  0  0  0  0
   -0.7070   -7.0654    1.7903 C   0  0  0  0  0  0  0  0  0  0  0  0
   -1.6526   -5.6583    0.2277 C   0  0  0  0  0  0  0  0  0  0  0  0
    1.5214   -8.2585    1.0682 C   0  0  0  0  0  0  0  0  0  0  0  0
   -4.2977   -4.1188   -3.3443 C   0  0  0  0  0  0  0  0  0  0  0  0
   -2.8682   -4.1975   -1.3681 C   0  0  2  0  0  0  0  0  0  0  0  0
   -3.6000   -5.1279   -2.3920 C   0  0  1  0  0  0  0  0  0  0  0  0
   -4.7768    0.1954    0.5386 C   0  0  0  0  0  0  0  0  0  0  0  0
   -4.6184   -6.0514   -1.7161 C   0  0  0  0  0  0  0  0  0  0  0  0
   -0.5241   -6.6300    4.2743 C   0  0  0  0  0  0  0  0  0  0  0  0
    3.6190   -8.7841    2.4027 C   0  0  0  0  0  0  0  0  0  0  0  0
   -0.8710   -7.6506    3.1757 C   0  0  0  0  0  0  0  0  0  0  0  0
    2.1135   -8.5062    2.4542 C   0  0  0  0  0  0  0  0  0  0  0  0
   -0.7385   -5.9167   -0.7374 N   0  0  0  0  0  0  0  0  0  0  0  0
   -1.6863   -6.2190    1.4538 N   0  0  0  0  0  0  0  0  0  0  0  0
   -2.6305   -4.7564   -0.0480 N   0  0  0  0  0  0  0  0  0  0  0  0
    2.0680   -8.7492    0.0821 O   0  0  0  0  0  0  0  0  0  0  0  0
   -6.0847   -1.7981   -3.5090 H   0  0  0  0  0  0  0  0  0  0  0  0
   -6.1836   -0.0120   -1.7919 H   0  0  0  0  0  0  0  0  0  0  0  0
   -3.1464   -2.0107    0.5151 H   0  0  0  0  0  0  0  0  0  0  0  0
    0.9725   -6.9908   -1.1431 H   0  0  0  0  0  0  0  0  0  0  0  0
   -5.2063   -4.5297   -3.7971 H   0  0  0  0  0  0  0  0  0  0  0  0
   -3.6272   -3.8373   -4.1670 H   0  0  0  0  0  0  0  0  0  0  0  0
   -1.8879   -3.9377   -1.7807 H   0  0  0  0  0  0  0  0  0  0  0  0
   -2.8643   -5.7377   -2.9230 H   0  0  0  0  0  0  0  0  0  0  0  0
   -5.4524   -0.1040    1.3492 H   0  0  0  0  0  0  0  0  0  0  0  0
   -3.8003    0.4015    0.9880 H   0  0  0  0  0  0  0  0  0  0  0  0
   -5.1605    1.1307    0.1207 H   0  0  0  0  0  0  0  0  0  0  0  0
   -5.3795   -5.4784   -1.1731 H   0  0  0  0  0  0  0  0  0  0  0  0
   -4.1367   -6.7328   -1.0085 H   0  0  0  0  0  0  0  0  0  0  0  0
   -5.1331   -6.6602   -2.4665 H   0  0  0  0  0  0  0  0  0  0  0  0
    0.5219   -6.3125    4.2149 H   0  0  0  0  0  0  0  0  0  0  0  0
   -0.6903   -7.0630    5.2658 H   0  0  0  0  0  0  0  0  0  0  0  0
   -1.1526   -5.7411    4.1738 H   0  0  0  0  0  0  0  0  0  0  0  0
    3.8354   -9.6366    1.7560 H   0  0  0  0  0  0  0  0  0  0  0  0
    4.1631   -7.9211    2.0064 H   0  0  0  0  0  0  0  0  0  0  0  0
    3.9986   -8.9970    3.4070 H   0  0  0  0  0  0  0  0  0  0  0  0
   -1.9251   -7.9277    3.2752 H   0  0  0  0  0  0  0  0  0  0  0  0
   -0.2849   -8.5603    3.2981 H   0  0  0  0  0  0  0  0  0  0  0  0
    1.8960   -7.6627    3.1143 H   0  0  0  0  0  0  0  0  0  0  0  0
    1.5992   -9.3761    2.8832 H   0  0  0  0  0  0  0  0  0  0  0  0
   -3.3699   -4.7023    0.6417 H   0  0  0  0  0  0  0  0  0  0  0  0
  1  2  1  0  0  0  0
  1  6  2  0  0  0  0
  1 25  1  0  0  0  0
  2  8  2  0  0  0  0
  2 26  1  0  0  0  0
  3  7  2  0  0  0  0
  3  8  1  0  0  0  0
  3 27  1  0  0  0  0
  4  5  1  0  0  0  0
  4 21  2  0  0  0  0
  4 28  1  0  0  0  0
  5  9  2  0  0  0  0
  5 11  1  0  0  0  0
  6  7  1  0  0  0  0
  6 12  1  0  0  0  0
  7 13  1  0  0  0  0
  8 15  1  0  0  0  0
  9 19  1  0  0  0  0
  9 22  1  0  0  0  0
 10 21  1  0  0  0  0
 10 22  2  0  0  0  0
 10 23  1  0  0  0  0
 11 20  1  0  0  0  0
 11 24  2  0  0  0  0
 12 14  1  0  0  0  0
 12 29  1  0  0  0  0
 12 30  1  0  0  0  0
 13 14  1  0  0  0  0
 13 23  1  0  0  0  0
 13 31  1  0  0  0  0
 14 16  1  0  0  0  0
 14 32  1  0  0  0  0
 15 33  1  0  0  0  0
 15 34  1  0  0  0  0
 15 35  1  0  0  0  0
 16 36  1  0  0  0  0
 16 37  1  0  0  0  0
 16 38  1  0  0  0  0
 17 19  1  0  0  0  0
 17 39  1  0  0  0  0
 17 40  1  0  0  0  0
 17 41  1  0  0  0  0
 18 20  1  0  0  0  0
 18 42  1  0  0  0  0
 18 43  1  0  0  0  0
 18 44  1  0  0  0  0
 19 45  1  0  0  0  0
 19 46  1  0  0  0  0
 20 47  1  0  0  0  0
 20 48  1  0  0  0  0
 23 49  1  0  0  0  0
M  END
$$$$
