66
0 1 C24H31N5O5S
C                    -1.768611559620    -3.739954681681    -2.125923791749
C                    -5.953258643379    -8.631881631021     0.207914800302
C                    -2.654629002806    -4.696909293059    -1.627542974914
C                    -2.207388802962    -2.670548309627    -2.908818482185
C                    -6.046908780092    -7.486192855895    -0.582880648768
C                    -4.483335386998    -3.528582046980    -2.704869595197
C                    -4.738002951529    -8.980751317013     0.794330522174
C                    -4.030843362635    -4.609307635989    -1.920948375056
C                    -3.576592003967    -2.585933397527    -3.178427365259
C                    -3.621689512464    -8.149056052379     0.521388759316
C                    -4.894636585372    -6.699864694379    -0.751364878155
C                    -3.356930506775   -10.531785009417     2.060012055481
C                    -0.405705921970    -7.598833151826     2.284981300639
C                    -0.408862236486    -7.623947119062    -0.218424704215
C                    -3.275694777464     0.590166662235    -2.288789826067
C                    -5.553258452972    -0.246548795470    -1.956569409816
C                     0.660901891113    -6.501097425969     2.197497470166
C                     0.656701118369    -6.525900311090    -0.165131616585
C                    -3.687314175387     1.858796728626    -1.545122872920
C                    -5.869914973691     1.055788022995    -1.223840544322
C                    -2.185682906299    -9.923465542107     1.290888328810
C                    -1.293984295956    -7.536645023918     1.035960250338
C                    -1.971545431800   -10.730390317850    -0.006619403643
C                    -5.787972178958   -10.657060998784     2.300240268386
N                    -3.713185474588    -7.039140826175    -0.221640953341
N                    -4.598837065818   -10.052341412911     1.705779602967
N                    -2.407724309203    -8.491135616868     1.078893762717
N                    -4.477838765101     0.024533555088    -2.925100905117
N                    -4.994686030344    -5.526336414209    -1.497363968186
O                    -3.186962707911   -11.424204629001     2.887423646470
O                    -3.138036178953    -0.670414893954    -4.948612105225
O                    -5.529385268708    -1.532311058725    -4.611793403602
O                     1.451085584868    -6.616505546258     1.015691598980
O                    -4.712719107824     1.594893873455    -0.590213351540
S                    -4.209258464939    -1.173739130829    -4.088906104385
H                    -0.709584898010    -3.838657899828    -1.901584071676
H                    -6.839260295917    -9.234292866524     0.376653463384
H                    -2.301593400973    -5.518007313083    -1.024520767278
H                    -1.518695731269    -1.941171263170    -3.320483812690
H                    -6.990468746787    -7.208460774547    -1.043223974862
H                    -5.533276594494    -3.433937295241    -2.969753708962
H                     0.103825986928    -8.565218822954     2.361290083196
H                    -1.009774450537    -7.463698040679     3.189258686118
H                    -1.017471872827    -7.520493265423    -1.122324818093
H                     0.096568855953    -8.594398543368    -0.257754032946
H                    -2.548149737218     0.829952922210    -3.066125356444
H                    -2.829619984591    -0.125266654681    -1.581528407602
H                    -5.246872155931    -1.015741579767    -1.231128621581
H                    -6.434222682429    -0.593258485924    -2.499738928494
H                     0.181494268074    -5.508635796353     2.227675028295
H                     1.358823040761    -6.566698053663     3.035764078570
H                     1.350869131569    -6.606865689056    -1.005274634460
H                     0.177199555792    -5.533520957947    -0.211835961099
H                    -2.837875662380     2.259170539311    -0.986310733016
H                    -4.029790553991     2.613202523622    -2.268404231836
H                    -6.284871283728     1.784127982664    -1.935888704038
H                    -6.601245684201     0.873450362867    -0.432477245771
H                    -1.321866743730   -10.047028479008     1.941059358065
H                    -1.774113293368    -6.554138133111     1.028446304371
H                    -2.821079895219   -10.606556410466    -0.685156141177
H                    -1.868767586173   -11.792758336662     0.233326318592
H                    -1.068706678070   -10.403701131685    -0.526134473459
H                    -6.356985315578   -11.221471415527     1.553009169140
H                    -6.429175342568    -9.881269596924     2.729622123815
H                    -5.459166691417   -11.339074737514     3.082435746391
H                    -5.925021101821    -5.343902459703    -1.849295029010
