
  -OEChem-05262117483D

 55 56  0     1  0  0  0  0  0999 V2000
   -0.8474    2.9042   -0.9689 C   0  0  0  0  0  0  0  0  0  0  0  0
    0.2460    3.4458   -0.2676 C   0  0  0  0  0  0  0  0  0  0  0  0
   -1.1015    1.5420   -0.8854 C   0  0  0  0  0  0  0  0  0  0  0  0
    1.0654    2.6393    0.5172 C   0  0  0  0  0  0  0  0  0  0  0  0
   -0.2712    0.7061   -0.1154 C   0  0  0  0  0  0  0  0  0  0  0  0
    0.8026    1.2645    0.5999 C   0  0  0  0  0  0  0  0  0  0  0  0
   -0.4758   -0.7513   -0.0990 C   0  0  0  0  0  0  0  0  0  0  0  0
    0.7109   -1.5812    0.4481 C   0  0  0  0  0  0  0  0  0  0  0  0
    1.2230   -0.8438    1.7342 C   0  0  1  0  0  0  0  0  0  0  0  0
    0.1170   -0.7404    2.7973 C   0  0  0  0  0  0  0  0  0  0  0  0
    4.4330   -1.2865    3.9690 C   0  0  0  0  0  0  0  0  0  0  0  0
    1.5330    0.3638   -3.4447 C   0  0  0  0  0  0  0  0  0  0  0  0
   -0.7434   -6.1552    0.6711 C   0  0  0  0  0  0  0  0  0  0  0  0
    1.7946   -1.5608   -0.6685 C   0  0  0  0  0  0  0  0  0  0  0  0
    0.1850   -3.0139    0.6912 C   0  0  0  0  0  0  0  0  0  0  0  0
    2.5057   -1.4449    2.3313 C   0  0  0  0  0  0  0  0  0  0  0  0
    3.0871   -0.6924    3.5379 C   0  0  0  0  0  0  0  0  0  0  0  0
    1.3117   -2.0905   -2.0262 C   0  0  0  0  0  0  0  0  0  0  0  0
    1.2150   -4.0936    1.0443 C   0  0  0  0  0  0  0  0  0  0  0  0
   -1.4826   -1.2769   -0.5631 O   0  0  0  0  0  0  0  0  0  0  0  0
    3.6403   -1.2041   -3.0058 O   0  0  0  0  0  0  0  0  0  0  0  0
    1.8350   -1.9869   -4.6420 O   0  0  0  0  0  0  0  0  0  0  0  0
    0.8611   -5.3342   -1.2858 O   0  0  0  0  0  0  0  0  0  0  0  0
    1.8726   -6.6481    0.6639 O   0  0  0  0  0  0  0  0  0  0  0  0
    1.6330    0.5147    1.3656 O   0  0  0  0  0  0  0  0  0  0  0  0
    2.2215   -1.3132   -3.3927 S   0  0  0  0  0  0  0  0  0  0  0  0
    0.9155   -5.6547    0.1529 S   0  0  0  0  0  0  0  0  0  0  0  0
   -1.4815    3.5468   -1.5722 H   0  0  0  0  0  0  0  0  0  0  0  0
    0.4541    4.5107   -0.3311 H   0  0  0  0  0  0  0  0  0  0  0  0
   -1.9277    1.0843   -1.4214 H   0  0  0  0  0  0  0  0  0  0  0  0
    1.9043    3.0486    1.0720 H   0  0  0  0  0  0  0  0  0  0  0  0
    0.4057   -0.0148    3.5592 H   0  0  0  0  0  0  0  0  0  0  0  0
   -0.0325   -1.7056    3.2886 H   0  0  0  0  0  0  0  0  0  0  0  0
   -0.8413   -0.4235    2.3785 H   0  0  0  0  0  0  0  0  0  0  0  0
    4.3341   -2.3438    4.2415 H   0  0  0  0  0  0  0  0  0  0  0  0
    4.8380   -0.7560    4.8367 H   0  0  0  0  0  0  0  0  0  0  0  0
    5.1716   -1.2200    3.1625 H   0  0  0  0  0  0  0  0  0  0  0  0
    2.0657    0.8730   -4.2500 H   0  0  0  0  0  0  0  0  0  0  0  0
    0.4680    0.3023   -3.6718 H   0  0  0  0  0  0  0  0  0  0  0  0
    1.7057    0.8752   -2.4973 H   0  0  0  0  0  0  0  0  0  0  0  0
   -0.9476   -7.0905    0.1465 H   0  0  0  0  0  0  0  0  0  0  0  0
   -0.7432   -6.3188    1.7500 H   0  0  0  0  0  0  0  0  0  0  0  0
   -1.4652   -5.3927    0.3768 H   0  0  0  0  0  0  0  0  0  0  0  0
    2.6641   -2.1453   -0.3675 H   0  0  0  0  0  0  0  0  0  0  0  0
    2.1666   -0.5401   -0.7643 H   0  0  0  0  0  0  0  0  0  0  0  0
   -0.3197   -3.2936   -0.2351 H   0  0  0  0  0  0  0  0  0  0  0  0
   -0.6006   -2.9914    1.4497 H   0  0  0  0  0  0  0  0  0  0  0  0
    2.3034   -2.4755    2.6318 H   0  0  0  0  0  0  0  0  0  0  0  0
    3.2715   -1.4831    1.5513 H   0  0  0  0  0  0  0  0  0  0  0  0
    3.2122    0.3639    3.2825 H   0  0  0  0  0  0  0  0  0  0  0  0
    2.3897   -0.7349    4.3817 H   0  0  0  0  0  0  0  0  0  0  0  0
    1.4787   -3.1647   -2.1463 H   0  0  0  0  0  0  0  0  0  0  0  0
    0.2560   -1.8999   -2.2303 H   0  0  0  0  0  0  0  0  0  0  0  0
    2.2338   -3.8574    0.7316 H   0  0  0  0  0  0  0  0  0  0  0  0
    1.2434   -4.3518    2.1050 H   0  0  0  0  0  0  0  0  0  0  0  0
  1  2  1  0  0  0  0
  1  3  2  0  0  0  0
  1 28  1  0  0  0  0
  2  4  2  0  0  0  0
  2 29  1  0  0  0  0
  3  5  1  0  0  0  0
  3 30  1  0  0  0  0
  4  6  1  0  0  0  0
  4 31  1  0  0  0  0
  5  6  2  0  0  0  0
  5  7  1  0  0  0  0
  6 25  1  0  0  0  0
  7  8  1  0  0  0  0
  7 20  2  0  0  0  0
  8  9  1  0  0  0  0
  8 14  1  0  0  0  0
  8 15  1  0  0  0  0
  9 10  1  0  0  0  0
  9 16  1  0  0  0  0
  9 25  1  0  0  0  0
 10 32  1  0  0  0  0
 10 33  1  0  0  0  0
 10 34  1  0  0  0  0
 11 17  1  0  0  0  0
 11 35  1  0  0  0  0
 11 36  1  0  0  0  0
 11 37  1  0  0  0  0
 12 26  1  0  0  0  0
 12 38  1  0  0  0  0
 12 39  1  0  0  0  0
 12 40  1  0  0  0  0
 13 27  1  0  0  0  0
 13 41  1  0  0  0  0
 13 42  1  0  0  0  0
 13 43  1  0  0  0  0
 14 18  1  0  0  0  0
 14 44  1  0  0  0  0
 14 45  1  0  0  0  0
 15 19  1  0  0  0  0
 15 46  1  0  0  0  0
 15 47  1  0  0  0  0
 16 17  1  0  0  0  0
 16 48  1  0  0  0  0
 16 49  1  0  0  0  0
 17 50  1  0  0  0  0
 17 51  1  0  0  0  0
 18 26  1  0  0  0  0
 18 52  1  0  0  0  0
 18 53  1  0  0  0  0
 19 27  1  0  0  0  0
 19 54  1  0  0  0  0
 19 55  1  0  0  0  0
 21 26  2  0  0  0  0
 22 26  2  0  0  0  0
 23 27  2  0  0  0  0
 24 27  2  0  0  0  0
M  END
$$$$
