
  -OEChem-05262117483D

 66 70  0     1  0  0  0  0  0999 V2000
   -1.4357   -4.1886   -1.6083 C   0  0  0  0  0  0  0  0  0  0  0  0
   -6.0346   -8.8977    0.3002 C   0  0  0  0  0  0  0  0  0  0  0  0
   -2.3971   -5.1266   -1.2277 C   0  0  0  0  0  0  0  0  0  0  0  0
   -1.7239   -3.1692   -2.5175 C   0  0  0  0  0  0  0  0  0  0  0  0
   -5.9973   -7.7615   -0.5082 C   0  0  0  0  0  0  0  0  0  0  0  0
   -3.9995   -4.0367   -2.6816 C   0  0  0  0  0  0  0  0  0  0  0  0
   -4.8786   -9.3397    0.9408 C   0  0  0  0  0  0  0  0  0  0  0  0
   -3.7018   -5.0584   -1.7571 C   0  0  0  0  0  0  0  0  0  0  0  0
   -3.0181   -3.1200   -3.0441 C   0  0  0  0  0  0  0  0  0  0  0  0
   -3.6845   -8.6110    0.7047 C   0  0  0  0  0  0  0  0  0  0  0  0
   -4.7759   -7.0794   -0.6389 C   0  0  0  0  0  0  0  0  0  0  0  0
   -3.6915  -10.9810    2.2851 C   0  0  0  0  0  0  0  0  0  0  0  0
   -0.4286   -8.3770    2.5068 C   0  0  0  0  0  0  0  0  0  0  0  0
   -0.4802   -8.3137    0.0048 C   0  0  0  0  0  0  0  0  0  0  0  0
   -3.7193   -3.7662   -6.2007 C   0  0  0  0  0  0  0  0  0  0  0  0
   -1.4950   -2.7685   -5.9676 C   0  0  0  0  0  0  0  0  0  0  0  0
    0.7262   -7.3713    2.4335 C   0  0  0  0  0  0  0  0  0  0  0  0
    0.6807   -7.3181    0.0725 C   0  0  0  0  0  0  0  0  0  0  0  0
   -3.3884   -4.0354   -7.6675 C   0  0  0  0  0  0  0  0  0  0  0  0
   -1.2572   -3.0758   -7.4444 C   0  0  0  0  0  0  0  0  0  0  0  0
   -2.4380  -10.4866    1.5657 C   0  0  1  0  0  0  0  0  0  0  0  0
   -1.3309   -8.1937    1.2807 C   0  0  0  0  0  0  0  0  0  0  0  0
   -2.2237  -11.3399    0.2983 C   0  0  0  0  0  0  0  0  0  0  0  0
   -6.1317  -10.8952    2.4207 C   0  0  0  0  0  0  0  0  0  0  0  0
   -3.6504   -7.5085   -0.0549 N   0  0  0  0  0  0  0  0  0  0  0  0
   -4.8710  -10.4043    1.8707 N   0  0  0  0  0  0  0  0  0  0  0  0
   -2.5266   -9.0458    1.3149 N   0  0  1  0  0  0  0  0  0  0  0  0
   -2.9435   -2.5928   -5.7660 N   0  0  0  0  0  0  0  0  0  0  0  0
   -4.7431   -5.9243   -1.4188 N   0  0  0  0  0  0  0  0  0  0  0  0
   -3.6338  -11.8730    3.1284 O   0  0  0  0  0  0  0  0  0  0  0  0
   -4.8703   -1.7699   -4.3576 O   0  0  0  0  0  0  0  0  0  0  0  0
   -2.5355   -0.7428   -4.0975 O   0  0  0  0  0  0  0  0  0  0  0  0
    1.4839   -7.5162    1.2342 O   0  0  0  0  0  0  0  0  0  0  0  0
   -1.9894   -4.2256   -7.8627 O   0  0  0  0  0  0  0  0  0  0  0  0
   -3.4126   -1.8963   -4.2973 S   0  0  0  0  0  0  0  0  0  0  0  0
   -0.4410   -4.2512   -1.1745 H   0  0  0  0  0  0  0  0  0  0  0  0
   -6.9755   -9.4184    0.4411 H   0  0  0  0  0  0  0  0  0  0  0  0
   -2.1616   -5.9052   -0.5200 H   0  0  0  0  0  0  0  0  0  0  0  0
   -0.9887   -2.4204   -2.7906 H   0  0  0  0  0  0  0  0  0  0  0  0
   -6.8953   -7.4087   -1.0066 H   0  0  0  0  0  0  0  0  0  0  0  0
   -4.9978   -3.9377   -3.1002 H   0  0  0  0  0  0  0  0  0  0  0  0
    0.0007   -9.3840    2.5361 H   0  0  0  0  0  0  0  0  0  0  0  0
   -1.0002   -8.2258    3.4296 H   0  0  0  0  0  0  0  0  0  0  0  0
   -1.0945   -8.1198   -0.8795 H   0  0  0  0  0  0  0  0  0  0  0  0
   -0.0666   -9.3237   -0.0795 H   0  0  0  0  0  0  0  0  0  0  0  0
   -4.7821   -3.5428   -6.0925 H   0  0  0  0  0  0  0  0  0  0  0  0
   -3.4699   -4.6510   -5.5950 H   0  0  0  0  0  0  0  0  0  0  0  0
   -1.1078   -3.5937   -5.3510 H   0  0  0  0  0  0  0  0  0  0  0  0
   -0.9880   -1.8426   -5.6903 H   0  0  0  0  0  0  0  0  0  0  0  0
    0.3346   -6.3429    2.5038 H   0  0  0  0  0  0  0  0  0  0  0  0
    1.4290   -7.5239    3.2563 H   0  0  0  0  0  0  0  0  0  0  0  0
    1.3504   -7.4325   -0.7834 H   0  0  0  0  0  0  0  0  0  0  0  0
    0.2923   -6.2860    0.0654 H   0  0  0  0  0  0  0  0  0  0  0  0
   -3.8765   -4.9548   -8.0003 H   0  0  0  0  0  0  0  0  0  0  0  0
   -3.7451   -3.1962   -8.2824 H   0  0  0  0  0  0  0  0  0  0  0  0
   -1.5433   -2.2044   -8.0512 H   0  0  0  0  0  0  0  0  0  0  0  0
   -0.2017   -3.3001   -7.6164 H   0  0  0  0  0  0  0  0  0  0  0  0
   -1.6235  -10.6666    2.2641 H   0  0  0  0  0  0  0  0  0  0  0  0
   -1.7205   -7.1720    1.3179 H   0  0  0  0  0  0  0  0  0  0  0  0
   -3.0150  -11.1523   -0.4339 H   0  0  0  0  0  0  0  0  0  0  0  0
   -2.2362  -12.4014    0.5626 H   0  0  0  0  0  0  0  0  0  0  0  0
   -1.2637  -11.1115   -0.1688 H   0  0  0  0  0  0  0  0  0  0  0  0
   -6.7158  -11.4199    1.6564 H   0  0  0  0  0  0  0  0  0  0  0  0
   -6.7205  -10.0605    2.8131 H   0  0  0  0  0  0  0  0  0  0  0  0
   -5.8961  -11.5909    3.2241 H   0  0  0  0  0  0  0  0  0  0  0  0
   -5.6308   -5.6936   -1.8446 H   0  0  0  0  0  0  0  0  0  0  0  0
  1  3  1  0  0  0  0
  1  4  2  0  0  0  0
  1 36  1  0  0  0  0
  2  5  2  0  0  0  0
  2  7  1  0  0  0  0
  2 37  1  0  0  0  0
  3  8  2  0  0  0  0
  3 38  1  0  0  0  0
  4  9  1  0  0  0  0
  4 39  1  0  0  0  0
  5 11  1  0  0  0  0
  5 40  1  0  0  0  0
  6  8  1  0  0  0  0
  6  9  2  0  0  0  0
  6 41  1  0  0  0  0
  7 10  2  0  0  0  0
  7 26  1  0  0  0  0
  8 29  1  0  0  0  0
  9 35  1  0  0  0  0
 10 25  1  0  0  0  0
 10 27  1  0  0  0  0
 11 25  2  0  0  0  0
 11 29  1  0  0  0  0
 12 21  1  0  0  0  0
 12 26  1  0  0  0  0
 12 30  2  0  0  0  0
 13 17  1  0  0  0  0
 13 22  1  0  0  0  0
 13 42  1  0  0  0  0
 13 43  1  0  0  0  0
 14 18  1  0  0  0  0
 14 22  1  0  0  0  0
 14 44  1  0  0  0  0
 14 45  1  0  0  0  0
 15 19  1  0  0  0  0
 15 28  1  0  0  0  0
 15 46  1  0  0  0  0
 15 47  1  0  0  0  0
 16 20  1  0  0  0  0
 16 28  1  0  0  0  0
 16 48  1  0  0  0  0
 16 49  1  0  0  0  0
 17 33  1  0  0  0  0
 17 50  1  0  0  0  0
 17 51  1  0  0  0  0
 18 33  1  0  0  0  0
 18 52  1  0  0  0  0
 18 53  1  0  0  0  0
 19 34  1  0  0  0  0
 19 54  1  0  0  0  0
 19 55  1  0  0  0  0
 20 34  1  0  0  0  0
 20 56  1  0  0  0  0
 20 57  1  0  0  0  0
 21 23  1  0  0  0  0
 21 27  1  0  0  0  0
 21 58  1  0  0  0  0
 22 27  1  0  0  0  0
 22 59  1  0  0  0  0
 23 60  1  0  0  0  0
 23 61  1  0  0  0  0
 23 62  1  0  0  0  0
 24 26  1  0  0  0  0
 24 63  1  0  0  0  0
 24 64  1  0  0  0  0
 24 65  1  0  0  0  0
 28 35  1  0  0  0  0
 29 66  1  0  0  0  0
 31 35  2  0  0  0  0
 32 35  2  0  0  0  0
M  END
$$$$
