
  -OEChem-05262117483D

 49 51  0     1  0  0  0  0  0999 V2000
    0.4094   -1.2890    0.0570 C   0  0  0  0  0  0  0  0  0  0  0  0
    0.6791   -1.8545    1.3099 C   0  0  0  0  0  0  0  0  0  0  0  0
   -0.4056   -3.9139    0.6585 C   0  0  0  0  0  0  0  0  0  0  0  0
   -5.4945   -5.3485    0.2876 C   0  0  0  0  0  0  0  0  0  0  0  0
   -4.9501   -6.5677    0.7421 C   0  0  0  0  0  0  0  0  0  0  0  0
   -0.2717   -2.0447   -0.8967 C   0  0  0  0  0  0  0  0  0  0  0  0
   -0.6726   -3.3509   -0.5881 C   0  0  0  0  0  0  0  0  0  0  0  0
    0.2785   -3.1636    1.6282 C   0  0  0  0  0  0  0  0  0  0  0  0
   -3.6073   -6.8175    0.3405 C   0  0  0  0  0  0  0  0  0  0  0  0
   -3.5662   -4.7934   -0.7611 C   0  0  0  0  0  0  0  0  0  0  0  0
   -5.7546   -7.4947    1.5783 C   0  0  0  0  0  0  0  0  0  0  0  0
   -0.6896   -1.6811   -2.3060 C   0  0  0  0  0  0  0  0  0  0  0  0
   -1.4403   -3.9569   -1.7516 C   0  0  2  0  0  0  0  0  0  0  0  0
   -1.0039   -3.0596   -2.9437 C   0  0  1  0  0  0  0  0  0  0  0  0
    0.5547   -3.7444    2.9970 C   0  0  0  0  0  0  0  0  0  0  0  0
   -1.9540   -3.0261   -4.1387 C   0  0  0  0  0  0  0  0  0  0  0  0
   -2.1536   -7.8575    2.1091 C   0  0  0  0  0  0  0  0  0  0  0  0
   -7.9622   -8.2467    2.6066 C   0  0  0  0  0  0  0  0  0  0  0  0
   -2.8101   -8.0375    0.7270 C   0  0  0  0  0  0  0  0  0  0  0  0
   -7.2362   -7.1751    1.7940 C   0  0  0  0  0  0  0  0  0  0  0  0
   -4.8417   -4.4565   -0.4445 N   0  0  0  0  0  0  0  0  0  0  0  0
   -2.9382   -5.9310   -0.4031 N   0  0  0  0  0  0  0  0  0  0  0  0
   -2.8896   -3.8981   -1.5262 N   0  0  0  0  0  0  0  0  0  0  0  0
   -5.2696   -8.4990    2.0977 O   0  0  0  0  0  0  0  0  0  0  0  0
    0.7384   -0.2759   -0.1646 H   0  0  0  0  0  0  0  0  0  0  0  0
    1.2178   -1.2706    2.0536 H   0  0  0  0  0  0  0  0  0  0  0  0
   -0.7251   -4.9304    0.8731 H   0  0  0  0  0  0  0  0  0  0  0  0
   -6.5163   -5.0748    0.5396 H   0  0  0  0  0  0  0  0  0  0  0  0
   -1.5816   -1.0378   -2.2953 H   0  0  0  0  0  0  0  0  0  0  0  0
    0.0826   -1.1376   -2.8602 H   0  0  0  0  0  0  0  0  0  0  0  0
   -1.1960   -5.0058   -1.9199 H   0  0  0  0  0  0  0  0  0  0  0  0
   -0.0460   -3.4770   -3.2756 H   0  0  0  0  0  0  0  0  0  0  0  0
   -0.2717   -3.5326    3.6866 H   0  0  0  0  0  0  0  0  0  0  0  0
    0.6715   -4.8314    2.9530 H   0  0  0  0  0  0  0  0  0  0  0  0
    1.4639   -3.3230    3.4362 H   0  0  0  0  0  0  0  0  0  0  0  0
   -2.9184   -2.5736   -3.8859 H   0  0  0  0  0  0  0  0  0  0  0  0
   -2.1526   -4.0347   -4.5155 H   0  0  0  0  0  0  0  0  0  0  0  0
   -1.5196   -2.4391   -4.9552 H   0  0  0  0  0  0  0  0  0  0  0  0
   -1.5066   -6.9739    2.1208 H   0  0  0  0  0  0  0  0  0  0  0  0
   -1.5409   -8.7318    2.3509 H   0  0  0  0  0  0  0  0  0  0  0  0
   -2.9129   -7.7500    2.8871 H   0  0  0  0  0  0  0  0  0  0  0  0
   -7.9171   -9.2175    2.1062 H   0  0  0  0  0  0  0  0  0  0  0  0
   -7.5065   -8.3681    3.5925 H   0  0  0  0  0  0  0  0  0  0  0  0
   -9.0137   -7.9725    2.7395 H   0  0  0  0  0  0  0  0  0  0  0  0
   -3.4473   -8.9217    0.7481 H   0  0  0  0  0  0  0  0  0  0  0  0
   -2.0345   -8.1651   -0.0333 H   0  0  0  0  0  0  0  0  0  0  0  0
   -7.3125   -6.2032    2.2986 H   0  0  0  0  0  0  0  0  0  0  0  0
   -7.7169   -7.0413    0.8170 H   0  0  0  0  0  0  0  0  0  0  0  0
   -3.3501   -2.9984   -1.5976 H   0  0  0  0  0  0  0  0  0  0  0  0
  1  2  1  0  0  0  0
  1  6  2  0  0  0  0
  1 25  1  0  0  0  0
  2  8  2  0  0  0  0
  2 26  1  0  0  0  0
  3  7  2  0  0  0  0
  3  8  1  0  0  0  0
  3 27  1  0  0  0  0
  4  5  1  0  0  0  0
  4 21  2  0  0  0  0
  4 28  1  0  0  0  0
  5  9  2  0  0  0  0
  5 11  1  0  0  0  0
  6  7  1  0  0  0  0
  6 12  1  0  0  0  0
  7 13  1  0  0  0  0
  8 15  1  0  0  0  0
  9 19  1  0  0  0  0
  9 22  1  0  0  0  0
 10 21  1  0  0  0  0
 10 22  2  0  0  0  0
 10 23  1  0  0  0  0
 11 20  1  0  0  0  0
 11 24  2  0  0  0  0
 12 14  1  0  0  0  0
 12 29  1  0  0  0  0
 12 30  1  0  0  0  0
 13 14  1  0  0  0  0
 13 23  1  0  0  0  0
 13 31  1  0  0  0  0
 14 16  1  0  0  0  0
 14 32  1  0  0  0  0
 15 33  1  0  0  0  0
 15 34  1  0  0  0  0
 15 35  1  0  0  0  0
 16 36  1  0  0  0  0
 16 37  1  0  0  0  0
 16 38  1  0  0  0  0
 17 19  1  0  0  0  0
 17 39  1  0  0  0  0
 17 40  1  0  0  0  0
 17 41  1  0  0  0  0
 18 20  1  0  0  0  0
 18 42  1  0  0  0  0
 18 43  1  0  0  0  0
 18 44  1  0  0  0  0
 19 45  1  0  0  0  0
 19 46  1  0  0  0  0
 20 47  1  0  0  0  0
 20 48  1  0  0  0  0
 23 49  1  0  0  0  0
M  END
$$$$
