
  -OEChem-05262117483D

 24 24  0     0  0  0  0  0  0999 V2000
    1.7765   -0.6900    0.0963 C   0  0  0  0  0  0  0  0  0  0  0  0
    0.8646   -0.3904    1.1136 C   0  0  0  0  0  0  0  0  0  0  0  0
    3.2555   -1.6783    1.7342 C   0  0  0  0  0  0  0  0  0  0  0  0
    2.9733   -1.3323    0.4058 C   0  0  0  0  0  0  0  0  0  0  0  0
    1.1472   -0.7297    2.4361 C   0  0  0  0  0  0  0  0  0  0  0  0
    2.3561   -1.3846    2.7620 C   0  0  0  0  0  0  0  0  0  0  0  0
    3.1720   -0.5354    5.0436 C   0  0  0  0  0  0  0  0  0  0  0  0
    2.7104   -1.7280    4.1930 C   0  0  0  0  0  0  0  0  0  0  0  0
    3.9759   -1.6276   -0.6750 C   0  0  0  0  0  0  0  0  0  0  0  0
    0.1492   -0.4119    3.5270 C   0  0  0  0  0  0  0  0  0  0  0  0
    2.9908   -0.4693    6.2359 O   0  0  0  0  0  0  0  0  0  0  0  0
    3.8327    0.4550    4.3867 O   0  0  0  0  0  0  0  0  0  0  0  0
    4.4389   -2.9184   -0.5736 F   0  0  0  0  0  0  0  0  0  0  0  0
    5.0762   -0.8050   -0.5420 F   0  0  0  0  0  0  0  0  0  0  0  0
   -0.4446   -1.5765    3.9744 F   0  0  0  0  0  0  0  0  0  0  0  0
   -0.8535    0.3949    3.0569 F   0  0  0  0  0  0  0  0  0  0  0  0
    1.5477   -0.4197   -0.9316 H   0  0  0  0  0  0  0  0  0  0  0  0
   -0.0662    0.1142    0.8794 H   0  0  0  0  0  0  0  0  0  0  0  0
    4.1855   -2.1924    1.9631 H   0  0  0  0  0  0  0  0  0  0  0  0
    3.5345   -2.4493    4.2047 H   0  0  0  0  0  0  0  0  0  0  0  0
    1.8798   -2.1908    4.7265 H   0  0  0  0  0  0  0  0  0  0  0  0
    3.5797   -1.4897   -1.6848 H   0  0  0  0  0  0  0  0  0  0  0  0
    0.5851    0.0833    4.3990 H   0  0  0  0  0  0  0  0  0  0  0  0
    3.8656    0.2603    3.4319 H   0  0  0  0  0  0  0  0  0  0  0  0
  1  2  1  0  0  0  0
  1  4  2  0  0  0  0
  1 17  1  0  0  0  0
  2  5  2  0  0  0  0
  2 18  1  0  0  0  0
  3  4  1  0  0  0  0
  3  6  2  0  0  0  0
  3 19  1  0  0  0  0
  4  9  1  0  0  0  0
  5  6  1  0  0  0  0
  5 10  1  0  0  0  0
  6  8  1  0  0  0  0
  7  8  1  0  0  0  0
  7 11  2  0  0  0  0
  7 12  1  0  0  0  0
  8 20  1  0  0  0  0
  8 21  1  0  0  0  0
  9 13  1  0  0  0  0
  9 14  1  0  0  0  0
  9 22  1  0  0  0  0
 10 15  1  0  0  0  0
 10 16  1  0  0  0  0
 10 23  1  0  0  0  0
 12 24  1  0  0  0  0
M  END
$$$$
