25
0 1 C11H7N5O2
C                    -0.039773874631    -2.091786643973     1.939775171977
C                     7.099204863218     0.448530889520     7.104914981660
C                     1.033541360141    -1.642544937165     2.704626014927
C                     6.094661646914     0.876703141096     6.257203232101
C                    -0.774755156462    -1.145826863919     1.221844276213
C                     7.169796896742    -0.926839803083     7.367188680120
C                     1.347343885286    -0.274991737162     2.736667054728
C                     5.237488399332    -0.110934101601     5.737633117272
C                     0.530967422465     0.588404216368     1.968505784984
C                     4.138369795838     0.262445569926     4.824240299790
C                     2.478137216241     0.157081291305     3.549128204160
N                    -0.497238735995     0.164829070098     1.234664684246
N                     6.326282623152    -1.823591272606     6.844566186471
N                     5.355754891491    -1.415470471602     6.026324030018
N                     3.247423908326    -0.622381870132     4.269310928876
N                     3.943928582876     1.520683511376     4.476571311597
O                     2.836115073925     1.459928813405     3.624182032378
O                     0.780276141678     1.915426469073     1.957040065318
H                    -0.302447408807    -3.143612166848     1.898594627902
H                     7.807232810747     1.139856813631     7.552848033226
H                     1.644779266227    -2.325928239435     3.285639821747
H                     5.955417569979     1.919637756567     5.991583350342
H                    -1.622658304127    -1.445493520569     0.608964148030
H                     7.931153265063    -1.341836108333     8.023425381986
H                     0.104729033130     2.307012249695     1.371222350737
