30
0 1 C13H13N3O
C                     2.431493303765    -0.788503762490     0.107648726056
C                     1.747507173401     0.201709885292     0.819400377197
C                     2.836854630827    -1.952385496658     0.771719975902
C                     1.465719102195     0.035900853084     2.177912081838
C                     2.579395153792    -2.114829993702     2.133624188015
C                     1.562823136228     1.759407702105     6.232776443807
C                    -0.240541686902     0.278874516736     6.764764463900
C                     0.397460367342     1.505713839518     6.982740685137
C                     2.028458287346     0.841162530689     5.301196800448
C                     1.890779410765    -1.121408494835     2.847984624595
C                     1.247973406426    -0.335298936425     5.121073741654
C                    -0.136474119993     2.431851583195     7.978469036801
C                     3.337635668487     1.057963200628     4.584863601809
N                     0.160562203122    -0.613902032877     5.855534540657
N                     0.410811831165     3.573594278570     8.197229398121
N                     1.627600634063    -1.341101949038     4.226919002914
O                    -0.285462529587     4.273960951904     9.202586975817
H                     2.642634947321    -0.657945161074    -0.950044065018
H                     1.414573791402     1.104297692606     0.313093882774
H                     3.368855028375    -2.730959931429     0.231002061155
H                     0.901870893904     0.793169544416     2.714483549174
H                     2.918764092688    -3.005023195424     2.657493163875
H                     2.119795639185     2.674261307985     6.416535230502
H                    -1.121068736607     0.005875327568     7.346206840759
H                    -1.024821525146     2.129874205462     8.541499989100
H                     3.891070124364     0.118715414354     4.493954782968
H                     3.196584906470     1.441079076652     3.569088562167
H                     3.954935114309     1.774160014424     5.133930885170
H                     1.103067434968    -2.192019766354     4.408627989932
H                     0.214135675296     5.103896443017     9.270290543163
