16
0 1 C7ClFH5NO
C                     1.974454985691    -0.765618456828    -0.148769171476
C                     0.813500040715    -0.406019030834     0.546035918168
C                     3.012367598305    -1.412985476588     0.520428853023
C                     0.692409218655    -0.689400391120     1.908281285536
C                     2.905035420765    -1.724263090881     1.885367118548
C                     1.737082477602    -1.341944764290     2.554447020110
C                     3.989036743710    -2.441404671210     2.590698130299
N                     3.928849625340    -3.549109688249     3.224532871674
O                     2.647057424148    -4.113515972118     3.171853365020
F                     1.625387784304    -1.579470559141     3.878870478241
Cl                    5.581107620791    -1.699103085227     2.537101776501
H                     2.070259296993    -0.540587626026    -1.206804197326
H                     0.003604220690     0.102780274551     0.030764696120
H                     3.918425167671    -1.688515662145    -0.011187642334
H                    -0.188903537497    -0.408564150963     2.476584615597
H                     2.750723334970    -4.907739415283     3.721842321620
