23
0 1 C9H11NO2
C                    -1.198518007180     2.360799869303     0.466433123893
C                    -1.343384718981     3.645597881720     1.001381303093
C                    -0.580138235499     1.511153421403     2.638825622836
C                    -0.810892387715     1.285188275318     1.273591187409
C                    -1.110783272624     3.867266299358     2.357553351241
C                    -0.731669156378     2.786427291798     3.172190540864
C                     0.863276809281    -0.530569740500     0.329277857578
C                     0.476521347654    -1.900358793595     0.935326688978
C                    -0.588216215580    -0.082272525053     0.684693259287
N                    -0.658937902813    -1.232132428415     1.631089054904
O                    -1.261594247908     5.123542416843     2.886120447046
O                    -0.535241899011     3.096822556010     4.508752488108
H                    -1.390009898584     2.200250784485    -0.592278883655
H                    -1.644821256438     4.485521074090     0.382029073036
H                    -0.298090338283     0.668451667669     3.267193661994
H                     1.605108470025     0.001693573453     0.928691891570
H                     1.147771436707    -0.500260925255    -0.724320027945
H                     0.167051185750    -2.619247092645     0.163308050750
H                     1.193411642893    -2.384150660408     1.607137282533
H                    -1.239581232668    -0.211771793070    -0.193004856676
H                    -1.542076595514    -1.739654368806     1.617570244079
H                    -1.064176148548     5.068632867463     3.837359764629
H                    -0.290589505327     2.292510179987     4.992215402491
