
  -OEChem-05262117483D

 33 35  0     0  0  0  0  0  0999 V2000
    1.6654   -0.4542   -0.1075 C   0  0  0  0  0  0  0  0  0  0  0  0
    0.5934    0.0928    0.5782 C   0  0  0  0  0  0  0  0  0  0  0  0
    2.5552   -1.3259    0.5450 C   0  0  0  0  0  0  0  0  0  0  0  0
   -4.2598    2.1118    5.0359 C   0  0  0  0  0  0  0  0  0  0  0  0
   -5.0023    2.2594    6.1882 C   0  0  0  0  0  0  0  0  0  0  0  0
    0.3724   -0.2122    1.9417 C   0  0  0  0  0  0  0  0  0  0  0  0
    2.3494   -1.6335    1.8837 C   0  0  0  0  0  0  0  0  0  0  0  0
    1.2585   -1.0830    2.5997 C   0  0  0  0  0  0  0  0  0  0  0  0
   -3.1359    1.2650    5.1013 C   0  0  0  0  0  0  0  0  0  0  0  0
   -4.5863    1.5582    7.3370 C   0  0  0  0  0  0  0  0  0  0  0  0
   -2.2899    1.0554    3.9092 C   0  0  0  0  0  0  0  0  0  0  0  0
   -0.7660    0.3806    2.6344 C   0  0  0  0  0  0  0  0  0  0  0  0
   -5.3298    1.6637    8.6420 C   0  0  0  0  0  0  0  0  0  0  0  0
    4.2618   -3.0797    2.0308 C   0  0  0  0  0  0  0  0  0  0  0  0
   -2.7801    0.6179    6.2169 N   0  0  0  0  0  0  0  0  0  0  0  0
   -3.5042    0.7651    7.3281 N   0  0  0  0  0  0  0  0  0  0  0  0
   -1.1723    0.2541    3.8713 N   0  0  0  0  0  0  0  0  0  0  0  0
   -2.5758    1.6533    2.7684 N   0  0  0  0  0  0  0  0  0  0  0  0
   -1.5670    1.2124    1.9073 O   0  0  0  0  0  0  0  0  0  0  0  0
    1.0922   -1.4070    3.9019 O   0  0  0  0  0  0  0  0  0  0  0  0
    3.1325   -2.4662    2.6501 O   0  0  0  0  0  0  0  0  0  0  0  0
    1.8239   -0.2121   -1.1538 H   0  0  0  0  0  0  0  0  0  0  0  0
   -0.0926    0.7647    0.0753 H   0  0  0  0  0  0  0  0  0  0  0  0
    3.3921   -1.7499    0.0009 H   0  0  0  0  0  0  0  0  0  0  0  0
   -4.5130    2.6163    4.1090 H   0  0  0  0  0  0  0  0  0  0  0  0
   -5.8836    2.8951    6.2182 H   0  0  0  0  0  0  0  0  0  0  0  0
   -6.3901    1.4219    8.5117 H   0  0  0  0  0  0  0  0  0  0  0  0
   -4.8942    0.9782    9.3706 H   0  0  0  0  0  0  0  0  0  0  0  0
   -5.2724    2.6830    9.0406 H   0  0  0  0  0  0  0  0  0  0  0  0
    4.7335   -3.6883    2.8027 H   0  0  0  0  0  0  0  0  0  0  0  0
    4.9716   -2.3244    1.6743 H   0  0  0  0  0  0  0  0  0  0  0  0
    3.9516   -3.7203    1.1971 H   0  0  0  0  0  0  0  0  0  0  0  0
    1.8145   -2.0163    4.1434 H   0  0  0  0  0  0  0  0  0  0  0  0
  1  2  1  0  0  0  0
  1  3  2  0  0  0  0
  1 22  1  0  0  0  0
  2  6  2  0  0  0  0
  2 23  1  0  0  0  0
  3  7  1  0  0  0  0
  3 24  1  0  0  0  0
  4  5  2  0  0  0  0
  4  9  1  0  0  0  0
  4 25  1  0  0  0  0
  5 10  1  0  0  0  0
  5 26  1  0  0  0  0
  6  8  1  0  0  0  0
  6 12  1  0  0  0  0
  7  8  2  0  0  0  0
  7 21  1  0  0  0  0
  8 20  1  0  0  0  0
  9 11  1  0  0  0  0
  9 15  2  0  0  0  0
 10 13  1  0  0  0  0
 10 16  2  0  0  0  0
 11 17  1  0  0  0  0
 11 18  2  0  0  0  0
 12 17  2  0  0  0  0
 12 19  1  0  0  0  0
 13 27  1  0  0  0  0
 13 28  1  0  0  0  0
 13 29  1  0  0  0  0
 14 21  1  0  0  0  0
 14 30  1  0  0  0  0
 14 31  1  0  0  0  0
 14 32  1  0  0  0  0
 15 16  1  0  0  0  0
 18 19  1  0  0  0  0
 20 33  1  0  0  0  0
M  END
$$$$
