
  -OEChem-05262117483D

 30 31  0     0  0  0  0  0  0999 V2000
   -0.4195   -3.2855    0.7659 C   0  0  0  0  0  0  0  0  0  0  0  0
   -1.1641   -2.4803    1.6318 C   0  0  0  0  0  0  0  0  0  0  0  0
    0.9735   -3.3143    0.8998 C   0  0  0  0  0  0  0  0  0  0  0  0
   -0.5500   -1.7082    2.6224 C   0  0  0  0  0  0  0  0  0  0  0  0
    1.6010   -2.5512    1.8816 C   0  0  0  0  0  0  0  0  0  0  0  0
    1.7819    1.3261    6.5128 C   0  0  0  0  0  0  0  0  0  0  0  0
   -0.4825    0.9810    5.8317 C   0  0  0  0  0  0  0  0  0  0  0  0
    0.4162    1.6185    6.6978 C   0  0  0  0  0  0  0  0  0  0  0  0
    2.2037    0.4522    5.5233 C   0  0  0  0  0  0  0  0  0  0  0  0
    0.8498   -1.7387    2.7553 C   0  0  0  0  0  0  0  0  0  0  0  0
    1.1913   -0.1326    4.7062 C   0  0  0  0  0  0  0  0  0  0  0  0
   -0.0009    2.5439    7.7492 C   0  0  0  0  0  0  0  0  0  0  0  0
    3.6645    0.1340    5.3203 C   0  0  0  0  0  0  0  0  0  0  0  0
   -0.1142    0.1347    4.8683 N   0  0  0  0  0  0  0  0  0  0  0  0
   -1.2364    2.8324    7.9531 N   0  0  0  0  0  0  0  0  0  0  0  0
    1.5817   -1.0084    3.7102 N   0  0  0  0  0  0  0  0  0  0  0  0
   -1.3619    3.7451    9.0210 O   0  0  0  0  0  0  0  0  0  0  0  0
   -0.9122   -3.8795    0.0013 H   0  0  0  0  0  0  0  0  0  0  0  0
   -2.2471   -2.4466    1.5411 H   0  0  0  0  0  0  0  0  0  0  0  0
    1.5755   -3.9325    0.2388 H   0  0  0  0  0  0  0  0  0  0  0  0
   -1.1329   -1.0886    3.2876 H   0  0  0  0  0  0  0  0  0  0  0  0
    2.6858   -2.5827    1.9756 H   0  0  0  0  0  0  0  0  0  0  0  0
    2.5237    1.7937    7.1581 H   0  0  0  0  0  0  0  0  0  0  0  0
   -1.5498    1.1678    5.9264 H   0  0  0  0  0  0  0  0  0  0  0  0
    0.7756    2.9971    8.3739 H   0  0  0  0  0  0  0  0  0  0  0  0
    3.8717   -0.9360    5.4530 H   0  0  0  0  0  0  0  0  0  0  0  0
    4.0094    0.4190    4.3177 H   0  0  0  0  0  0  0  0  0  0  0  0
    4.2826    0.6749    6.0408 H   0  0  0  0  0  0  0  0  0  0  0  0
    2.5785   -1.1573    3.6497 H   0  0  0  0  0  0  0  0  0  0  0  0
   -2.3221    3.8797    9.0738 H   0  0  0  0  0  0  0  0  0  0  0  0
  1  2  1  0  0  0  0
  1  3  2  0  0  0  0
  1 18  1  0  0  0  0
  2  4  2  0  0  0  0
  2 19  1  0  0  0  0
  3  5  1  0  0  0  0
  3 20  1  0  0  0  0
  4 10  1  0  0  0  0
  4 21  1  0  0  0  0
  5 10  2  0  0  0  0
  5 22  1  0  0  0  0
  6  8  1  0  0  0  0
  6  9  2  0  0  0  0
  6 23  1  0  0  0  0
  7  8  2  0  0  0  0
  7 14  1  0  0  0  0
  7 24  1  0  0  0  0
  8 12  1  0  0  0  0
  9 11  1  0  0  0  0
  9 13  1  0  0  0  0
 10 16  1  0  0  0  0
 11 14  2  0  0  0  0
 11 16  1  0  0  0  0
 12 15  2  0  0  0  0
 12 25  1  0  0  0  0
 13 26  1  0  0  0  0
 13 27  1  0  0  0  0
 13 28  1  0  0  0  0
 15 17  1  0  0  0  0
 16 29  1  0  0  0  0
 17 30  1  0  0  0  0
M  END
$$$$
