
  -OEChem-05262117483D

 30 31  0     0  0  0  0  0  0999 V2000
    5.3851   -3.2431    3.7420 C   0  0  0  0  0  0  0  0  0  0  0  0
    4.8636   -2.8238    4.9697 C   0  0  0  0  0  0  0  0  0  0  0  0
    4.7872   -2.7986    2.5567 C   0  0  0  0  0  0  0  0  0  0  0  0
    3.7561   -1.9733    5.0197 C   0  0  0  0  0  0  0  0  0  0  0  0
    3.6952   -1.9306    2.5984 C   0  0  0  0  0  0  0  0  0  0  0  0
    1.9427    1.6803    6.6911 C   0  0  0  0  0  0  0  0  0  0  0  0
   -0.1827    0.6746    6.2459 C   0  0  0  0  0  0  0  0  0  0  0  0
    0.5872    1.5290    7.0440 C   0  0  0  0  0  0  0  0  0  0  0  0
    2.4851    0.9844    5.6190 C   0  0  0  0  0  0  0  0  0  0  0  0
    3.1704   -1.5111    3.8313 C   0  0  0  0  0  0  0  0  0  0  0  0
    1.6149    0.0908    4.9335 C   0  0  0  0  0  0  0  0  0  0  0  0
   -0.0387    2.2381    8.1575 C   0  0  0  0  0  0  0  0  0  0  0  0
    3.9021    1.2352    5.1681 C   0  0  0  0  0  0  0  0  0  0  0  0
    0.3120   -0.0343    5.2275 N   0  0  0  0  0  0  0  0  0  0  0  0
    0.6355    3.0223    8.9200 N   0  0  0  0  0  0  0  0  0  0  0  0
    2.0416   -0.6483    3.8259 N   0  0  0  0  0  0  0  0  0  0  0  0
   -0.1933    3.5855    9.9110 O   0  0  0  0  0  0  0  0  0  0  0  0
    6.2423   -3.9097    3.7082 H   0  0  0  0  0  0  0  0  0  0  0  0
    5.3092   -3.1726    5.8979 H   0  0  0  0  0  0  0  0  0  0  0  0
    5.1813   -3.1170    1.5950 H   0  0  0  0  0  0  0  0  0  0  0  0
    3.3346   -1.6823    5.9773 H   0  0  0  0  0  0  0  0  0  0  0  0
    3.2477   -1.5616    1.6789 H   0  0  0  0  0  0  0  0  0  0  0  0
    2.5583    2.3805    7.2494 H   0  0  0  0  0  0  0  0  0  0  0  0
   -1.2477    0.5505    6.4415 H   0  0  0  0  0  0  0  0  0  0  0  0
   -1.1080    2.0850    8.3322 H   0  0  0  0  0  0  0  0  0  0  0  0
    4.5941    0.4663    5.5265 H   0  0  0  0  0  0  0  0  0  0  0  0
    3.9684    1.2352    4.0762 H   0  0  0  0  0  0  0  0  0  0  0  0
    4.2508    2.2031    5.5381 H   0  0  0  0  0  0  0  0  0  0  0  0
    1.2435   -1.0280    3.3251 H   0  0  0  0  0  0  0  0  0  0  0  0
    0.4226    4.1435   10.4132 H   0  0  0  0  0  0  0  0  0  0  0  0
  1  2  1  0  0  0  0
  1  3  2  0  0  0  0
  1 18  1  0  0  0  0
  2  4  2  0  0  0  0
  2 19  1  0  0  0  0
  3  5  1  0  0  0  0
  3 20  1  0  0  0  0
  4 10  1  0  0  0  0
  4 21  1  0  0  0  0
  5 10  2  0  0  0  0
  5 22  1  0  0  0  0
  6  8  1  0  0  0  0
  6  9  2  0  0  0  0
  6 23  1  0  0  0  0
  7  8  2  0  0  0  0
  7 14  1  0  0  0  0
  7 24  1  0  0  0  0
  8 12  1  0  0  0  0
  9 11  1  0  0  0  0
  9 13  1  0  0  0  0
 10 16  1  0  0  0  0
 11 14  2  0  0  0  0
 11 16  1  0  0  0  0
 12 15  2  0  0  0  0
 12 25  1  0  0  0  0
 13 26  1  0  0  0  0
 13 27  1  0  0  0  0
 13 28  1  0  0  0  0
 15 17  1  0  0  0  0
 16 29  1  0  0  0  0
 17 30  1  0  0  0  0
M  END
$$$$
