33
0 1 C14H12N4O3
C                     1.665446477985    -0.454222195712    -0.107518955928
C                     0.593418710200     0.092788869052     0.578203838789
C                     2.555241500315    -1.325895073495     0.545016590566
C                    -4.259769847893     2.111790590307     5.035876501784
C                    -5.002282379787     2.259391147998     6.188196539415
C                     0.372397264619    -0.212205041036     1.941651803703
C                     2.349426903819    -1.633498298200     1.883695045565
C                     1.258466101496    -1.083005332058     2.599695164192
C                    -3.135932826543     1.264955983725     5.101344231913
C                    -4.586309837834     1.558166953577     7.336969327574
C                    -2.289904553736     1.055389134506     3.909242106821
C                    -0.766028124657     0.380594060859     2.634394165871
C                    -5.329799437238     1.663662425812     8.641956863481
C                     4.261766576386    -3.079724739790     2.030784947247
N                    -2.780101835512     0.617906364456     6.216900032090
N                    -3.504182744151     0.765118945291     7.328092914334
N                    -1.172310595782     0.254115098231     3.871347631513
N                    -2.575753975365     1.653277529432     2.768363462580
O                    -1.566970398572     1.212414751077     1.907272329807
O                     1.092186202114    -1.406967678640     3.901944245076
O                     3.132503625924    -2.466226897758     2.650051291844
H                     1.823923754647    -0.212052124698    -1.153839040814
H                    -0.092598576927     0.764741477895     0.075257333898
H                     3.392086564103    -1.749871547761     0.000917894914
H                    -4.513043649610     2.616258998273     4.108953914218
H                    -5.883638591971     2.895148882315     6.218185091320
H                    -6.390141696895     1.421894047927     8.511655632693
H                    -4.894215466148     0.978152863052     9.370573439953
H                    -5.272366966714     2.682963860052     9.040619357401
H                     4.733475676446    -3.688265180919     2.802719753222
H                     4.971630969924    -2.324398292867     1.674261591337
H                     3.951609055620    -3.720276766718     1.197103368326
H                     1.814493568040    -2.016326502909     4.143409478505
