43
0 1 C16H21N3O3
C                    -0.044959012238     6.334773927677    -1.038058554398
C                     0.353089313320     5.972100336638    -2.342341358554
C                    -0.979502010934     5.567729459977    -0.344585864178
C                    -0.153989160694     4.837433947094    -2.977655488907
C                    -1.505197246141     4.440030037669    -0.981691418142
C                    -1.084981454391     4.073679776288    -2.267024185297
C                    -2.483925383030     3.441370113050    -0.528204778752
C                    -2.282569231536     0.137700043670    -1.848626826363
C                     0.912382443558    -0.748459626475    -0.769232895930
C                    -0.496122695966    -1.316248993170    -1.033704542518
C                    -1.604250107547     0.201607129662     0.568902665586
C                    -0.248148069544     0.100071045985     1.299628769965
C                     0.931398177910     0.353076195017     0.327026314382
C                    -0.260492509136     1.010837519928     2.531807861227
C                     0.891744527050     1.744395151018    -0.306133953596
C                    -3.275343387921     1.284122041448    -1.584244843561
N                    -1.676837017445     2.854509623024    -2.631870212830
N                    -2.626961639109     2.582086152203    -1.613722141488
N                    -1.513033217608    -0.289857658536    -0.811738605576
O                    -3.055380693645     3.304291810268     0.555981899094
O                    -2.208416401604    -0.324694489711    -2.991556021712
O                     2.181822701425     0.310224604562     1.041323810625
H                     0.384031860608     7.219432433202    -0.576493755007
H                     1.082245401833     6.586500372896    -2.863907122356
H                    -1.303498399485     5.827441236932     0.659165549557
H                     0.175162826793     4.553948005516    -3.973497872969
H                     1.566759341533    -1.571883057541    -0.459413228353
H                     1.335199665184    -0.342427720759    -1.692698389945
H                    -0.599200844369    -1.676373288871    -2.056047951953
H                    -0.705686655878    -2.156479134781    -0.360084956668
H                    -2.355353074733    -0.376679186688     1.125384076216
H                    -1.930814984693     1.238919274312     0.577550844695
H                    -0.128172059822    -0.934573246466     1.655830375548
H                    -0.456403030249     2.051812486352     2.259396312768
H                     0.696555290350     0.968326910100     3.057193099132
H                    -1.049898280641     0.702081419168     3.225891936337
H                     0.822957310612     2.530557796486     0.448860815635
H                     0.053061075173     1.834823424035    -0.996085567449
H                     1.812519541248     1.901899085577    -0.875006858255
H                    -3.783134065667     1.227043114218    -0.619717224747
H                    -4.022403002000     1.220589014951    -2.380481668427
H                    -2.096818209062     2.809562474940    -3.559695121625
H                     2.256818055562    -0.561713179333     1.462405389210
