
  -OEChem-05262117483D

 23 24  0     1  0  0  0  0  0999 V2000
   -1.1985    2.3608    0.4664 C   0  0  0  0  0  0  0  0  0  0  0  0
   -1.3434    3.6456    1.0014 C   0  0  0  0  0  0  0  0  0  0  0  0
   -0.5801    1.5112    2.6388 C   0  0  0  0  0  0  0  0  0  0  0  0
   -0.8109    1.2852    1.2736 C   0  0  0  0  0  0  0  0  0  0  0  0
   -1.1108    3.8673    2.3576 C   0  0  0  0  0  0  0  0  0  0  0  0
   -0.7317    2.7864    3.1722 C   0  0  0  0  0  0  0  0  0  0  0  0
    0.8633   -0.5306    0.3293 C   0  0  0  0  0  0  0  0  0  0  0  0
    0.4765   -1.9004    0.9353 C   0  0  0  0  0  0  0  0  0  0  0  0
   -0.5882   -0.0823    0.6847 C   0  0  1  0  0  0  0  0  0  0  0  0
   -0.6589   -1.2321    1.6311 N   0  0  0  0  0  0  0  0  0  0  0  0
   -1.2616    5.1235    2.8861 O   0  0  0  0  0  0  0  0  0  0  0  0
   -0.5352    3.0968    4.5088 O   0  0  0  0  0  0  0  0  0  0  0  0
   -1.3900    2.2003   -0.5923 H   0  0  0  0  0  0  0  0  0  0  0  0
   -1.6448    4.4855    0.3820 H   0  0  0  0  0  0  0  0  0  0  0  0
   -0.2981    0.6685    3.2672 H   0  0  0  0  0  0  0  0  0  0  0  0
    1.6051    0.0017    0.9287 H   0  0  0  0  0  0  0  0  0  0  0  0
    1.1478   -0.5003   -0.7243 H   0  0  0  0  0  0  0  0  0  0  0  0
    0.1671   -2.6192    0.1633 H   0  0  0  0  0  0  0  0  0  0  0  0
    1.1934   -2.3842    1.6071 H   0  0  0  0  0  0  0  0  0  0  0  0
   -1.2396   -0.2118   -0.1930 H   0  0  0  0  0  0  0  0  0  0  0  0
   -1.5421   -1.7397    1.6176 H   0  0  0  0  0  0  0  0  0  0  0  0
   -1.0642    5.0686    3.8374 H   0  0  0  0  0  0  0  0  0  0  0  0
   -0.2906    2.2925    4.9922 H   0  0  0  0  0  0  0  0  0  0  0  0
  1  2  1  0  0  0  0
  1  4  2  0  0  0  0
  1 13  1  0  0  0  0
  2  5  2  0  0  0  0
  2 14  1  0  0  0  0
  3  4  1  0  0  0  0
  3  6  2  0  0  0  0
  3 15  1  0  0  0  0
  4  9  1  0  0  0  0
  5  6  1  0  0  0  0
  5 11  1  0  0  0  0
  6 12  1  0  0  0  0
  7  8  1  0  0  0  0
  7  9  1  0  0  0  0
  7 16  1  0  0  0  0
  7 17  1  0  0  0  0
  8 10  1  0  0  0  0
  8 18  1  0  0  0  0
  8 19  1  0  0  0  0
  9 10  1  0  0  0  0
  9 20  1  0  0  0  0
 10 21  1  0  0  0  0
 11 22  1  0  0  0  0
 12 23  1  0  0  0  0
M  END
$$$$
