29   
torsion grid (-165,)
C       -0.8844858720    1.4478048535    2.4249232883
C       -1.9006070307    1.8095799095    3.2792463650
C       -1.2216404264    0.8496063972    1.1866054772
C       -3.2160444889    1.5489820922    2.8433788836
C       -0.3429141498    0.8857223793   -1.2451777775
C       -0.5766023589   -0.5563149618   -0.8938553334
C       -0.1668457507    0.4291458785    0.2006487302
C        0.3203426486   -2.8771965553   -0.4265546184
C       -5.5633580941    1.6229613369    3.2170465990
C        0.3718438256   -1.6475273439   -1.3425845778
N       -2.4961462991    0.6352080360    0.8503754529
N       -3.4940572455    0.9877572230    1.6730585064
N        1.2033844628    0.3389214064    0.6543868523
O       -4.2262997677    1.8954641171    3.6746452956
H        0.1519661078    1.6196317385    2.6969057425
H       -1.7265921101    2.2735618040    4.2453220750
H        0.5722011794    1.1375106617   -1.7745113520
H       -1.2055541220    1.5088059087   -1.4599601423
H       -1.6228736543   -0.8427049546   -0.8324539979
H        0.6262105175   -2.6186936052    0.5934796106
H        0.9871203353   -3.6693269358   -0.7844503861
H       -0.6933271644   -3.2903355286   -0.3724283226
H       -6.2135286436    1.9714401826    4.0202136839
H       -5.7035085265    0.5527684179    3.0440288080
H       -5.7732634531    2.1617579583    2.2894032293
H        0.1042117055   -1.9400320603   -2.3664272647
H        1.3916938176   -1.2548681829   -1.3772707246
H        1.5848279457    1.2541232600    0.8846618185
H        1.2845936333   -0.2581471208    1.4748179826
29   
torsion grid (-150,)
C       -0.8934392134    1.6501416428    2.3210477780
C       -1.9110029446    2.0401492657    3.1588208739
C       -1.2065916463    0.8370478556    1.2033540934
C       -3.2066024399    1.5867451846    2.8296301435
C       -0.2039214503    0.9240859752   -1.1808134312
C       -0.5388156239   -0.5184011926   -0.9075751912
C       -0.1334938093    0.3881445550    0.2470272976
C        0.2038233516   -2.9044073245   -0.5102617745
C       -5.5354955049    1.4916824052    3.2995547467
C        0.3708834988   -1.6399214561   -1.3627884779
N       -2.4593566435    0.4469822901    0.9658516377
N       -3.4627685092    0.8258839402    1.7738887662
N        1.2052586218    0.2044233083    0.7680136841
O       -4.2188254724    1.9588827350    3.6465245914
H        0.1287438125    1.9626501921    2.5111967562
H       -1.7555735757    2.6638527262    4.0338572584
H        0.7513882205    1.1423892016   -1.6512498622
H       -1.0129265776    1.6093771085   -1.4154924735
H       -1.5993691731   -0.7512956381   -0.9135127969
H        0.4692575668   -2.7082617846    0.5345412394
H        0.8446066266   -3.7162385580   -0.8716265218
H       -0.8323422267   -3.2607945705   -0.5262870583
H       -6.1915746676    1.8974541614    4.0703174909
H       -5.5711157265    0.3992295213    3.2978768868
H       -5.8283764999    1.8567787377    2.3117590253
H        0.1424518156   -1.8693324317   -2.4117962588
H        1.4113508552   -1.3055124888   -1.3259234187
H        1.6386990541    1.0904857276    1.0184422199
H        1.1985061379   -0.3910042773    1.5937279489
29   
torsion grid (-135,)
C       -0.9551648159    1.8389507152    2.1750399351
C       -1.9799115167    2.2471422486    2.9931065289
C       -1.2170404887    0.8398642789    1.2035621620
C       -3.2306451068    1.6205293573    2.7929310559
C       -0.0682237036    0.9628640177   -1.1142803367
C       -0.5077151406   -0.4684053089   -0.9221432700
C       -0.1211489909    0.3639532402    0.2864398211
C        0.0621167171   -2.9103271456   -0.5880858529
C       -5.5202909520    1.3663473706    3.3808420793
C        0.3572977695   -1.6261809152   -1.3740213806
N       -2.4272837704    0.2991557242    1.0768798931
N       -3.4401954604    0.6923389769    1.8700208234
N        1.1711471319    0.0851341307    0.8842283414
O       -4.2486276486    2.0066820943    3.5951343453
H        0.0343436491    2.2788456347    2.2626585994
H       -1.8661848023    3.0097024071    3.7575478335
H        0.9262418016    1.1357149336   -1.5178560786
H       -0.8147985471    1.7073989907   -1.3754656658
H       -1.5773339918   -0.6386789412   -1.0004622448
H        0.2757674633   -2.7728892698    0.4776104380
H        0.6722929948   -3.7462248747   -0.9476033579
H       -0.9912808616   -3.1981813322   -0.6780248290
H       -6.1894741679    1.8140721788    4.1162561671
H       -5.4415104017    0.2873404867    3.5362114776
H       -5.8812145039    1.5524061375    2.3660530835
H        0.1800353267   -1.7987236181   -2.4435802612
H        1.4119502213   -1.3594543189   -1.2617559722
H        1.6246103940    0.9361484697    1.2101758071
H        1.0707811952   -0.5406508960    1.6813136278
29   
torsion grid (-120,)
C       -1.0440245253    1.9976796219    1.9940278871
C       -2.0854978143    2.4139448999    2.7858565768
C       -1.2237024254    0.8482124515    1.1837984056
C       -3.2673686562    1.6402570908    2.7222149119
C        0.0907910391    0.9878213559   -1.0457632224
C       -0.4413333582   -0.4235480155   -0.9338904925
C       -0.0959735170    0.3471113316    0.3216355305
C       -0.0481423735   -2.9075306730   -0.6656046210
C       -5.5039854706    1.2452477107    3.4261619812
C        0.3839096183   -1.6154592640   -1.3712807541
N       -2.3727673224    0.1770606699    1.1730516387
N       -3.4017833530    0.5747564039    1.9449991970
N        1.1318234324   -0.0204221537    1.0061146585
O       -4.3004629737    2.0323029630    3.5014386023
H       -0.1036838650    2.5427672226    1.9722183926
H       -2.0370269196    3.2869359601    3.4295424735
H        1.1193553820    1.1120280263   -1.3743320367
H       -0.5915116684    1.7815032303   -1.3374449549
H       -1.5109536386   -0.5314833541   -1.0916011723
H        0.0820147219   -2.8229034659    0.4187731367
H        0.5412698260   -3.7645303039   -1.0096854631
H       -1.1051990532   -3.1274032055   -0.8517063908
H       -6.1980671127    1.7239603829    4.1176513080
H       -5.3102981783    0.2122242705    3.7259844916
H       -5.9060251363    1.2494435084    2.4098391995
H        0.2802337297   -1.7351959438   -2.4575883475
H        1.4408057963   -1.4193635162   -1.1693377987
H        1.5601577305    0.7901251256    1.4500871893
H        0.9343037074   -0.7012013424    1.7380956938
29   
torsion grid (-105,)
C       -1.1383415376    2.1200494388    1.8263437377
C       -2.1913480740    2.5403378142    2.6017849189
C       -1.2311213592    0.8604618090    1.1846920212
C       -3.2918541727    1.6575438681    2.6922832014
C        0.2256011695    1.0083334387   -0.9569724113
C       -0.3910720793   -0.3749614165   -0.9291645634
C       -0.0819599945    0.3344182500    0.3687597855
C       -0.1623621885   -2.8863588221   -0.7370437187
C       -5.4567399287    1.1537462275    3.5371423846
C        0.3898561564   -1.5981822001   -1.3614603730
N       -2.3079063297    0.0877132795    1.3108596011
N       -3.3449601042    0.4872038957    2.0701563755
N        1.0751225843   -0.1271660148    1.1190237870
O       -4.3352129722    2.0533083791    3.4555494022
H       -0.2547576822    2.7384516685    1.6880590348
H       -2.2102966615    3.4931497238    3.1219648351
H        1.2771940425    1.0812002496   -1.2209671675
H       -0.3916163444    1.8480956171   -1.2650176961
H       -1.4534968680   -0.4154903454   -1.1571469378
H       -0.1102728738   -2.8448200564    0.3561241470
H        0.4040854917   -3.7630891431   -1.0697577672
H       -1.2130398984   -3.0398913720   -1.0068659647
H       -6.1737861278    1.6550276333    4.1880005283
H       -5.1530811472    0.1940919801    3.9630340227
H       -5.8872534055    0.9815370570    2.5474322191
H        0.3523881932   -1.6718547009   -2.4561706540
H        1.4405072163   -1.4729130544   -1.0843425382
H        1.4842389655    0.6399034499    1.6511596594
H        0.7876205788   -0.8392202654    1.7895892505
29   
torsion grid (-90,)
C       -1.2289157640    2.2084492431    1.6380287720
C       -2.2967574682    2.6332250608    2.3930078231
C       -1.2177735063    0.8710843135    1.1765780730
C       -3.3028120408    1.6747196580    2.6467554782
C        0.3705722729    1.0166455047   -0.8741754940
C       -0.3229392129   -0.3297761042   -0.9329867478
C       -0.0505307793    0.3197067357    0.4048471656
C       -0.2525381639   -2.8550323758   -0.8205800514
C       -5.3846825362    1.0931921277    3.6391354087
C        0.4110872775   -1.5824395072   -1.3630764010
N       -2.2103348488    0.0254419417    1.4522205529
N       -3.2570748787    0.4273733649    2.1932851377
N        1.0290738725   -0.2372743549    1.2043284230
O       -4.3597698132    2.0734746365    3.3896790822
H       -0.4101866000    2.8773958879    1.3855654200
H       -2.3923543757    3.6423685315    2.7820098106
H        1.4375124922    1.0365129806   -1.0782711453
H       -0.1790242121    1.8988714526   -1.1918085740
H       -1.3704841349   -0.2998174244   -1.2256567569
H       -0.2662725505   -2.8530164220    0.2742492076
H        0.2809952238   -3.7525229997   -1.1523041100
H       -1.2918755669   -2.9357148705   -1.1579456311
H       -6.1301497984    1.6118938328    4.2426978646
H       -4.9770539436    0.2360443995    4.1810797442
H       -5.8222383646    0.7432763694    2.7007351893
H        0.4389085979   -1.6171073672   -2.4600702845
H        1.4474137273   -1.5287208178   -1.0176146844
H        1.4325238389    0.4858792521    1.7991942207
H        0.6543008657   -0.9573376764    1.8215629409
29   
torsion grid (-75,)
C       -1.2822542313    2.2896503881    1.4349291743
C       -2.3688761649    2.7236999586    2.1598482673
C       -1.1578589775    0.9065521648    1.1738312438
C       -3.2745639373    1.7299780192    2.5882125101
C        0.5436853990    1.0283793712   -0.7956439607
C       -0.2260094519   -0.2694295637   -0.9323442699
C        0.0192650457    0.3253025944    0.4396437111
C       -0.3300025611   -2.7956011243   -0.9023121610
C       -5.2708162888    1.1184563273    3.7284515541
C        0.4471751448   -1.5555390460   -1.3634139456
N       -2.0574081759    0.0255326529    1.6156117760
N       -3.1172711260    0.4358713425    2.3283624979
N        1.0193145717   -0.3282224653    1.2676993401
O       -4.3499619502    2.1386774966    3.2986994167
H       -0.5329185613    2.9846427307    1.0663903486
H       -2.5465427855    3.7665062235    2.4043677509
H        1.6187155256    0.9877980254   -0.9455612653
H        0.0670898897    1.9491829131   -1.1209656371
H       -1.2526846932   -0.1621751523   -1.2781619524
H       -0.4217234793   -2.8170728932    0.1883953317
H        0.1692199926   -3.7171911515   -1.2209825754
H       -1.3457187282   -2.8032519036   -1.3137809963
H       -6.0510931539    1.6531955549    4.2709398966
H       -4.7725978157    0.3964357653    4.3804212678
H       -5.6907966976    0.5890560515    2.8694405703
H        0.5365778848   -1.5587235497   -2.4577522336
H        1.4625610432   -1.5819462016   -0.9582966968
H        1.4226349258    0.3469017586    1.9168994855
H        0.5618780607   -1.0442698611    1.8320224268
29   
torsion grid (-60,)
C       -1.4279743131    2.2762568694    1.2669441807
C       -2.5409526151    2.6996517177    1.9592610737
C       -1.1621411678    0.8909242459    1.2047874817
C       -3.3288135863    1.6952236347    2.5578383777
C        0.6564076137    1.0214341590   -0.6721861215
C       -0.1712523312   -0.2234866485   -0.9077663855
C        0.0319657687    0.3009041166    0.5048615348
C       -0.4174372994   -2.7386147160   -0.9867659960
C       -5.2241082871    1.0581032017    3.8464959204
C        0.4510842531   -1.5289768658   -1.3564207161
N       -1.9547271416    0.0003213953    1.8072168491
N       -3.0373485462    0.3995263772    2.4873617412
N        0.9543553658   -0.4437607773    1.3444966649
O       -4.4286938905    2.0920221862    3.2370271716
H       -0.7628235945    2.9867643644    0.7857987044
H       -2.8186317770    3.7444328311    2.0598063549
H        1.7343687146    0.9248772361   -0.7619728939
H        0.2545502321    1.9781615329   -0.9928958413
H       -1.1698751713   -0.0418550898   -1.3025786746
H       -0.5695357293   -2.7941219474    0.0959406867
H        0.0472806789   -3.6749812852   -1.3143054449
H       -1.4074675516   -2.6743306432   -1.4528417478
H       -6.0467750605    1.5842336644    4.3317428482
H       -4.6372016511    0.4991870539    4.5798667683
H       -5.6015845319    0.3637383962    3.0915310028
H        0.5998685466   -1.4951518258   -2.4438229450
H        1.4392344543   -1.6286061530   -0.8991444656
H        1.3693937994    0.1860503374    2.0308961133
H        0.4224380006   -1.1379687291    1.8697188172
29   
torsion grid (-45,)
C       -1.5530289750    2.2280583177    1.0728465154
C       -2.6918187491    2.6473843936    1.7233676425
C       -1.1415163498    0.8859315807    1.2342791764
C       -3.3621846811    1.6857399106    2.5068875603
C        0.7833499600    1.0161284373   -0.5468307645
C       -0.1018449512   -0.1603103765   -0.8862536337
C        0.0640386468    0.2817813660    0.5659763742
C       -0.4899455800   -2.6503483735   -1.0887732834
C       -5.1613972920    1.0897273184    3.9437095421
C        0.4612733042   -1.4798237578   -1.3698411675
N       -1.8302866758    0.0373085525    2.0025100364
N       -2.9382272232    0.4335498430    2.6425093321
N        0.9101391097   -0.5513243980    1.3998053954
O       -4.4866033588    2.0804171588    3.1463966618
H       -0.9792603994    2.9164348081    0.4610886439
H       -3.0729262285    3.6619969666    1.6597398442
H        1.8564363013    0.8538177923   -0.5851413038
H        0.4663205072    2.0118350483   -0.8408000440
H       -1.0683006742    0.1024786789   -1.3148340027
H       -0.6826325438   -2.7463069339   -0.0153508385
H       -0.0693602509   -3.5971810620   -1.4444966034
H       -1.4565347160   -2.5058766180   -1.5854553787
H       -6.0264942657    1.6053241729    4.3618501203
H       -4.5086236347    0.7227206453    4.7399059293
H       -5.4768649387    0.2446178528    3.3264762716
H        0.6565531283   -1.4073593587   -2.4480317220
H        1.4215826193   -1.6576500254   -0.8785620320
H        1.3590485911    0.0332311443    2.1046951250
H        0.3119601611   -1.2030494101    1.9078557285
29   
torsion grid (-30,)
C       -1.7143398005    2.1013008740    0.8773975072
C       -2.8667277247    2.5287698418    1.4940052749
C       -1.1697453576    0.8506012643    1.2567012981
C       -3.4240041371    1.6678588350    2.4634594072
C        0.8623714075    1.0108577643   -0.3957913359
C       -0.0452482193   -0.0981529414   -0.8656298055
C        0.0507886664    0.2385242169    0.6261908240
C       -0.5035219469   -2.5577768171   -1.2318372556
C       -5.1188169328    1.1886079980    4.0609908531
C        0.4957576607   -1.4063956666   -1.4018281824
N       -1.7631554683    0.0926708063    2.1815418630
N       -2.8882260176    0.4985209561    2.7892745031
N        0.8228182452   -0.6710292186    1.4480664039
O       -4.5585050544    2.0766337516    3.0763234607
H       -1.2339110907    2.7168204431    0.1240615278
H       -3.3432793149    3.4777150922    1.2680440837
H        1.9277905000    0.8006686968   -0.3814049852
H        0.6114073080    2.0411137682   -0.6278244324
H       -0.9756560706    0.2302749456   -1.3278615077
H       -0.7320983486   -2.7196163017   -0.1734639768
H       -0.1038433950   -3.4930352226   -1.6385323463
H       -1.4477664413   -2.3457785310   -1.7471025654
H       -6.0111989679    1.6981745364    4.4257981358
H       -4.4110243632    1.0180300083    4.8762970331
H       -5.3798936632    0.2269868904    3.6116506411
H        0.7422331608   -1.2779562201   -2.4642043731
H        1.4258821107   -1.6457283272   -0.8797223931
H        1.2984625097   -0.1327544483    2.1720398194
H        0.1721831657   -1.2828805871    1.9407696042
29   
torsion grid (-15,)
C       -1.8634900189    1.9166435886    0.7323916707
C       -3.0112904439    2.3678814130    1.3360657198
C       -1.2113055493    0.7820422476    1.2807640647
C       -3.4586673380    1.6480808367    2.4665754179
C        0.8981433203    1.0031983375   -0.2436573494
C        0.0134078390   -0.0626291429   -0.8339810626
C        0.0245469928    0.1733333632    0.6821336035
C       -0.4298910982   -2.4905399280   -1.3871603637
C       -5.0382134290    1.3420292768    4.2167823246
C        0.5810903132   -1.3376290475   -1.4209469350
N       -1.7034631057    0.1545908126    2.3492638245
N       -2.8284242695    0.5859929377    2.9460402750
N        0.7403923421   -0.7956765458    1.4826185830
O       -4.5890198686    2.0845571449    3.0684194360
H       -1.4687270986    2.4232286300   -0.1426200280
H       -3.5670202953    3.2314072040    0.9837803651
H        1.9603224281    0.7843146305   -0.1849216110
H        0.6611649926    2.0508780276   -0.4034868458
H       -0.8888280982    0.2968049527   -1.3277663398
H       -0.7207776860   -2.7208584200   -0.3569718468
H       -0.0092056366   -3.3998786328   -1.8296940315
H       -1.3411482293   -2.2393486085   -1.9426871487
H       -5.9457909039    1.8498854890    4.5446728381
H       -4.2820414131    1.3544223774    5.0060246532
H       -5.2520659508    0.3043773541    3.9477709861
H        0.8912262508   -1.1416698775   -2.4559548009
H        1.4772190055   -1.6174261411   -0.8611813280
H        1.1757698246   -0.3092400891    2.2663868799
H        0.0590668693   -1.4235654070    1.9088319883
29   
torsion grid (0,)
C       -2.0310347055    1.7234532695    0.6136128613
C       -3.1628138848    2.2096048528    1.2187990525
C       -1.2949802809    0.7033665210    1.2727102865
C       -3.5067046971    1.6448172527    2.4680365414
C        0.8851211353    0.9946187650   -0.1101899722
C        0.0547793268   -0.0412443781   -0.8190119254
C       -0.0422682251    0.1013585681    0.7035110839
C       -0.3100973993   -2.4367483908   -1.5531189318
C       -4.9629855783    1.5366373076    4.3438223790
C        0.6817052459   -1.2721605770   -1.4408177048
N       -1.6838447245    0.2282909342    2.4558107351
N       -2.7941051072    0.6960695157    3.0557989772
N        0.6172506351   -0.9236738992    1.4804068393
O       -4.6221230324    2.1164745808    3.0713148661
H       -1.7112210279    2.1170702206   -0.3461808796
H       -3.7804755351    2.9890338516    0.7833739591
H        1.9448616959    0.7873274657    0.0057607014
H        0.6318508421    2.0461627781   -0.2118863796
H       -0.8107703361    0.3352766148   -1.3621612575
H       -0.6650468986   -2.7429051684   -0.5634072341
H        0.1537505177   -3.3082686668   -2.0274151125
H       -1.1868252118   -2.1590581366   -2.1500999984
H       -5.8764203349    2.0466539345    4.6515118117
H       -4.1641971335    1.7023754857    5.0713617096
H       -5.1350539526    0.4616258277    4.2459683101
H        1.0589496817   -1.0070170511   -2.4373467968
H        1.5417250100   -1.5769371837   -0.8394313001
H        0.9262931539   -0.5112494298    2.3607421548
H       -0.0777903166   -1.6172975731    1.7557520245
29   
torsion grid (15,)
C       -2.2047570038    1.5099641362    0.5358218352
C       -3.3181193211    2.0263979702    1.1517486413
C       -1.3718760528    0.6265921236    1.2704069520
C       -3.5418860192    1.6344583498    2.4903546202
C        0.8749557820    0.9759803871    0.0296140183
C        0.1008361339   -0.0197800263   -0.7930274281
C       -0.1047599713    0.0313729367    0.7197408182
C       -0.1956109648   -2.3642187807   -1.7071865104
C       -4.8533236347    1.7340857160    4.4708341632
C        0.7792966584   -1.2101494043   -1.4412746266
N       -1.6457236394    0.3195381157    2.5391411432
N       -2.7345384409    0.8177862234    3.1510600178
N        0.4977750206   -1.0490366599    1.4692790602
O       -4.6381240028    2.1347775561    3.1051549660
H       -1.9751839543    1.7777087462   -0.4903681498
H       -4.0074384800    2.7049398636    0.6587410746
H        1.9259979349    0.7691069742    0.2086133787
H        0.6108825545    2.0283461564   -0.0267406055
H       -0.7154496953    0.3879561302   -1.3860440546
H       -0.6276473542   -2.7360472191   -0.7718842079
H        0.3077218237   -3.2032787579   -2.1993904776
H       -1.0237250169   -2.0473655807   -2.3522365965
H       -5.7722503298    2.2381275705    4.7719226730
H       -4.0172409262    2.0455599687    5.1022871008
H       -4.9664175469    0.6492644626    4.5429313239
H        1.2302676680   -0.8814122326   -2.3867874006
H        1.5925362443   -1.5539166061   -0.7975927046
H        0.6581677873   -0.7243892309    2.4227778445
H       -0.1871865238   -1.7986520415    1.5661314831
29   
torsion grid (30,)
C       -2.7437197624    0.5273948078    0.6792197980
C       -3.7299424400    1.0988826540    1.4485928464
C       -1.3926571495    0.8248862559    0.9808880417
C       -3.3073809612    1.9531954931    2.4889442534
C       -0.0663538732    0.7836110948   -1.2414802443
C       -0.4225743536   -0.6553600478   -0.9651668852
C       -0.2140491213    0.3035130820    0.1991942952
C        0.2557338138   -3.0268373918   -0.3857225669
C       -3.8237428248    3.3939062001    4.3088517235
C        0.5603603321   -1.7796960229   -1.2255345079
N       -1.0773121343    1.6469772780    1.9846978713
N       -2.0305449726    2.2103856418    2.7423410428
N        1.0307181216    0.1546324449    0.9256159615
O       -4.2677734505    2.5238333000    3.2514370252
H       -3.0036002436   -0.1432934978   -0.1325796499
H       -4.7878632609    0.9151152178    1.2882732228
H        0.9489308316    0.9999028116   -1.5611191692
H       -0.8318239881    1.4452177081   -1.6368914626
H       -1.4540982521   -0.9288304439   -1.1755342219
H        0.3231743269   -2.8053779084    0.6851106217
H        0.9615487653   -3.8353467751   -0.6043003978
H       -0.7547313173   -3.4044861646   -0.5827433147
H       -4.7378205983    3.7417896117    4.7910702445
H       -3.2557095533    4.2359378944    3.9050547010
H       -3.1950918191    2.8507076484    5.0191472058
H        0.5248687272   -2.0348783746   -2.2926702722
H        1.5722844896   -1.4274878511   -1.0112777268
H        1.2330842942    1.0426561941    1.3847729450
H        0.8911152271   -0.5130543341    1.6841858463
29   
torsion grid (45,)
C       -2.6566890604    0.2901292053    0.9170078240
C       -3.6548810713    0.8423006711    1.6880043506
C       -1.3446418685    0.7989359934    1.0472590754
C       -3.2764513846    1.8862207624    2.5567476134
C        0.0725087382    0.8644533551   -1.1202274004
C       -0.3602503327   -0.5742535846   -0.9640886759
C       -0.1576105386    0.2899762165    0.2696422383
C        0.1834068733   -3.0091330258   -0.5268952191
C       -3.8464886564    3.5061334060    4.2023478299
C        0.5774053514   -1.7250839943   -1.2683672779
N       -1.0654245444    1.7822526962    1.9073070882
N       -2.0274990188    2.3279880660    2.6630815961
N        1.0536397685    0.0549418775    1.0338642989
O       -4.2465326136    2.4451795079    3.3151467258
H       -2.8710317596   -0.5273625964    0.2367051342
H       -4.6862463786    0.5046717826    1.6558259683
H        1.1090857655    1.0541383708   -1.3836410058
H       -0.6452677068    1.5856078673   -1.5000343914
H       -1.3951543357   -0.7709127939   -1.2370945947
H        0.2173163033   -2.8612901245    0.5582653776
H        0.8600456785   -3.8346726871   -0.7725360603
H       -0.8341963332   -3.3246458957   -0.7870611042
H       -4.7626787668    3.8107697698    4.7091672414
H       -3.4201661728    4.3411595275    3.6405291199
H       -3.1064381524    3.1498418956    4.9235305504
H        0.5724470709   -1.9068252198   -2.3509149899
H        1.5956815250   -1.4380199398   -0.9942063154
H        1.2862809661    0.9197183378    1.5224236735
H        0.8631552984   -0.6344865234    1.7611423252
29   
torsion grid (60,)
C       -2.5402705125    0.1122644844    1.1048763254
C       -3.5518745911    0.6406338071    1.8756367515
C       -1.3013581271    0.7896420455    1.0650094921
C       -3.2552491323    1.8304198786    2.5718773170
C        0.1899083680    0.9175781715   -1.0510519845
C       -0.3237706851   -0.5035054573   -0.9851912619
C       -0.1093822177    0.2862332195    0.2942823053
C        0.0727729265   -2.9825261065   -0.6631972917
C       -3.9237467890    3.5795706263    4.0390753232
C        0.5562677455   -1.6873593953   -1.3286808952
N       -1.0935332489    1.9064217874    1.7667493063
N       -2.0690185584    2.4294179101    2.5218971040
N        1.0631758256   -0.0440383708    1.0860141273
O       -4.2389117938    2.3678512472    3.3280806753
H       -2.6814213151   -0.8085757516    0.5473336063
H       -4.5326690230    0.1840205902    1.9669720390
H        1.2422473686    1.0601869358   -1.2794463115
H       -0.4747239485    1.6976173523   -1.4098011950
H       -1.3643653059   -0.6235978860   -1.2835488719
H        0.0855305257   -2.8895455542    0.4286634836
H        0.7092840144   -3.8321531281   -0.9328835553
H       -0.9530672668   -3.2274513714   -0.9642824689
H       -4.8380913370    3.8387506248    4.5737530382
H       -3.6441201210    4.3752330724    3.3438759584
H       -3.1005093922    3.4152164520    4.7390305751
H        0.5717173336   -1.8144962093   -2.4188036902
H        1.5811406732   -1.4724786954   -1.0148106302
H        1.3485565471    0.7948786271    1.5915442292
H        0.8152300828   -0.7358778863    1.7932360283
29   
torsion grid (75,)
C       -2.4117111473    0.0017234263    1.3356021942
C       -3.4264933036    0.5125111764    2.1126005931
C       -1.2604548530    0.7944608189    1.1259241540
C       -3.2197072179    1.8044640586    2.6410252073
C        0.2706292849    0.9670078113   -0.9581580072
C       -0.3233596422   -0.4257384550   -0.9709966953
C       -0.0768531000    0.2889497105    0.3465947794
C       -0.0641101726   -2.9356465409   -0.7715764128
C       -3.9894112852    3.6447036572    3.9371994100
C        0.4923971761   -1.6372750721   -1.3706517080
N       -1.1363107279    2.0083676605    1.6650794197
N       -2.1174962898    2.5160147112    2.4263125037
N        1.0597700837   -0.1518795643    1.1388914138
O       -4.2072986280    2.3251222319    3.4036616834
H       -2.4820119500   -0.9858650691    0.8883155008
H       -4.3458026667   -0.0246403984    2.3251791054
H        1.3306989179    1.0583976748   -1.1766892751
H       -0.3436582209    1.8031613767   -1.2771652539
H       -1.3698356450   -0.4719348941   -1.2716291309
H       -0.0488937728   -2.8987557832    0.3237737636
H        0.5250262794   -3.8049276089   -1.0831127473
H       -1.1009787697   -3.1075770150   -1.0851783736
H       -4.8905953913    3.8702974598    4.5082177562
H       -3.8507157332    4.3701602200    3.1315859007
H       -3.1083204884    3.6606625061    4.5837301117
H        0.5069823260   -1.7116633964   -2.4656525414
H        1.5260825418   -1.4950905360   -1.0441234962
H        1.4031829689    0.6425714681    1.6788956061
H        0.7619100457   -0.8571086478    1.8126949925
29   
torsion grid (90,)
C       -2.2962040420   -0.0473766543    1.5728132838
C       -3.3145398860    0.4571060414    2.3469753760
C       -1.2437054104    0.8194117815    1.1942515532
C       -3.2136385260    1.8209353713    2.6997967973
C        0.3293966665    1.0240992252   -0.8547327714
C       -0.3364712059   -0.3335830473   -0.9431370108
C       -0.0679266331    0.3060004874    0.4099342610
C       -0.2007550098   -2.8594911417   -0.8499688985
C       -4.1005062588    3.7278524838    3.8109492127
C        0.4207070152   -1.5655975646   -1.3922665312
N       -1.2220850552    2.1003944136    1.5610878698
N       -2.2109633692    2.6042309425    2.3187638340
N        1.0282429353   -0.2401736553    1.1951965330
O       -4.2047292591    2.3345503702    3.4625436371
H       -2.2915679906   -1.0832810725    1.2434420949
H       -4.1639550465   -0.1323708790    2.6784178271
H        1.3946245390    1.0679062717   -1.0624779281
H       -0.2350148788    1.9081930542   -1.1325552711
H       -1.3826478060   -0.3126612178   -1.2482539991
H       -0.1795486641   -2.8734436767    0.2459373063
H        0.3415822145   -3.7432267670   -1.2031514569
H       -1.2460631761   -2.9627527147   -1.1653372130
H       -4.9852900584    3.9347081215    4.4138168476
H       -4.0896459583    4.3515100387    2.9134885614
H       -3.1893964303    3.9166542564    4.3843505450
H        0.4352340071   -1.5941368250   -2.4894443364
H        1.4591233777   -1.4890101873   -1.0588093575
H        1.4225629429    0.5041640201    1.7704829890
H        0.6825165990   -0.9553979731    1.8345182319
29   
torsion grid (105,)
C       -2.1292472407   -0.1077559684    1.8023638671
C       -3.1515664353    0.3965531631    2.5685996525
C       -1.1888241120    0.7959861838    1.2485067125
C       -3.1719662318    1.8001470821    2.7365011419
C        0.4096031279    1.0417852850   -0.7750953687
C       -0.3183565690   -0.2753276791   -0.9410917542
C       -0.0268312756    0.2769869337    0.4478162872
C       -0.2966705841   -2.8077491394   -0.9809643152
C       -4.1921346266    3.7447258227    3.6496588840
C        0.3830037851   -1.5157412526   -1.4534915901
N       -1.2812707561    2.1095245195    1.4426356478
N       -2.2790357209    2.6156311133    2.1912787281
N        1.0354814123   -0.3686163085    1.2036325523
O       -4.1689945012    2.3135970869    3.4918089897
H       -2.0423438212   -1.1733093517    1.6038176772
H       -3.9201353745   -0.2202390851    3.0243230465
H        1.4766752981    1.0438802659   -0.9773499730
H       -0.1104497920    1.9660455639   -1.0019248389
H       -1.3620976017   -0.1899167254   -1.2428265999
H       -0.2749948728   -2.8833903194    0.1125315270
H        0.2047693992   -3.6944352636   -1.3837331685
H       -1.3459729664   -2.8454936622   -1.2969927522
H       -5.0594038334    3.9451022906    4.2795606538
H       -4.2954977957    4.2392308362    2.6804750776
H       -3.2756572094    4.0961068768    4.1304230596
H        0.3981940255   -1.4866239185   -2.5507061933
H        1.4234703925   -1.5039357807   -1.1177602174
H        1.4602325129    0.3134809531    1.8315228004
H        0.6592805940   -1.1156572030    1.7864062250
29   
torsion grid (120,)
C       -1.9628220624   -0.1327429722    2.0394797643
C       -2.9927189010    0.3836095418    2.7860056486
C       -1.1376399832    0.7612240580    1.3110852294
C       -3.1409444012    1.7896587558    2.7598725804
C        0.4886602462    1.0328797432   -0.6867742186
C       -0.3046485908   -0.2318823315   -0.9253416092
C        0.0087686832    0.2289025269    0.4960704592
C       -0.4172803572   -2.7571951819   -1.1024605943
C       -4.2986660301    3.7460377884    3.4567990714
C        0.3321466154   -1.4790367697   -1.5015607220
N       -1.3479992981    2.0751173715    1.3293522196
N       -2.3565267229    2.5934959249    2.0560145933
N        1.0351791487   -0.5112696437    1.2109693817
O       -4.1473132920    2.3146664697    3.4949293694
H       -1.7900911747   -1.2049672045    1.9881258752
H       -3.6767050270   -0.2278991111    3.3665072169
H        1.5558899167    0.9875733804   -0.8824787625
H        0.0174534052    1.9928186979   -0.8637127344
H       -1.3419608859   -0.0756920229   -1.2198031470
H       -0.4081350590   -2.8932973837   -0.0146262551
H        0.0399723605   -3.6457132974   -1.5511535290
H       -1.4649902225   -2.7221259435   -1.4234289248
H       -5.1507537141    3.9571750009    4.1036924340
H       -4.4934333794    4.0874834166    2.4369534595
H       -3.3981553311    4.2405684026    3.8297452741
H        0.3532359618   -1.3908357695   -2.5956159500
H        1.3707227998   -1.5401598249   -1.1652932017
H        1.4818801035    0.0996208353    1.8938308990
H        0.6349902746   -1.2951744121    1.7240477294
29   
torsion grid (135,)
C       -1.7776005429   -0.1126425027    2.2877779502
C       -2.8113472228    0.4171063835    3.0199817447
C       -1.0852366684    0.7298687706    1.3811387605
C       -3.1001756935    1.7834271194    2.8024145268
C        0.5689468554    1.0340685130   -0.5898786742
C       -0.2829278714   -0.1709831392   -0.9032392941
C        0.0438897829    0.1876506721    0.5482477277
C       -0.5274619416   -2.6730003192   -1.2277164791
C       -4.4019194553    3.7121361409    3.2900816023
C        0.2908307721   -1.4150468169   -1.5482396042
N       -1.4227235022    2.0091769483    1.2300680967
N       -2.4365360138    2.5387704681    1.9391732018
N        1.0361139161   -0.6379107787    1.2116897361
O       -4.1118772600    2.3211165301    3.5214443084
H       -1.5050366198   -1.1594215352    2.3907227793
H       -3.3962198873   -0.1591317471    3.7303518399
H        1.6345761105    0.9435224046   -0.7778085026
H        0.1437683172    2.0228852833   -0.7136497176
H       -1.3105341161    0.0545733592   -1.1851085445
H       -0.5345027066   -2.8731326125   -0.1498505244
H       -0.1145728841   -3.5564109013   -1.7267082370
H       -1.5696080772   -2.5633494096   -1.5495618990
H       -5.2338478070    3.9419189052    3.9565876736
H       -4.6839364771    3.8806111960    2.2475967090
H       -3.5341406068    4.3331272618    3.5267324533
H        0.3227987677   -1.2638686925   -2.6351763733
H        1.3232273006   -1.5496969670   -1.2141982941
H        1.4939020471   -0.1058775715    1.9501093417
H        0.6191640777   -1.4624378637    1.6390414967
29   
torsion grid (150,)
C       -1.6041826205   -0.0395493977    2.5187514863
C       -2.6343019168    0.5160595103    3.2393770694
C       -1.0594290845    0.6947559119    1.4359726098
C       -3.0692255025    1.7962439337    2.8332634875
C        0.6426350319    1.0143470601   -0.4905716712
C       -0.2597738734   -0.1248271091   -0.8805084804
C        0.0550355662    0.1338103508    0.5973339700
C       -0.6343705257   -2.5870516869   -1.3543314188
C       -4.5151671733    3.6629884463    3.1122932001
C        0.2590135147   -1.3607869095   -1.5847674219
N       -1.5253418489    1.9038372943    1.1197453601
N       -2.5358338889    2.4541082660    1.8128993085
N        0.9985687427   -0.7700619191    1.2224852885
O       -4.0797973994    2.3581759158    3.5361796428
H       -1.2200162640   -1.0223869206    2.7742150547
H       -3.1074645923    0.0191158138    4.0807880198
H        1.7068752149    0.8794195588   -0.6582732997
H        0.2627831410    2.0260191177   -0.5696797047
H       -1.2706981659    0.1696383361   -1.1575616380
H       -0.6832969863   -2.8452376727   -0.2899823898
H       -0.2566204549   -3.4633348164   -1.8922047058
H       -1.6597456406   -2.4016986702   -1.6944574461
H       -5.3212322428    3.9283412893    3.7971686767
H       -4.8779553072    3.6345522556    2.0815499457
H       -3.6975456135    4.3852956648    3.1797353357
H        0.3220700235   -1.1492059623   -2.6602371096
H        1.2758508764   -1.5711517065   -1.2419260586
H        1.4450740514   -0.3247822369    2.0220051596
H        0.5534204275   -1.6263820667    1.5454295479
29   
torsion grid (165,)
C       -1.4401483846    0.0602859774    2.7062948393
C       -2.4621672993    0.6445861423    3.4185502011
C       -1.0429089540    0.6525914870    1.4831722916
C       -3.0372327183    1.8059881998    2.8626341280
C        0.7112760697    0.9772216688   -0.3908482535
C       -0.2367993725   -0.0897563942   -0.8574767119
C        0.0541841617    0.0686133691    0.6394737211
C       -0.7241688540   -2.4991220672   -1.4752460644
C       -4.6167746019    3.5798269366    2.9755334475
C        0.2355624498   -1.3104127649   -1.6183654640
N       -1.6371513621    1.7591526323    1.0286659264
N       -2.6365783661    2.3340869519    1.7127977836
N        0.9365012552   -0.9142209664    1.2290157082
O       -4.0420342855    2.3937205995    3.5534085206
H       -0.9510273296   -0.8344464728    3.0778341671
H       -2.8261000878    0.2529600204    4.3635394223
H        1.7721697695    0.8019259334   -0.5427650962
H        0.3766763662    2.0080270357   -0.4205453018
H       -1.2250944453    0.2733879772   -1.1328245393
H       -0.8119494144   -2.8110264662   -0.4280215892
H       -0.3780257091   -3.3634654146   -2.0523259117
H       -1.7301122071   -2.2425553524   -1.8267673531
H       -5.3926048096    3.8886704925    3.6769312056
H       -5.0474713267    3.3637865309    1.9943335385
H       -3.8618893920    4.3627868326    2.8657977217
H        0.3337550423   -1.0427494068   -2.6786058036
H        1.2321260892   -1.5923664440   -1.2674785561
H        1.4179543923   -0.5320134099    2.0406776781
H        0.4358126204   -1.7515449340    1.5191627073
29   
torsion grid (180,)
C       -0.8945788995    1.2334859360    2.4959436598
C       -1.9058748556    1.5720238922    3.3663175581
C       -1.2374546114    0.8554324020    1.1758733183
C       -3.2209266060    1.5137636082    2.8623014436
C       -0.4636342609    0.8427490960   -1.2899173431
C       -0.5966385592   -0.5921912310   -0.8707287936
C       -0.1980551914    0.4655396076    0.1638836976
C        0.4468172986   -2.8412316786   -0.3489501664
C       -5.5630260851    1.7781993730    3.1779799180
C        0.3897057059   -1.6508712342   -1.3154365231
N       -2.5123731985    0.8289391580    0.7760554123
N       -3.5039256694    1.1568892957    1.6150978528
N        1.1934050044    0.4803563342    0.5544093778
O       -4.2263089615    1.8426008550    3.7070470319
H        0.1413149332    1.2587097002    2.8181020033
H       -1.7272893095    1.8735306551    4.3939597364
H        0.4146412578    1.1204310891   -1.8658409768
H       -1.3712753003    1.4025801067   -1.4899399656
H       -1.6225435199   -0.9312301381   -0.7474758165
H        0.7791645580   -2.5241943781    0.6461686283
H        1.1422061800   -3.6098990745   -0.7033889552
H       -0.5383698512   -3.3075054936   -0.2339279648
H       -6.2089976460    2.0751686051    4.0048988767
H       -5.8011132785    0.7637179600    2.8476536370
H       -5.6792476042    2.4617466955    2.3328839862
H        0.0953674869   -2.0015742247   -2.3133579680
H        1.3831302602   -1.2047413277   -1.4135959543
H        1.5004397244    1.4195374403    0.7998168333
H        1.3686574561   -0.1325198537    1.3480134069
