32
1 1 C11H18NO2
C                     2.141183463302    -2.835259071577    -3.627704251768
C                     0.405089922655    -1.392766790141    -4.469968190736
C                     2.618022719457    -3.043469015176    -4.928199565291
C                     0.863487786943    -1.588776621942    -5.765284997243
C                     1.034174986350    -2.014748316546    -3.372840605914
C                     1.974731205611    -2.421252243042    -6.009317734997
C                    -1.335422808630    -2.633763354885    -0.325914089721
C                     0.490369057990    -1.844324012378    -1.970913202620
C                     3.565603364015    -3.417525790112    -9.151297453651
C                     3.470175133665    -3.388378672306    -7.635403297663
C                    -0.815570097295    -2.628268473981    -1.756112102856
N                    -0.562636773486    -4.069969958285    -2.212579375219
O                     2.440355752018    -4.053982948531    -9.742339988838
O                     2.346366253960    -2.545884588876    -7.304174686507
H                     2.676326840099    -3.296876603476    -2.799036759212
H                    -0.441326686849    -0.728376721609    -4.306008468835
H                     3.489939034632    -3.668476503875    -5.079635467110
H                     0.388479700900    -1.097057087835    -6.608805224077
H                    -0.588519296536    -3.030464083049     0.370269088506
H                    -1.553275112439    -1.606125723252    -0.024943884389
H                    -2.260066219366    -3.210354605501    -0.222588037670
H                     0.264027391736    -0.794892963464    -1.756729790247
H                     1.230333924413    -2.161665833461    -1.226514831316
H                     4.442177883298    -4.005967953777    -9.435029997101
H                     3.701898241104    -2.396995632847    -9.533422249552
H                     4.385080196736    -2.976446869325    -7.191114821841
H                     3.293489276650    -4.400469352661    -7.253748453459
H                    -1.578712777375    -2.263205859507    -2.448272872811
H                    -1.430300027918    -4.609729051552    -2.306846802440
H                     0.045603888754    -4.565292718229    -1.549606898349
H                    -0.070505883474    -4.047007895468    -3.123235166456
H                     1.670924605138    -3.476956243280    -9.615813252091
