
  -OEChem-05262117483D

 34 36  0     0  0  0  0  0  0999 V2000
   -2.8236   -1.9404   -1.2489 C   0  0  0  0  0  0  0  0  0  0  0  0
   -1.8744   -2.1821    0.9414 C   0  0  0  0  0  0  0  0  0  0  0  0
   -2.0153   -0.8090   -1.4314 C   0  0  0  0  0  0  0  0  0  0  0  0
   -2.7502   -2.6432   -0.0513 C   0  0  0  0  0  0  0  0  0  0  0  0
   -1.1515   -0.4213   -0.3837 C   0  0  0  0  0  0  0  0  0  0  0  0
   -1.2584    2.5685   -4.6171 C   0  0  0  0  0  0  0  0  0  0  0  0
   -2.0651    3.6079   -3.8676 C   0  0  0  0  0  0  0  0  0  0  0  0
    1.2199    0.5654   -0.3085 C   0  0  0  0  0  0  0  0  0  0  0  0
    0.6434    1.1145   -1.5937 C   0  0  0  0  0  0  0  0  0  0  0  0
   -2.4810    2.1618   -3.8399 C   0  0  0  0  0  0  0  0  0  0  0  0
   -0.2643    0.8012   -0.3934 C   0  0  0  0  0  0  0  0  0  0  0  0
   -0.8117    1.9569    0.4415 C   0  0  0  0  0  0  0  0  0  0  0  0
   -2.1093   -0.0938   -2.7576 C   0  0  0  0  0  0  0  0  0  0  0  0
   -1.1111   -1.1049    0.7717 N   0  0  0  0  0  0  0  0  0  0  0  0
   -2.2947    1.3999   -2.5782 N   0  3  0  0  0  0  0  0  0  0  0  0
   -3.7245   -4.0543    0.2181 Cl  0  0  0  0  0  0  0  0  0  0  0  0
   -3.4990   -2.2764   -2.0312 H   0  0  0  0  0  0  0  0  0  0  0  0
   -1.7958   -2.7036    1.8930 H   0  0  0  0  0  0  0  0  0  0  0  0
   -1.3275    2.5263   -5.6987 H   0  0  0  0  0  0  0  0  0  0  0  0
   -0.2833    2.3065   -4.2175 H   0  0  0  0  0  0  0  0  0  0  0  0
   -1.6259    4.0333   -2.9693 H   0  0  0  0  0  0  0  0  0  0  0  0
   -2.6970    4.2911   -4.4246 H   0  0  0  0  0  0  0  0  0  0  0  0
    1.5671   -0.4620   -0.3184 H   0  0  0  0  0  0  0  0  0  0  0  0
    1.7969    1.2344    0.3216 H   0  0  0  0  0  0  0  0  0  0  0  0
    0.8476    2.1578   -1.8277 H   0  0  0  0  0  0  0  0  0  0  0  0
    0.6612    0.4453   -2.4493 H   0  0  0  0  0  0  0  0  0  0  0  0
   -3.3763    1.8436   -4.3633 H   0  0  0  0  0  0  0  0  0  0  0  0
   -0.1275    2.8104    0.4258 H   0  0  0  0  0  0  0  0  0  0  0  0
   -0.9312    1.6333    1.4788 H   0  0  0  0  0  0  0  0  0  0  0  0
   -1.7953    2.3072    0.0990 H   0  0  0  0  0  0  0  0  0  0  0  0
   -1.2169   -0.2059   -3.3749 H   0  0  0  0  0  0  0  0  0  0  0  0
   -2.9653   -0.4490   -3.3332 H   0  0  0  0  0  0  0  0  0  0  0  0
   -1.4548    1.7325   -2.0782 H   0  0  0  0  0  0  0  0  0  0  0  0
   -3.0881    1.5660   -1.9473 H   0  0  0  0  0  0  0  0  0  0  0  0
  1  3  1  0  0  0  0
  1  4  2  0  0  0  0
  1 17  1  0  0  0  0
  2  4  1  0  0  0  0
  2 14  2  0  0  0  0
  2 18  1  0  0  0  0
  3  5  2  0  0  0  0
  3 13  1  0  0  0  0
  4 16  1  0  0  0  0
  5 11  1  0  0  0  0
  5 14  1  0  0  0  0
  6  7  1  0  0  0  0
  6 10  1  0  0  0  0
  6 19  1  0  0  0  0
  6 20  1  0  0  0  0
  7 10  1  0  0  0  0
  7 21  1  0  0  0  0
  7 22  1  0  0  0  0
  8  9  1  0  0  0  0
  8 11  1  0  0  0  0
  8 23  1  0  0  0  0
  8 24  1  0  0  0  0
  9 11  1  0  0  0  0
  9 25  1  0  0  0  0
  9 26  1  0  0  0  0
 10 15  1  0  0  0  0
 10 27  1  0  0  0  0
 11 12  1  0  0  0  0
 12 28  1  0  0  0  0
 12 29  1  0  0  0  0
 12 30  1  0  0  0  0
 13 15  1  0  0  0  0
 13 31  1  0  0  0  0
 13 32  1  0  0  0  0
 15 33  1  0  0  0  0
 15 34  1  0  0  0  0
M  CHG  1  15   1
M  END
$$$$
