
  -OEChem-05262117483D

 31 31  0     1  0  0  0  0  0999 V2000
   -1.0995    2.3178    2.9039 C   0  0  0  0  0  0  0  0  0  0  0  0
    0.3123    1.5693    4.6908 C   0  0  0  0  0  0  0  0  0  0  0  0
   -2.1144    2.6037    3.8113 C   0  0  0  0  0  0  0  0  0  0  0  0
   -0.6960    1.8496    5.6230 C   0  0  0  0  0  0  0  0  0  0  0  0
    0.1365    1.7934    3.3227 C   0  0  0  0  0  0  0  0  0  0  0  0
   -1.9196    2.3692    5.1822 C   0  0  0  0  0  0  0  0  0  0  0  0
    0.9228   -1.0791    2.4756 C   0  0  0  0  0  0  0  0  0  0  0  0
    1.2115    1.4476    2.3197 C   0  0  0  0  0  0  0  0  0  0  0  0
   -4.0808    2.9536    8.0930 C   0  0  0  0  0  0  0  0  0  0  0  0
   -2.8153    2.4933    7.4012 C   0  0  0  0  0  0  0  0  0  0  0  0
    0.9416    0.1380    1.5508 C   0  0  1  0  0  0  0  0  0  0  0  0
    2.0133   -0.0366    0.5524 N   0  0  0  0  0  0  0  0  0  0  0  0
   -4.1182    4.3807    8.0758 O   0  0  0  0  0  0  0  0  0  0  0  0
   -2.9765    2.6774    5.9973 O   0  0  0  0  0  0  0  0  0  0  0  0
   -1.2669    2.5125    1.8461 H   0  0  0  0  0  0  0  0  0  0  0  0
    1.2571    1.1647    5.0474 H   0  0  0  0  0  0  0  0  0  0  0  0
   -3.0647    3.0167    3.4850 H   0  0  0  0  0  0  0  0  0  0  0  0
   -0.5113    1.6619    6.6747 H   0  0  0  0  0  0  0  0  0  0  0  0
    1.8903   -1.1870    2.9779 H   0  0  0  0  0  0  0  0  0  0  0  0
    0.7322   -1.9973    1.9071 H   0  0  0  0  0  0  0  0  0  0  0  0
    0.1403   -0.9841    3.2331 H   0  0  0  0  0  0  0  0  0  0  0  0
    1.3063    2.2616    1.5886 H   0  0  0  0  0  0  0  0  0  0  0  0
    2.1850    1.3557    2.8131 H   0  0  0  0  0  0  0  0  0  0  0  0
   -4.0667    2.5743    9.1262 H   0  0  0  0  0  0  0  0  0  0  0  0
   -4.9482    2.5209    7.5762 H   0  0  0  0  0  0  0  0  0  0  0  0
   -2.6402    1.4319    7.6265 H   0  0  0  0  0  0  0  0  0  0  0  0
   -1.9636    3.0786    7.7713 H   0  0  0  0  0  0  0  0  0  0  0  0
   -0.0548    0.2260    1.0834 H   0  0  0  0  0  0  0  0  0  0  0  0
    1.9858    0.7303   -0.1190 H   0  0  0  0  0  0  0  0  0  0  0  0
    1.8487   -0.8903    0.0201 H   0  0  0  0  0  0  0  0  0  0  0  0
   -5.0066    4.6688    8.3333 H   0  0  0  0  0  0  0  0  0  0  0  0
  1  3  1  0  0  0  0
  1  5  2  0  0  0  0
  1 15  1  0  0  0  0
  2  4  2  0  0  0  0
  2  5  1  0  0  0  0
  2 16  1  0  0  0  0
  3  6  2  0  0  0  0
  3 17  1  0  0  0  0
  4  6  1  0  0  0  0
  4 18  1  0  0  0  0
  5  8  1  0  0  0  0
  6 14  1  0  0  0  0
  7 11  1  0  0  0  0
  7 19  1  0  0  0  0
  7 20  1  0  0  0  0
  7 21  1  0  0  0  0
  8 11  1  0  0  0  0
  8 22  1  0  0  0  0
  8 23  1  0  0  0  0
  9 10  1  0  0  0  0
  9 13  1  0  0  0  0
  9 24  1  0  0  0  0
  9 25  1  0  0  0  0
 10 14  1  0  0  0  0
 10 26  1  0  0  0  0
 10 27  1  0  0  0  0
 11 12  1  0  0  0  0
 11 28  1  0  0  0  0
 12 29  1  0  0  0  0
 12 30  1  0  0  0  0
 13 31  1  0  0  0  0
M  END
$$$$
