31
0 1 C11H17NO2
C                    -1.160532576893     2.755353111678     2.604756151534
C                    -0.023331581972     1.795378258412     4.486841196602
C                    -2.238858934638     3.116674310979     3.424019350123
C                    -1.083436928991     2.144851132340     5.317959494033
C                    -0.038236069781     2.092438442127     3.112195360360
C                    -2.201143088389     2.807930381295     4.788359264392
C                     2.193853153719    -0.221822498167     0.923733061889
C                     1.095961082455     1.657538289704     2.212733868505
C                    -5.316792610657     3.885857813508     6.382336587043
C                    -4.378485844342     3.760256290196     5.194168756926
C                     0.997825708497     0.178242474114     1.788755986628
N                    -0.241620578691    -0.020268270351     1.018381427909
O                    -5.693614765152     2.613922098793     6.899582634939
O                    -3.195760501293     3.119409844943     5.683538701884
H                    -1.201064138038     2.995829334067     1.545156629135
H                     0.837214847531     1.284396853757     4.914240029227
H                    -3.086453836577     3.633651573895     2.988293723585
H                    -1.063947909125     1.919780814334     6.380705292455
H                     2.220170660436     0.381242837411     0.010059436520
H                     2.132864781675    -1.276472239815     0.630278681103
H                     3.134972544535    -0.080229647015     1.465799563590
H                     1.110739922427     2.269108116903     1.304089104130
H                     2.053962729155     1.805908472146     2.724623589967
H                    -6.238913386004     4.381033890821     6.065323781891
H                    -4.842137723943     4.503987051530     7.158008754693
H                    -4.136427355634     4.750891993846     4.785443048161
H                    -4.840492289741     3.147182959414     4.410163344691
H                     1.017098829353    -0.431303980519     2.709793059965
H                    -1.045936738331     0.191221682937     1.607972207752
H                    -0.325923503783    -1.001424896712     0.755875685242
H                    -4.870170077037     2.134419123312     7.088848791120
