28
0 1 C11ClH13O3
C                     5.178939227307    -0.721359768294     1.285716177211
C                     5.654738946582    -0.416226875103     3.639087017614
C                     4.030967825115     0.070020940187     1.399500099179
C                     5.994134196169    -0.955875121620     2.394029245325
C                     3.673180428893     0.614088260921     2.649453009381
C                     4.495058090993     0.351434301010     3.754144520959
C                     3.244832426982     0.286323543243     0.122791830453
C                     1.904569308491     1.659715287706    -1.512101294206
C                     3.750692311714     2.731913196548    -0.122512255549
C                     1.362256062040     0.654338977136     3.126417061398
C                     2.643976210463     1.657295566701    -0.172285827885
O                     3.182799776631    -0.629954544186    -0.686368713713
O                     7.117109436555    -1.721250543230     2.205468217777
O                     2.550689110483     1.395619806738     2.802414047547
Cl                    4.067024594973     1.002066576997     5.323430265623
H                     5.438655242971    -1.152526035736     0.324835446645
H                     6.275103138095    -0.586814303438     4.515408674859
H                     2.589622371239     1.459969004414    -2.341340552154
H                     1.437719473419     2.636356709517    -1.677361786609
H                     1.125706789646     0.892969974467    -1.539884288415
H                     4.523952034546     2.530920462795    -0.872400279485
H                     4.227554698205     2.781324097282     0.859583993742
H                     3.320068943049     3.714739567512    -0.337618780523
H                     0.562995963101     1.389772885404     3.233344767629
H                     1.488553998436     0.108358088107     4.067376402566
H                     1.113705891900    -0.050501847180     2.323435005131
H                     1.942883558913     1.885274290282     0.635636827908
H                     7.588974977274    -1.818360673385     3.047710232934
