
  -OEChem-05262117483D

 57 60  0     0  0  0  0  0  0999 V2000
    4.6608   -2.6581    5.7338 C   0  0  0  0  0  0  0  0  0  0  0  0
   -2.5929   -7.8155    3.3248 C   0  0  0  0  0  0  0  0  0  0  0  0
    4.8507   -3.0735    4.4111 C   0  0  0  0  0  0  0  0  0  0  0  0
    3.5932   -3.1785    6.4720 C   0  0  0  0  0  0  0  0  0  0  0  0
   -2.4544   -6.7599    2.4157 C   0  0  0  0  0  0  0  0  0  0  0  0
   -1.4588   -8.5148    3.7481 C   0  0  0  0  0  0  0  0  0  0  0  0
    0.0842   -2.1064    2.3478 C   0  0  0  0  0  0  0  0  0  0  0  0
    0.8213   -2.7293    0.1571 C   0  0  0  0  0  0  0  0  0  0  0  0
    3.9831   -4.0030    3.8320 C   0  0  0  0  0  0  0  0  0  0  0  0
    2.7229   -4.1034    5.8868 C   0  0  0  0  0  0  0  0  0  0  0  0
   -1.1918   -6.4064    1.9343 C   0  0  0  0  0  0  0  0  0  0  0  0
   -0.1955   -8.1552    3.2661 C   0  0  0  0  0  0  0  0  0  0  0  0
    0.6009   -3.2970    2.8683 C   0  0  0  0  0  0  0  0  0  0  0  0
    1.3533   -3.9097    0.6663 C   0  0  0  0  0  0  0  0  0  0  0  0
    0.1759   -1.7981    0.9879 C   0  0  0  0  0  0  0  0  0  0  0  0
    2.9100   -4.5261    4.5648 C   0  0  0  0  0  0  0  0  0  0  0  0
   -0.0458   -7.1008    2.3557 C   0  0  0  0  0  0  0  0  0  0  0  0
    1.2458   -4.2237    2.0355 C   0  0  0  0  0  0  0  0  0  0  0  0
   -2.1739    0.4580   -0.2696 C   0  0  0  0  0  0  0  0  0  0  0  0
   -1.5458    0.1894    1.1242 C   0  0  0  0  0  0  0  0  0  0  0  0
   -1.1887   -0.5748   -0.8791 C   0  0  0  0  0  0  0  0  0  0  0  0
   -0.3225   -0.4880    0.4217 C   0  0  0  0  0  0  0  0  0  0  0  0
    1.9767   -5.5607    3.9647 C   0  0  0  0  0  0  0  0  0  0  0  0
    1.3324   -6.6719    1.8826 C   0  0  0  0  0  0  0  0  0  0  0  0
    0.8498    0.4968    0.2227 C   0  0  0  0  0  0  0  0  0  0  0  0
    1.6526    0.7908    1.4904 C   0  0  0  0  0  0  0  0  0  0  0  0
    1.8169   -5.4307    2.5186 N   0  0  0  0  0  0  0  0  0  0  0  0
    2.6936    1.7503    1.2648 O   0  0  0  0  0  0  0  0  0  0  0  0
    5.3332   -1.9308    6.1816 H   0  0  0  0  0  0  0  0  0  0  0  0
   -3.5763   -8.0917    3.6969 H   0  0  0  0  0  0  0  0  0  0  0  0
    5.6726   -2.6663    3.8273 H   0  0  0  0  0  0  0  0  0  0  0  0
    3.4325   -2.8582    7.4985 H   0  0  0  0  0  0  0  0  0  0  0  0
   -3.3324   -6.2136    2.0798 H   0  0  0  0  0  0  0  0  0  0  0  0
   -1.5567   -9.3382    4.4512 H   0  0  0  0  0  0  0  0  0  0  0  0
   -0.3969   -1.4070    3.0272 H   0  0  0  0  0  0  0  0  0  0  0  0
    0.9257   -2.5186   -0.9053 H   0  0  0  0  0  0  0  0  0  0  0  0
    4.1196   -4.3151    2.8010 H   0  0  0  0  0  0  0  0  0  0  0  0
    1.8851   -4.4943    6.4618 H   0  0  0  0  0  0  0  0  0  0  0  0
   -1.0929   -5.5832    1.2321 H   0  0  0  0  0  0  0  0  0  0  0  0
    0.6841   -8.7019    3.6012 H   0  0  0  0  0  0  0  0  0  0  0  0
    0.4980   -3.4896    3.9292 H   0  0  0  0  0  0  0  0  0  0  0  0
    1.8756   -4.5908    0.0000 H   0  0  0  0  0  0  0  0  0  0  0  0
   -1.9876    1.4751   -0.6256 H   0  0  0  0  0  0  0  0  0  0  0  0
   -3.2407    0.2453   -0.3776 H   0  0  0  0  0  0  0  0  0  0  0  0
   -1.3403    1.0569    1.7592 H   0  0  0  0  0  0  0  0  0  0  0  0
   -2.1335   -0.5317    1.6988 H   0  0  0  0  0  0  0  0  0  0  0  0
   -1.6452   -1.5625   -0.9908 H   0  0  0  0  0  0  0  0  0  0  0  0
   -0.6923   -0.3062   -1.8174 H   0  0  0  0  0  0  0  0  0  0  0  0
    2.4019   -6.5560    4.1405 H   0  0  0  0  0  0  0  0  0  0  0  0
    1.0154   -5.5494    4.5022 H   0  0  0  0  0  0  0  0  0  0  0  0
    2.0612   -7.4612    2.0949 H   0  0  0  0  0  0  0  0  0  0  0  0
    1.3282   -6.5248    0.8017 H   0  0  0  0  0  0  0  0  0  0  0  0
    0.4545    1.4422   -0.1776 H   0  0  0  0  0  0  0  0  0  0  0  0
    1.5336    0.0963   -0.5352 H   0  0  0  0  0  0  0  0  0  0  0  0
    0.9878    1.1272    2.2999 H   0  0  0  0  0  0  0  0  0  0  0  0
    2.1602   -0.1100    1.8394 H   0  0  0  0  0  0  0  0  0  0  0  0
    2.2798    2.5743    0.9639 H   0  0  0  0  0  0  0  0  0  0  0  0
  1  3  1  0  0  0  0
  1  4  2  0  0  0  0
  1 29  1  0  0  0  0
  2  5  1  0  0  0  0
  2  6  2  0  0  0  0
  2 30  1  0  0  0  0
  3  9  2  0  0  0  0
  3 31  1  0  0  0  0
  4 10  1  0  0  0  0
  4 32  1  0  0  0  0
  5 11  2  0  0  0  0
  5 33  1  0  0  0  0
  6 12  1  0  0  0  0
  6 34  1  0  0  0  0
  7 13  2  0  0  0  0
  7 15  1  0  0  0  0
  7 35  1  0  0  0  0
  8 14  1  0  0  0  0
  8 15  2  0  0  0  0
  8 36  1  0  0  0  0
  9 16  1  0  0  0  0
  9 37  1  0  0  0  0
 10 16  2  0  0  0  0
 10 38  1  0  0  0  0
 11 17  1  0  0  0  0
 11 39  1  0  0  0  0
 12 17  2  0  0  0  0
 12 40  1  0  0  0  0
 13 18  1  0  0  0  0
 13 41  1  0  0  0  0
 14 18  2  0  0  0  0
 14 42  1  0  0  0  0
 15 22  1  0  0  0  0
 16 23  1  0  0  0  0
 17 24  1  0  0  0  0
 18 27  1  0  0  0  0
 19 20  1  0  0  0  0
 19 21  1  0  0  0  0
 19 43  1  0  0  0  0
 19 44  1  0  0  0  0
 20 22  1  0  0  0  0
 20 45  1  0  0  0  0
 20 46  1  0  0  0  0
 21 22  1  0  0  0  0
 21 47  1  0  0  0  0
 21 48  1  0  0  0  0
 22 25  1  0  0  0  0
 23 27  1  0  0  0  0
 23 49  1  0  0  0  0
 23 50  1  0  0  0  0
 24 27  1  0  0  0  0
 24 51  1  0  0  0  0
 24 52  1  0  0  0  0
 25 26  1  0  0  0  0
 25 53  1  0  0  0  0
 25 54  1  0  0  0  0
 26 28  1  0  0  0  0
 26 55  1  0  0  0  0
 26 56  1  0  0  0  0
 28 57  1  0  0  0  0
M  END
$$$$
