34
1 1 C13ClH18N2
C                    -6.620781446290    -2.132370810624    -5.317683713329
C                    -6.450484737330    -4.268486211485    -4.236340717394
C                    -5.556868939120    -1.688959366653    -4.518827598857
C                    -7.080631902021    -3.436657472482    -5.172382605248
C                    -4.987227838487    -2.588657374261    -3.591104673094
C                    -3.093520035123     1.738438848753    -6.522609892486
C                    -1.792721603602     1.389061861736    -5.828583746405
C                    -3.729836226026    -0.994621021893    -1.879967627129
C                    -4.033117311194    -2.320012694399    -1.217991157021
C                    -3.103760413208     1.220158894423    -5.111002779654
C                    -3.801709476954    -2.289352674823    -2.705085113199
C                    -2.502213959102    -2.923586108893    -3.196870487535
C                    -5.108835158672    -0.257832335298    -4.689837215355
N                    -5.436812700841    -3.849575328402    -3.482290460691
N                    -3.606419283826    -0.156015628947    -4.863424035995
Cl                   -8.400428134079    -4.030339972230    -6.131094836398
H                    -7.091741644178    -1.470319615403    -6.039500383811
H                    -6.781145557214    -5.296169505819    -4.100783740883
H                    -3.350881905422     2.781877934151    -6.669242061173
H                    -3.430769158906     1.077676840345    -7.317319543672
H                    -1.267032787315     0.498457933830    -6.162693044834
H                    -1.144124749546     2.188240012292    -5.486239132926
H                    -4.549441849896    -0.282232627689    -1.914886057430
H                    -2.752481700881    -0.551909631745    -1.697183373185
H                    -3.264468240606    -2.774470728519    -0.601402359151
H                    -5.047979186766    -2.480180512329    -0.870471444428
H                    -3.362704465157     1.879766444537    -4.289761273230
H                    -1.674700983050    -2.698963114967    -2.517678639198
H                    -2.213301792071    -2.585498567321    -4.201935779491
H                    -2.620909201221    -4.009147118165    -3.246345995515
H                    -5.554410101335     0.194488066312    -5.576457407259
H                    -5.349976186391     0.370648746696    -3.830798977945
H                    -3.320544863865    -0.780313289918    -5.626366597130
H                    -3.185131585426    -0.539154524179    -4.001676829317
