33
0 1 C13ClH17N2
C                    -5.149588783741    -0.488144095365    -4.437350363650
C                    -7.066050503358    -1.827310965055    -4.986838618065
C                    -4.673486089346    -1.544180604104    -3.656013009994
C                    -6.355474858607    -0.633406615845    -5.114907006780
C                    -5.460925941054    -2.713186477621    -3.568817501725
C                    -2.587956256791    -1.315900969193    -6.281953162458
C                    -1.115512603441    -1.603822669947    -6.082120014727
C                    -5.143151088968    -5.254142638047    -3.263905614104
C                    -3.806260781973    -4.628763778074    -2.924463802214
C                    -1.928901797406    -1.016873341651    -4.953543872783
C                    -5.093203729545    -3.866892583829    -2.673163651572
C                    -5.574141262109    -3.689896909432    -1.238893905556
C                    -3.326318446530    -1.404021876110    -2.976559848659
N                    -6.629323943418    -2.832216101528    -4.223968686503
N                    -2.229626670891    -1.879784632357    -3.837334549335
Cl                   -6.976066866201     0.661302589388    -6.123873800600
H                    -4.578356732992     0.431305340504    -4.526073193769
H                    -8.010719233896    -1.969027241500    -5.508632187364
H                    -2.874720292436    -0.479923512610    -6.913208122598
H                    -3.264057980098    -2.163766095476    -6.304409427114
H                    -0.821050171820    -2.643875386329    -5.979984452648
H                    -0.388839583737    -0.964246752718    -6.574133443274
H                    -5.415980406960    -5.341704273446    -4.310657327673
H                    -5.516607808697    -6.055485239814    -2.632117714304
H                    -3.268527929413    -5.000206814472    -2.054956254076
H                    -3.172064363849    -4.291196941586    -3.737070729384
H                    -1.756910043880     0.041733190295    -4.729156050502
H                    -5.295457164501    -4.554351624850    -0.627045297219
H                    -6.664474523761    -3.589228724007    -1.211413320248
H                    -5.141793585378    -2.795583131773    -0.774281855073
H                    -3.190978194546    -0.348531901595    -2.682989853237
H                    -3.304953689248    -2.000422806815    -2.062779075489
H                    -1.394451457542    -1.998598669469    -3.267446486990
