
  -OEChem-05262117483D

 34 36  0     0  0  0  0  0  0999 V2000
   -2.7898   -2.7951   -1.7140 C   0  0  0  0  0  0  0  0  0  0  0  0
   -2.9299   -2.7891    0.6795 C   0  0  0  0  0  0  0  0  0  0  0  0
   -1.9579   -1.6690   -1.6216 C   0  0  0  0  0  0  0  0  0  0  0  0
   -3.2868   -3.3669   -0.5493 C   0  0  0  0  0  0  0  0  0  0  0  0
   -1.5816   -1.2017   -0.3467 C   0  0  0  0  0  0  0  0  0  0  0  0
   -4.3898    0.5854   -1.8504 C   0  0  0  0  0  0  0  0  0  0  0  0
   -4.8094    1.1262   -3.2001 C   0  0  0  0  0  0  0  0  0  0  0  0
    0.6283   -0.4337    0.6876 C   0  0  0  0  0  0  0  0  0  0  0  0
    0.7650   -0.1359   -0.7879 C   0  0  0  0  0  0  0  0  0  0  0  0
   -3.3632    0.8071   -2.9244 C   0  0  0  0  0  0  0  0  0  0  0  0
   -0.6015   -0.0831   -0.1176 C   0  0  0  0  0  0  0  0  0  0  0  0
   -1.2397    1.2723    0.1525 C   0  0  0  0  0  0  0  0  0  0  0  0
   -1.5360   -0.9863   -2.8929 C   0  0  0  0  0  0  0  0  0  0  0  0
   -2.0934   -1.7581    0.7661 N   0  0  0  0  0  0  0  0  0  0  0  0
   -2.7515   -0.3705   -3.6030 N   0  3  0  0  0  0  0  0  0  0  0  0
   -4.3227   -4.7610   -0.6043 Cl  0  0  0  0  0  0  0  0  0  0  0  0
   -3.0439   -3.2372   -2.6767 H   0  0  0  0  0  0  0  0  0  0  0  0
   -3.3256   -3.1904    1.6104 H   0  0  0  0  0  0  0  0  0  0  0  0
   -4.3534    1.2556   -0.9987 H   0  0  0  0  0  0  0  0  0  0  0  0
   -4.6663   -0.4348   -1.6038 H   0  0  0  0  0  0  0  0  0  0  0  0
   -5.3717    0.4663   -3.8560 H   0  0  0  0  0  0  0  0  0  0  0  0
   -5.0679    2.1753   -3.2961 H   0  0  0  0  0  0  0  0  0  0  0  0
    0.7474   -1.4634    1.0082 H   0  0  0  0  0  0  0  0  0  0  0  0
    0.9834    0.3038    1.4003 H   0  0  0  0  0  0  0  0  0  0  0  0
    1.2214    0.8041   -1.0870 H   0  0  0  0  0  0  0  0  0  0  0  0
    1.0050   -0.9773   -1.4335 H   0  0  0  0  0  0  0  0  0  0  0  0
   -2.6396    1.6090   -2.8312 H   0  0  0  0  0  0  0  0  0  0  0  0
   -0.4762    2.0143    0.4025 H   0  0  0  0  0  0  0  0  0  0  0  0
   -1.9336    1.2036    0.9959 H   0  0  0  0  0  0  0  0  0  0  0  0
   -1.7926    1.6476   -0.7157 H   0  0  0  0  0  0  0  0  0  0  0  0
   -0.8395   -0.1699   -2.7161 H   0  0  0  0  0  0  0  0  0  0  0  0
   -1.1002   -1.6821   -3.6158 H   0  0  0  0  0  0  0  0  0  0  0  0
   -3.4660   -1.0996   -3.7133 H   0  0  0  0  0  0  0  0  0  0  0  0
   -2.4775   -0.0957   -4.5548 H   0  0  0  0  0  0  0  0  0  0  0  0
  1  3  1  0  0  0  0
  1  4  2  0  0  0  0
  1 17  1  0  0  0  0
  2  4  1  0  0  0  0
  2 14  2  0  0  0  0
  2 18  1  0  0  0  0
  3  5  2  0  0  0  0
  3 13  1  0  0  0  0
  4 16  1  0  0  0  0
  5 11  1  0  0  0  0
  5 14  1  0  0  0  0
  6  7  1  0  0  0  0
  6 10  1  0  0  0  0
  6 19  1  0  0  0  0
  6 20  1  0  0  0  0
  7 10  1  0  0  0  0
  7 21  1  0  0  0  0
  7 22  1  0  0  0  0
  8  9  1  0  0  0  0
  8 11  1  0  0  0  0
  8 23  1  0  0  0  0
  8 24  1  0  0  0  0
  9 11  1  0  0  0  0
  9 25  1  0  0  0  0
  9 26  1  0  0  0  0
 10 15  1  0  0  0  0
 10 27  1  0  0  0  0
 11 12  1  0  0  0  0
 12 28  1  0  0  0  0
 12 29  1  0  0  0  0
 12 30  1  0  0  0  0
 13 15  1  0  0  0  0
 13 31  1  0  0  0  0
 13 32  1  0  0  0  0
 15 33  1  0  0  0  0
 15 34  1  0  0  0  0
M  CHG  1  15   1
M  END
$$$$
