57
0 1 C26H29NO
C                     0.085430157220    -4.964742903010     7.925645572779
C                     4.191507781627    -7.754710818982    -0.205955516388
C                     1.484896203846    -4.986663936668     7.884927254414
C                    -0.636256108122    -4.855175390972     6.733805718496
C                     3.216230176491    -8.596995977956     0.341903316727
C                     4.190618007189    -6.396242501580     0.122384681507
C                     0.180635752134    -1.373910475716     2.253939553790
C                    -0.188195937606    -2.718226763550     0.313471530091
C                     2.150099861172    -4.899413653265     6.659860310155
C                     0.033755113580    -4.765632156257     5.508342071250
C                     2.252002871035    -8.078878274650     1.209474695412
C                     3.221221211897    -5.880168094362     0.989967299916
C                     0.721339823605    -2.468576148234     2.925798196636
C                     0.364500691778    -3.824097154951     0.961340871318
C                    -0.290495168905    -1.469066290930     0.936870171899
C                     1.431891962305    -4.785482186107     5.460679275681
C                     2.243318273950    -6.715937663679     1.540030097904
C                     0.831557953732    -3.724691813897     2.288914193295
C                    -2.726649835966     0.708399477557    -0.294876025945
C                    -1.873905357128     0.613694304363     0.998389213433
C                    -1.910070375476    -0.472752251220    -0.884065414291
C                    -0.824317444213    -0.248707790864     0.220658985650
C                     2.187539984927    -4.674358877194     4.141748190153
C                     1.167733461623    -6.178406946229     2.476849442332
C                     0.329819692708     0.643481456714    -0.280572609362
C                     1.316698238163    -0.069775296126    -1.194391472708
N                     1.377265062348    -4.824597764288     2.949336782149
O                     2.221021381595     0.918797727676    -1.711616914444
H                    -0.435056857671    -5.034713687781     8.877336426693
H                     4.944690833301    -8.155727024341    -0.879328188151
H                     2.055472291816    -5.076078835326     8.806057325354
H                    -1.723134345307    -4.837150689117     6.755722719824
H                     3.210867208882    -9.656111858844     0.096367556942
H                     4.944403463616    -5.734736522931    -0.297657312572
H                     0.108814926793    -0.424107567336     2.780127304811
H                    -0.528060906052    -2.836979199142    -0.712613850154
H                     3.238527227599    -4.922940438126     6.634564708133
H                    -0.529412996160    -4.677173237396     4.584029888406
H                     1.499909718036    -8.740511414583     1.636654416920
H                     3.220515712839    -4.823573801093     1.240855740105
H                     1.026243159723    -2.352014929636     3.960415464006
H                     0.459280923467    -4.757625011837     0.416814478770
H                    -2.562043972815     1.643340195261    -0.837315073694
H                    -3.803908922653     0.555904374633    -0.187427424127
H                    -1.511935032018     1.551367423303     1.432685685786
H                    -2.372342404333     0.030810713370     1.778189587756
H                    -2.429566844713    -1.426298924320    -0.754931273258
H                    -1.585901559822    -0.387962964645    -1.925981691722
H                     2.712009053036    -3.713691389169     4.099044843402
H                     2.973377900800    -5.439038785321     4.117505708990
H                     0.190538266445    -6.238404254026     1.985481101972
H                     1.097660254603    -6.836458286711     3.351393418697
H                     0.878045224462     1.042081274885     0.581460199548
H                    -0.078064788338     1.504582829065    -0.823893705562
H                     1.861334371481    -0.840280678035    -0.634278721055
H                     0.782383891550    -0.568020775889    -2.017420661460
H                     2.894775066241     0.461972419304    -2.238022670600
