25   
torsion grid (-165,)
C        1.1610574958   -3.9939651323    2.2500425189
C        0.4610787687   -4.0449034708    1.0397540241
C        1.4585075945   -2.7513123551    2.8191162573
C        0.0639677504   -2.8629893004    0.4073630038
C        1.0603918370   -1.5725222897    2.1808694391
C        0.3593969182   -1.6107633333    0.9665470356
C        0.5251659308    1.1673683688   -1.1428235944
C       -0.0555643411   -0.2689608446   -1.2551395804
C        0.8741964782    0.8752863207    0.3434441746
C       -0.1143716543   -0.3346516207    0.3053271582
C       -1.5030611895    0.0501138259    0.8617404519
H        1.4735014746   -4.9115526805    2.7420227020
H        0.2266382277   -5.0055044916    0.5871772947
H        2.0034231883   -2.6999907873    3.7587709752
H       -0.4799848813   -2.9142523405   -0.5332076290
H        1.3004079952   -0.6118118050    2.6307789563
H       -0.2457177199    1.9367136496   -1.2433793533
H        1.3548798531    1.4182631655   -1.8091085122
H       -1.0003214463   -0.3959664069   -1.7931331760
H        0.6797331608   -0.9699959834   -1.6604902932
H        1.9108770858    0.5462624987    0.4586349484
H        0.6662457073    1.6623675363    1.0751349412
H       -2.0554445968    0.7041385618    0.1791337776
H       -1.3898774392    0.5782277901    1.8159443916
H       -2.0999660120   -0.8404527467    1.0798770382
25   
torsion grid (-150,)
C        1.1436258873   -4.0060653215    2.2517454852
C        0.4479315404   -4.0506944662    1.0387281056
C        1.4420022376   -2.7661740215    2.8263582167
C        0.0557157750   -2.8655216643    0.4092431982
C        1.0487820987   -1.5840490469    2.1911566296
C        0.3513578507   -1.6161244207    0.9745680823
C        0.5153740395    1.1769897166   -1.1194536740
C       -0.0440077330   -0.2660966535   -1.2431840910
C        0.8791652046    0.8674664617    0.3588214194
C       -0.1178159600   -0.3363659761    0.3171501806
C       -1.5174540264    0.0550164223    0.8639145779
H        1.4521392818   -4.9262159755    2.7414122477
H        0.2130730089   -5.0090265001    0.5815591468
H        1.9840109452   -2.7195098765    3.7679505603
H       -0.4849242883   -2.9119775670   -0.5334522026
H        1.2892107310   -0.6255261456    2.6454529874
H       -0.2717656037    1.9325106739   -1.1988663526
H        1.3334780036    1.4535044953   -1.7900905931
H       -0.9789779293   -0.4078767768   -1.7942490585
H        0.7088382721   -0.9537746957   -1.6394384121
H        1.9142635239    0.5267781293    0.4540397944
H        0.6899428483    1.6471295941    1.1032309590
H       -2.1651206181    0.4726787021    0.0867807348
H       -1.4225182281    0.8065272304    1.6559682641
H       -2.0167294907   -0.8024775399    1.3225814968
25   
torsion grid (-135,)
C        1.1268679412   -4.0225967960    2.2470760633
C        0.4269955550   -4.0561480332    1.0362427877
C        1.4355342738   -2.7877687675    2.8275087383
C        0.0409135346   -2.8649109395    0.4141158901
C        1.0472290433   -1.5997156048    2.2006632368
C        0.3454916750   -1.6208629015    0.9862122147
C        0.4964607442    1.1922387945   -1.0923134089
C       -0.0337565533   -0.2597686315   -1.2237617577
C        0.8794141309    0.8707030227    0.3764346966
C       -0.1171005229   -0.3356235434    0.3372948745
C       -1.5283016275    0.0615441503    0.8650694021
H        1.4309536659   -4.9473934166    2.7307167570
H        0.1842777611   -5.0104329036    0.5747325246
H        1.9815522212   -2.7498835334    3.7671847637
H       -0.5017185624   -2.9024581482   -0.5277881045
H        1.2941946294   -0.6450226867    2.6595729687
H       -0.3095688277    1.9295774225   -1.1527815689
H        1.3011506388    1.4964366910   -1.7672384839
H       -0.9602272341   -0.4205249785   -1.7839323518
H        0.7378234301   -0.9305320347   -1.6134144208
H        1.9156969296    0.5278258487    0.4513146978
H        0.7041122606    1.6415506185    1.1334083118
H       -2.2491245537    0.1780855627    0.0495455673
H       -1.4978157942    1.0075128039    1.4156801836
H       -1.9212212793   -0.6943423907    1.5493959895
25   
torsion grid (-120,)
C        1.1146747288   -4.0373475960    2.2366544284
C        0.4135583585   -4.0594036496    1.0265356586
C        1.4279798384   -2.8077922012    2.8262879807
C        0.0315257214   -2.8619648199    0.4133903163
C        1.0420629685   -1.6139374878    2.2096409698
C        0.3399382341   -1.6235099337    0.9950437645
C        0.4902516861    1.2020120496   -1.0743178496
C       -0.0366972143   -0.2502044822   -1.2056290144
C        0.8739591570    0.8804238689    0.3923286006
C       -0.1175407151   -0.3324067086    0.3567285893
C       -1.5317752295    0.0615481390    0.8720855298
H        1.4162793912   -4.9667633594    2.7129461752
H        0.1668051537   -5.0093366748    0.5582639305
H        1.9754835497   -2.7789746742    3.7654139110
H       -0.5106638160   -2.8906494014   -0.5289927836
H        1.2911799070   -0.6633292470    2.6759660543
H       -0.3167307240    1.9380402740   -1.1363198799
H        1.2958492599    1.5078607309   -1.7473100971
H       -0.9647596817   -0.4097807426   -1.7636795946
H        0.7342693673   -0.9193803232   -1.5993624555
H        1.9118768022    0.5422304946    0.4672184032
H        0.6967272645    1.6491308122    1.1512893162
H       -2.2932726171   -0.1329449973    0.1088937343
H       -1.5938678570    1.1209160932    1.1391897004
H       -1.8140632915   -0.5340618971    1.7440650400
25   
torsion grid (-105,)
C        1.1015431513   -4.0476277650    2.2274728015
C        0.3952065162   -4.0602264507    1.0202914876
C        1.4216528359   -2.8222553345    2.8221939782
C        0.0150322671   -2.8583847533    0.4146707462
C        1.0371967521   -1.6239284997    2.2135158731
C        0.3306560393   -1.6242104253    1.0014560336
C        0.4902763046    1.2116242159   -1.0560526089
C       -0.0463571553   -0.2368625518   -1.1912570432
C        0.8587536244    0.8916588779    0.4147113704
C       -0.1231922670   -0.3288843007    0.3708600158
C       -1.5367002924    0.0518924124    0.8757892926
H        1.4017813584   -4.9806923755    2.6974789575
H        0.1428858942   -5.0067900148    0.5482316244
H        1.9732505698   -2.8003662154    3.7590967560
H       -0.5303019821   -2.8801502638   -0.5260929719
H        1.2914116665   -0.6766626050    2.6839006727
H       -0.3071046166    1.9564028506   -1.1318628378
H        1.3071057292    1.5068775338   -1.7200536293
H       -0.9788682211   -0.3858350234   -1.7450450390
H        0.7167888380   -0.9101613499   -1.5930600274
H        1.8985622173    0.5627251012    0.5032209773
H        0.6661344158    1.6588226340    1.1716888700
H       -2.3007565627   -0.4049080531    0.2359735945
H       -1.7017407909    1.1337675519    0.8737419968
H       -1.7160112313   -0.3427098011    1.8801828583
25   
torsion grid (-90,)
C        1.0876830174   -4.0542566879    2.2187464834
C        0.3831437203   -4.0621671344    1.0103883871
C        1.4063446808   -2.8308575256    2.8180941684
C        0.0038924618   -2.8577827866    0.4095198926
C        1.0233469376   -1.6298707227    2.2136045516
C        0.3189151476   -1.6255004765    1.0005350445
C        0.4972910739    1.2147288125   -1.0436567716
C       -0.0607352624   -0.2256199850   -1.1872917730
C        0.8417662637    0.8952831492    0.4338815467
C       -0.1340898880   -0.3281890183    0.3735323050
C       -1.5420083405    0.0421574051    0.8796590560
H        1.3873721850   -4.9890203393    2.6857410998
H        0.1315198101   -5.0068431856    0.5342027287
H        1.9560696704   -2.8124994020    3.7561578389
H       -0.5403136707   -2.8759087246   -0.5320271897
H        1.2773461430   -0.6845531169    2.6879958818
H       -0.2834976663    1.9747897123   -1.1361272210
H        1.3297134596    1.4920233556   -1.6957250814
H       -0.9994001105   -0.3543882217   -1.7360504400
H        0.6877647984   -0.9088951297   -1.5993430248
H        1.8816054163    0.5732399757    0.5438249261
H        0.6288037506    1.6621543686    1.1858554887
H       -2.2917828492   -0.6020548878    0.4054846413
H       -1.7977493828    1.0826706120    0.6537704490
H       -1.6273598741   -0.1276476941    1.9578434296
25   
torsion grid (-75,)
C        1.0685006229   -4.0545144308    2.2143184236
C        0.3748233171   -4.0616018335    0.9995592985
C        1.3799489324   -2.8327371800    2.8204079524
C       -0.0014380310   -2.8565850049    0.3985187001
C        1.0008906672   -1.6309623039    2.2148169888
C        0.3075297961   -1.6253659207    0.9953961084
C        0.5212575796    1.2118504904   -1.0393317894
C       -0.0652133400   -0.2177036525   -1.1914084230
C        0.8371622160    0.8908801935    0.4464154912
C       -0.1424106816   -0.3260950291    0.3670789642
C       -1.5426947544    0.0453738341    0.8830185978
H        1.3655442282   -4.9899425671    2.6816310385
H        0.1292878287   -5.0056881915    0.5190179629
H        1.9205845663   -2.8160240756    3.7637723904
H       -0.5383482584   -2.8733739573   -0.5473162682
H        1.2498437878   -0.6865462422    2.6936751211
H       -0.2390696802    1.9902757107   -1.1473881453
H        1.3702586706    1.4665543621   -1.6791100621
H       -1.0069733973   -0.3226666244   -1.7398635982
H        0.6673625939   -0.9141746923   -1.6094094875
H        1.8736295183    0.5678823060    0.5800684790
H        0.6074848373    1.6603588839    1.1906550622
H       -2.2730807978   -0.7186832860    0.5946243433
H       -1.8752445597    1.0067884440    0.4753527022
H       -1.5468729693    0.1131409445    1.9762830671
25   
torsion grid (-60,)
C        1.0622740026   -4.0607662900    2.2116020356
C        0.3803327377   -4.0656248699    0.9901008147
C        1.3639324153   -2.8401587245    2.8247050713
C        0.0056537776   -2.8597839992    0.3899206042
C        0.9873671074   -1.6374416962    2.2191253083
C        0.3052764723   -1.6294369126    0.9935043400
C        0.5303928416    1.2138097746   -1.0257033259
C       -0.0593384319   -0.2136780095   -1.1907844921
C        0.8426364795    0.8798927178    0.4594922053
C       -0.1441072430   -0.3285184331    0.3655412544
C       -1.5397493057    0.0458004136    0.8955974002
H        1.3576698015   -4.9969017523    2.6785398225
H        0.1426480841   -5.0087527078    0.5037409467
H        1.8950865473   -2.8248903278    3.7734695261
H       -0.5231990738   -2.8750656690   -0.5605124852
H        1.2296656165   -0.6941372262    2.7034701997
H       -0.2296469354    1.9936381736   -1.1259268066
H        1.3790026547    1.4734994537   -1.6640568541
H       -0.9968574931   -0.3152589987   -1.7468509657
H        0.6759616226   -0.9086394934   -1.6064476478
H        1.8763342150    0.5478953432    0.5917852471
H        0.6165588226    1.6460320078    1.2081259188
H       -2.2339445555   -0.7960947316    0.8118714881
H       -1.9576069229    0.8893332321    0.3329101799
H       -1.4833200348    0.3545556005    1.9452053649
25   
torsion grid (-45,)
C        1.0397256477   -4.0635779646    2.2156652014
C        0.3699769370   -4.0651794783    0.9873939939
C        1.3312275779   -2.8445976126    2.8367496224
C       -0.0029341386   -2.8580764367    0.3885894896
C        0.9571428865   -1.6405682564    2.2320848976
C        0.2868120484   -1.6291924513    0.9999992512
C        0.5270648217    1.2172452098   -1.0064232639
C       -0.0674518524   -0.2071300239   -1.1809098056
C        0.8360486119    0.8720922359    0.4773590414
C       -0.1624854491   -0.3259244673    0.3744261301
C       -1.5594220264    0.0525067776    0.9142765645
H        1.3333905244   -5.0007670935    2.6815747743
H        0.1403454072   -5.0069350957    0.4945225903
H        1.8526344284   -2.8314439734    3.7909494854
H       -0.5232271693   -2.8713429798   -0.5665760350
H        1.1917959303   -0.6986943098    2.7228318971
H       -0.2322972652    1.9988542202   -1.0996848471
H        1.3755459366    1.4801521367   -1.6438037796
H       -1.0011519434   -0.3035647207   -1.7439460210
H        0.6683986650   -0.9031990236   -1.5936359608
H        1.8661717753    0.5287154970    0.6078573871
H        0.6170989135    1.6369358945    1.2291715586
H       -2.1920621361   -0.8281563634    1.0529128397
H       -2.0724134019    0.7295610261    0.2201829627
H       -1.4765656426    0.5942173214    1.8626032111
25   
torsion grid (-30,)
C        1.0456009356   -4.0765002356    2.1956432959
C        0.3782807685   -4.0710477864    0.9661125557
C        1.3379337162   -2.8607604207    2.8228061956
C        0.0082700702   -2.8605736776    0.3720600489
C        0.9668642145   -1.6532191049    2.2233577260
C        0.2981345810   -1.6352385787    0.9903774870
C        0.5287534913    1.2281768779   -0.9988025965
C       -0.0430031845   -0.2033807104   -1.1842012013
C        0.8583617489    0.8641274897    0.4750172033
C       -0.1478728015   -0.3284215921    0.3707758457
C       -1.5539084383    0.0567249031    0.9059488000
H        1.3369274865   -5.0163170156    2.6577154404
H        0.1482770113   -5.0100616229    0.4682048581
H        1.8579296055   -2.8529025342    3.7778402985
H       -0.5100590197   -2.8684283360   -0.5841916622
H        1.2017923510   -0.7138844441    2.7187927114
H       -0.2478134969    1.9954214395   -1.0691405170
H        1.3640897771    1.5175305244   -1.6422582106
H       -0.9687254955   -0.3152183649   -1.7572758923
H        0.7101456373   -0.8847594162   -1.5905775231
H        1.8883357966    0.5113600699    0.5809130887
H        0.6594118957    1.6191857938    1.2419341601
H       -2.0917964015   -0.8116151365    1.2931924063
H       -2.1679040255    0.4992597515    0.1129388750
H       -1.4845576741    0.8131839348    1.6945212141
25   
torsion grid (-15,)
C        1.0259777884   -4.0910476886    2.1906906310
C        0.3553354950   -4.0757679382    0.9630978736
C        1.3291447627   -2.8802541995    2.8224653118
C       -0.0072235525   -2.8599167974    0.3753030853
C        0.9643577987   -1.6674912256    2.2298210571
C        0.2920619897   -1.6395972970    0.9989314368
C        0.5121377874    1.2439101404   -0.9744279638
C       -0.0265937371   -0.1978336790   -1.1691382109
C        0.8591632956    0.8673632240    0.4901340827
C       -0.1456173923   -0.3282630986    0.3859781151
C       -1.5650507269    0.0624045742    0.8963313465
H        1.3118653585   -5.0349269879    2.6478391797
H        0.1171648293   -5.0109555833    0.4618329650
H        1.8525739326   -2.8803943103    3.7756624928
H       -0.5271318782   -2.8594350394   -0.5800631649
H        1.2067056341   -0.7318048857    2.7286194778
H       -0.2862145409    1.9901389730   -1.0270411426
H        1.3345461472    1.5643672694   -1.6198292865
H       -0.9416068289   -0.3304195818   -1.7549199598
H        0.7481009300   -0.8610875240   -1.5654008522
H        1.8907930598    0.5131730778    0.5759009868
H        0.6728846385    1.6123359112    1.2700504594
H       -1.9828335067   -0.7144324620    1.5410827581
H       -2.2641514599    0.2087086987    0.0663644161
H       -1.5440833354    0.9941708925    1.4707141248
25   
torsion grid (0,)
C        1.0131197107   -4.1038368150    2.1788416720
C        0.3449577939   -4.0792860758    0.9502556555
C        1.3172973200   -2.8985001183    2.8209470651
C       -0.0138065543   -2.8582725778    0.3705094508
C        0.9545087742   -1.6811580906    2.2371206041
C        0.2854025757   -1.6435117995    1.0045199227
C        0.5071517533    1.2513364146   -0.9593692190
C       -0.0271265766   -0.1909767859   -1.1549322193
C        0.8513342346    0.8754811428    0.5041577730
C       -0.1473705424   -0.3272428255    0.4012419420
C       -1.5716962779    0.0596660814    0.8933330228
H        1.2967510825   -5.0514900685    2.6295130443
H        0.1059555923   -5.0104787500    0.4420024811
H        1.8394196913   -2.9068125394    3.7748292622
H       -0.5305737970   -2.8497943990   -0.5864329902
H        1.1961947667   -0.7492389532    2.7434324959
H       -0.2925288590    1.9957380123   -1.0152688230
H        1.3317410467    1.5737747556   -1.6008637569
H       -0.9424387193   -0.3226903845   -1.7406463038
H        0.7479858515   -0.8523558697   -1.5536280210
H        1.8844795702    0.5263688585    0.5933310588
H        0.6605200655    1.6187544147    1.2849014571
H       -1.8595899498   -0.5471024301    1.7565820490
H       -2.3272273026   -0.0970866798    0.1174951716
H       -1.6169524200    1.1029920108    1.2223032012
25   
torsion grid (15,)
C        1.1755539083   -3.9130600233    2.4106434595
C        0.4178490943   -4.0249318145    1.2402152960
C        1.5036200319   -2.6428832958    2.8969991178
C       -0.0050867046   -2.8763047443    0.5640094762
C        1.0764000269   -1.4977969404    2.2182462699
C        0.3179193741   -1.5979340420    1.0423021396
C        0.3490053932    1.0800411135   -1.2224330237
C       -0.1652704136   -0.3825018233   -1.2305947016
C        0.7808666029    0.8740851384    0.2510300160
C       -0.1814884035   -0.3592474674    0.3366831410
C       -1.5802426408    0.0406106453    0.8677282819
H        1.5092093426   -4.8045620785    2.9355718037
H        0.1589101300   -5.0071454188    0.8519987050
H        2.0949737037   -2.5444553716    3.8042635852
H       -0.5901957069   -2.9748560336   -0.3475207089
H        1.3374914111   -0.5150422482    2.6046220796
H       -0.4656337623    1.8035635852   -1.3177122342
H        1.1325601622    1.3404281424   -1.9390328861
H       -1.1150498600   -0.5861796986   -1.7354673580
H        0.5944157899   -1.0720434745   -1.6107832875
H        1.8281686543    0.5648324230    0.3200454540
H        0.6075173017    1.6924271584    0.9574986979
H       -1.6830537540   -0.2471426535    1.9192910823
H       -2.3813612505   -0.4546737619    0.3107034055
H       -1.7291071346    1.1251481118    0.8359851713
25   
torsion grid (30,)
C        1.1717494148   -3.9190711034    2.3950855638
C        0.4184841179   -4.0271955450    1.2213845149
C        1.4980689980   -2.6512563049    2.8885927020
C       -0.0019688964   -2.8757187946    0.5486423492
C        1.0730101983   -1.5041159216    2.2119502169
C        0.3195018942   -1.5990519125    1.0324728980
C        0.3724990749    1.0829665123   -1.2222611968
C       -0.1646039132   -0.3724477458   -1.2365673476
C        0.7822092493    0.8775192290    0.2590675560
C       -0.1770951581   -0.3573914543    0.3295323131
C       -1.5687758553    0.0351788097    0.8635576687
H        1.5035533374   -4.8126323445    2.9176494193
H        0.1611897238   -5.0079709541    0.8284452105
H        2.0855404021   -2.5563997022    3.7987701290
H       -0.5837931071   -2.9707689991   -0.3653841077
H        1.3326356510   -0.5228778811    2.6031190461
H       -0.4266299012    1.8209124356   -1.3347705993
H        1.1715951843    1.3261353654   -1.9274807189
H       -1.1201846509   -0.5563508428   -1.7383382376
H        0.5804547130   -1.0732249068   -1.6247658847
H        1.8296206019    0.5739801596    0.3473606149
H        0.5918172160    1.6957489985    0.9613838863
H       -1.5861267474   -0.0262200641    1.9575019964
H       -2.3449234519   -0.6344839896    0.4795213891
H       -1.8193555258    1.0697143201    0.6041285026
25   
torsion grid (45,)
C        1.1820628995   -3.9217989116    2.3781576847
C        0.4352682931   -4.0253196647    1.1997996098
C        1.5016344564   -2.6550638805    2.8783877848
C        0.0144027038   -2.8726858236    0.5295973414
C        1.0780712139   -1.5055227511    2.2046584651
C        0.3312470922   -1.5975359904    1.0207725035
C        0.4096945393    1.0869733137   -1.2210939406
C       -0.1559755402   -0.3586435932   -1.2439831177
C        0.7978946564    0.8779148693    0.2672526967
C       -0.1653488668   -0.3532961606    0.3204999236
C       -1.5477218966    0.0380633684    0.8690610768
H        1.5134221301   -4.8169261116    2.8983695773
H        0.1827792128   -5.0049409413    0.8009759069
H        2.0833391694   -2.5626176237    3.7924759999
H       -0.5635130342   -2.9653846771   -0.3872497477
H        1.3339161634   -0.5256277112    2.6016074524
H       -0.3707841366    1.8424474340   -1.3470780080
H        1.2231124693    1.3105681634   -1.9163300027
H       -1.1175257110   -0.5181613745   -1.7427087287
H        0.5714542936   -1.0726756197   -1.6407920258
H        1.8437887950    0.5759341882    0.3743291460
H        0.5925820317    1.6963291609    0.9649782288
H       -1.5019959688    0.1902864086    1.9531445944
H       -2.2817827152   -0.7501201626    0.6705150298
H       -1.9058395399    0.9688346650    0.4144834415
25   
torsion grid (60,)
C        1.1841606862   -3.9244461521    2.3660440783
C        0.4451875412   -4.0259264805    1.1824730529
C        1.4952257636   -2.6590033839    2.8745013096
C        0.0233792062   -2.8716347656    0.5159676951
C        1.0715246171   -1.5081708631    2.2027546122
C        0.3321022347   -1.5971123776    1.0141488675
C        0.4252982404    1.0921610908   -1.2127369487
C       -0.1574295807   -0.3474364808   -1.2457879677
C        0.8045295731    0.8733261486    0.2782937391
C       -0.1671515434   -0.3506710594    0.3169694414
C       -1.5430060477    0.0417337686    0.8838909428
H        1.5160158530   -4.8206178805    2.8841097918
H        0.1995069785   -5.0046671836    0.7772250377
H        2.0703449769   -2.5683296147    3.7929384088
H       -0.5499864911   -2.9624564080   -0.4039477431
H        1.3218240934   -0.5293874300    2.6057670633
H       -0.3450820032    1.8579406682   -1.3390281394
H        1.2440662014    1.3074979097   -1.9043415609
H       -1.1206257508   -0.4926235268   -1.7455507901
H        0.5614025810   -1.0671638473   -1.6476588843
H        1.8482052018    0.5666511469    0.3917367451
H        0.5960723951    1.6904644684    0.9763224423
H       -1.4554141197    0.3987418830    1.9153414785
H       -2.2158175367   -0.8229037854    0.8832310364
H       -2.0165715202    0.8203180219    0.2747625468
25   
torsion grid (75,)
C        1.1856351496   -3.9327993342    2.3561289973
C        0.4554351069   -4.0300586426    1.1667856974
C        1.4873070239   -2.6686692573    2.8733901453
C        0.0334549961   -2.8729835020    0.5051375973
C        1.0642329746   -1.5151006507    2.2057860803
C        0.3327919133   -1.5996521831    1.0120049692
C        0.4293048402    1.0990138412   -1.1985507842
C       -0.1540063996   -0.3402118538   -1.2425191672
C        0.8153790682    0.8641313303    0.2890287733
C       -0.1682221489   -0.3502983208    0.3196123500
C       -1.5430957550    0.0474315885    0.9001902345
H        1.5177350960   -4.8305107123    2.8713721828
H        0.2167906482   -5.0071793662    0.7534471187
H        2.0555301529   -2.5809181113    3.7963890272
H       -0.5340435348   -2.9608820166   -0.4186560203
H        1.3083601178   -0.5379395112    2.6163406450
H       -0.3432151367    1.8650837359   -1.3103368654
H        1.2430305883    1.3223404495   -1.8937121458
H       -1.1141817516   -0.4848867863   -1.7479197912
H        0.5683102986   -1.0564909270   -1.6443622969
H        1.8564529120    0.5457446733    0.3932680506
H        0.6188536073    1.6774684773    0.9946876645
H       -1.4376784521    0.6110410971    1.8323261229
H       -2.1341148936   -0.8485548168    1.1179695067
H       -2.1294465868    0.6301808322    0.1808392879
25   
torsion grid (90,)
C        1.1753871321   -3.9441139184    2.3461999149
C        0.4500169630   -4.0355700757    1.1534676281
C        1.4767934582   -2.6828322121    2.8707105259
C        0.0312176284   -2.8758801564    0.4941276702
C        1.0569054595   -1.5265085303    2.2060117829
C        0.3293160533   -1.6056935272    1.0093352696
C        0.4131922606    1.1134334467   -1.1842032767
C       -0.1400084844   -0.3361100245   -1.2415394538
C        0.8220790464    0.8577533937    0.2924612740
C       -0.1676549348   -0.3527977985    0.3214669357
C       -1.5528690076    0.0521307026    0.8945029771
H        1.5044700531   -4.8444682475    2.8587429837
H        0.2125967912   -5.0108156377    0.7350367695
H        2.0418759623   -2.5996233008    3.7960814514
H       -0.5321425382   -2.9591277273   -0.4326142106
H        1.2997740009   -0.5510268664    2.6212591882
H       -0.3805025057    1.8616046668   -1.2672913595
H        1.2099216172    1.3703023434   -1.8876144402
H       -1.0896226803   -0.5025092910   -1.7597721925
H        0.6057307501   -1.0327767022   -1.6354922839
H        1.8620133927    0.5273933509    0.3696410236
H        0.6485202635    1.6614821029    1.0148096967
H       -1.4652543118    0.8308875752    1.6580685230
H       -2.0408844213   -0.8097613163    1.3593477142
H       -2.2321923066    0.3953711183    0.1069215002
25   
torsion grid (105,)
C        1.1820934617   -3.9559060909    2.3200200737
C        0.4389482267   -4.0368291068    1.1373536691
C        1.5099149729   -2.6995177990    2.8401726748
C        0.0291824333   -2.8707976814    0.4838460736
C        1.0977595954   -1.5367447960    2.1814897817
C        0.3526663994   -1.6050175073    0.9952151422
C        0.4312486416    1.1348828331   -1.1830855785
C       -0.0822120384   -0.3273453892   -1.2528661541
C        0.8469094563    0.8698340790    0.2881663865
C       -0.1358548348   -0.3477380855    0.3112973387
C       -1.5413276489    0.0531336321    0.8511002077
H        1.5045949616   -4.8611199539    2.8281558318
H        0.1810967656   -5.0084166053    0.7224969544
H        2.0892661964   -2.6248735635    3.7574239309
H       -0.5468209685   -2.9448838139   -0.4358768638
H        1.3597883292   -0.5650526800    2.5938541580
H       -0.3863464406    1.8586170773   -1.2522342850
H        1.2179313082    1.4262665220   -1.8843438667
H       -1.0164705810   -0.5195333984   -1.7897795842
H        0.6906810677   -1.0026046592   -1.6320066202
H        1.8884290933    0.5410750094    0.3532591918
H        0.6783863629    1.6651869395    1.0209536348
H       -1.5159039079    1.0168391739    1.3695721925
H       -1.9152852569   -0.6888351618    1.5610611426
H       -2.2782678333    0.1254930358    0.0446684058
25   
torsion grid (120,)
C        1.1734832471   -3.9711251417    2.3092824247
C        0.4420031130   -4.0433600379    1.1191511903
C        1.4918261397   -2.7193020881    2.8469145801
C        0.0340645314   -2.8722203973    0.4730133242
C        1.0798930736   -1.5520582543    2.1969513841
C        0.3471559000   -1.6114913985    1.0020274742
C        0.4231220476    1.1398912411   -1.1681954767
C       -0.0932899081   -0.3205445932   -1.2360796155
C        0.8432915815    0.8735184008    0.2996436863
C       -0.1375658323   -0.3476961594    0.3296408093
C       -1.5440184984    0.0503496636    0.8631707192
H        1.4949266730   -4.8803842199    2.8107932923
H        0.1916856134   -5.0117287517    0.6923505690
H        2.0627641883   -2.6523549490    3.7700292299
H       -0.5320436683   -2.9390355650   -0.4532571678
H        1.3328150891   -0.5831320341    2.6216845095
H       -0.3919875620    1.8663127322   -1.2368866734
H        1.2100399986    1.4287714178   -1.8701440619
H       -1.0322031055   -0.5077651163   -1.7667342655
H        0.6745759205   -0.9968565821   -1.6236054015
H        1.8855769985    0.5463722951    0.3618969724
H        0.6769775630    1.6671913018    1.0349907010
H       -1.5914126518    1.1197789045    1.0962340161
H       -1.7974224553   -0.4948888552    1.7753142349
H       -2.3228347608   -0.1402591372    0.1177101335
25   
torsion grid (135,)
C        1.1789044791   -3.9774199802    2.2860456473
C        0.4389183124   -4.0399866322    1.1005911013
C        1.5100136813   -2.7290237031    2.8237664468
C        0.0363700382   -2.8639566058    0.4601957048
C        1.1033773022   -1.5564221098    2.1799944761
C        0.3630136639   -1.6067005463    0.9895190603
C        0.4639914714    1.1512225351   -1.1720294878
C       -0.0668739578   -0.3038309807   -1.2441929113
C        0.8556289298    0.8902703729    0.3043211998
C       -0.1159399210   -0.3388659928    0.3216749893
C       -1.5246283085    0.0453142877    0.8380078046
H        1.4965143903   -4.8904304057    2.7832157742
H        0.1778284429   -5.0051379305    0.6730022443
H        2.0874131154   -2.6688457069    3.7432941086
H       -0.5356633476   -2.9240139525   -0.4629295016
H        1.3666415680   -0.5908186159    2.6060156762
H       -0.3384095316    1.8886671825   -1.2646086140
H        1.2696689683    1.4247028509   -1.8585442728
H       -1.0084175419   -0.4764284379   -1.7754928466
H        0.6913994873   -0.9890496548   -1.6347318336
H        1.8993565115    0.5734509794    0.3905241352
H        0.6667772207    1.6844524038    1.0338568719
H       -1.6698947948    1.1313199344    0.8001811248
H       -1.6788971357   -0.2747299950    1.8716548750
H       -2.3068890115   -0.3871325483    0.2051914660
25   
torsion grid (150,)
C        1.1656679788   -3.9848496308    2.2789358635
C        0.4335164590   -4.0423780460    1.0884020745
C        1.4906324988   -2.7384857715    2.8250464661
C        0.0330416486   -2.8634486657    0.4520112315
C        1.0859034793   -1.5636304728    2.1842745444
C        0.3537286011   -1.6078031974    0.9885120034
C        0.4688117464    1.1565944387   -1.1616086904
C       -0.0810987330   -0.2919848193   -1.2405277253
C        0.8481914333    0.8921035304    0.3184044147
C       -0.1219697610   -0.3367817212    0.3241748538
C       -1.5216558610    0.0439945063    0.8458599067
H        1.4818253017   -4.8998144649    2.7734400162
H        0.1768935615   -5.0056767073    0.6539885562
H        2.0616509663   -2.6818377143    3.7487686596
H       -0.5329447280   -2.9202219042   -0.4750336766
H        1.3450640092   -0.5998405897    2.6168976669
H       -0.3211638092    1.9061107419   -1.2615905689
H        1.2833723982    1.4180438886   -1.8421464199
H       -1.0287569258   -0.4477707489   -1.7663899524
H        0.6645651097   -0.9849499160   -1.6412870882
H        1.8913888284    0.5767928845    0.4150068644
H        0.6502768673    1.6850168202    1.0470533590
H       -1.7643262869    1.0811448934    0.5850619179
H       -1.5841990046   -0.0544859505    1.9335525260
H       -2.2913559173   -0.5835994490    0.3833801824
25   
torsion grid (165,)
C        1.1774225086   -3.9841988002    2.2618300509
C        0.4556202835   -4.0408237759    1.0648787447
C        1.4924891851   -2.7395225510    2.8173211799
C        0.0551444342   -2.8605629135    0.4312215966
C        1.0881479375   -1.5639387447    2.1776408255
C        0.3664044064   -1.6057674306    0.9754655767
C        0.5074033442    1.1588413722   -1.1637231108
C       -0.0701534577   -0.2796569307   -1.2505628573
C        0.8608161560    0.8939207395    0.3244351897
C       -0.1093891312   -0.3332329341    0.3124823163
C       -1.5006424310    0.0461077617    0.8470443590
H        1.4935769421   -4.8999785472    2.7547703721
H        0.2072385872   -5.0033739436    0.6240158110
H        2.0548661600   -2.6846900363    3.7464558189
H       -0.5035804843   -2.9155864865   -0.5003778585
H        1.3398287555   -0.6011211140    2.6166794823
H       -0.2612608836    1.9275323995   -1.2818894240
H        1.3391949540    1.3964258289   -1.8321034161
H       -1.0236653725   -0.4120352355   -1.7720429042
H        0.6585752382   -0.9846672333   -1.6609497053
H        1.9030730227    0.5848132463    0.4452437703
H        0.6413107736    1.6874995126    1.0460871617
H       -1.8441590305    0.9927004064    0.4138481334
H       -1.4830163516    0.1560438397    1.9365862508
H       -2.2354803636   -0.7254517283    0.5922764816
25   
torsion grid (180,)
C        1.1620066585   -3.9886935239    2.2653584503
C        0.4529879452   -4.0428539633    1.0605481298
C        1.4685374598   -2.7445136817    2.8263918774
C        0.0561099884   -2.8625645524    0.4249403304
C        1.0697201397   -1.5675337143    2.1854772384
C        0.3603569920   -1.6089722982    0.9761198864
C        0.5185336351    1.1613607396   -1.1489648049
C       -0.0611909668   -0.2761171653   -1.2500489439
C        0.8673831723    0.8828790324    0.3394312015
C       -0.1117794884   -0.3350861361    0.3110407030
C       -1.4986788691    0.0478693602    0.8572647138
H        1.4745099214   -4.9051148743    2.7594769423
H        0.2113718696   -5.0048009732    0.6146836609
H        2.0206701407   -2.6908305508    3.7616885525
H       -0.4937280095   -2.9162131576   -0.5120902787
H        1.3161083115   -0.6054338642    2.6290457596
H       -0.2514930626    1.9301018515   -1.2585704332
H        1.3496496417    1.4063885488   -1.8155175591
H       -1.0093133738   -0.4057294667   -1.7817842125
H        0.6715855946   -0.9793801157   -1.6561499899
H        1.9064198771    0.5628597532    0.4590698390
H        0.6527029745    1.6734175192    1.0657001813
H       -1.9445031962    0.8714845084    0.2888040894
H       -1.4181236064    0.3616783528    1.9044359001
H       -2.1771558340   -0.8112357079    0.8333757609
