24   
torsion grid (-165,)
C        1.6674065660   -3.5073747690   -3.1599262156
C        1.2521101557   -2.2272721652   -3.9389454638
C        1.9025896942   -3.0479701736   -1.7195732659
C        1.5103002696   -1.0492781953   -2.9810453430
C        3.6150932808   -0.2715762656    1.5440867822
C        3.5678985431   -1.1839229180    0.3110832363
C        2.4219737638   -0.7874669207   -0.6159012393
N        2.3840921973   -1.6199801962   -1.8773500029
H        0.9035648402   -4.2854607962   -3.1948320787
H        2.5837198250   -3.9350059158   -3.5751703326
H        1.8338933229   -2.1232789601   -4.8562866117
H        0.1992294032   -2.2486531325   -4.2235345059
H        2.6434321921   -3.6261252888   -1.1680084867
H        0.9785289042   -2.9969698263   -1.1390072433
H        2.0223393032   -0.1949834598   -3.4254959241
H        0.5979627932   -0.6988574833   -2.4946591710
H        4.4396893265   -0.5640583587    2.1979940217
H        2.6892073951   -0.3381957607    2.1238016002
H        3.7666152108    0.7746729965    1.2609529478
H        4.5182146305   -1.1126866686   -0.2341414401
H        3.4543279620   -2.2253417588    0.6300990069
H        1.4452894919   -0.9007238063   -0.1388622403
H        2.5273969626    0.2525322556   -0.9362949806
H        3.3433634851   -1.6644400716   -2.2382717023
24   
torsion grid (-150,)
C        1.6257599235   -3.4944070539   -3.1700888952
C        1.3374310325   -2.1894424429   -3.9671423038
C        1.7724335497   -3.0523329036   -1.7130500893
C        1.5869606939   -1.0308266227   -2.9829779036
C        3.6677927354   -0.2386875550    1.5322392894
C        3.6507059372   -1.0819290954    0.2508091345
C        2.3768100306   -0.8355618098   -0.5533462642
N        2.3479225906   -1.6559395030   -1.8276191907
H        0.8277127618   -4.2314146525   -3.2701294422
H        2.5480836437   -3.9668486338   -3.5181945460
H        1.9900989542   -2.1133250752   -4.8384082001
H        0.3088092181   -2.1531602583   -4.3285370514
H        2.4318510841   -3.6710291822   -1.1037983710
H        0.8085476094   -2.9465165315   -1.2104097312
H        2.1743800510   -0.2023132282   -3.3806663124
H        0.6614193062   -0.6360501480   -2.5593178441
H        4.5891715511   -0.4191613262    2.0904446349
H        2.8262815464   -0.4903086605    2.1850550503
H        3.6171287866    0.8309239015    1.3060101854
H        4.5216173282   -0.8278263727   -0.3674553603
H        3.7336110389   -2.1442532915    0.5082361990
H        1.4734791858   -1.0866730992    0.0068198082
H        2.3124050518    0.2129321266   -0.8541568535
H        3.3213966473   -1.7607051123   -2.1336282792
24   
torsion grid (-135,)
C        1.5618592787   -3.4859237737   -3.1714141244
C        1.4342975660   -2.1538764395   -3.9680574234
C        1.6402633492   -3.0693491228   -1.7013186964
C        1.6670100275   -1.0276030954   -2.9442430077
C        3.7194627645   -0.2038564467    1.5301768262
C        3.7030021771   -0.9955081064    0.2167820067
C        2.3367062816   -0.9193080215   -0.4597662957
N        2.3147175055   -1.7146108172   -1.7558884356
H        0.7151544445   -4.1537011788   -3.3362946758
H        2.4644401551   -4.0290390814   -3.4630348432
H        2.1682422116   -2.1105304181   -4.7746046640
H        0.4481702928   -2.0443611595   -4.4214314709
H        2.2153483895   -3.7352612597   -1.0563957532
H        0.6539169553   -2.9040354855   -1.2626149062
H        2.3194354142   -0.2208127494   -3.2809575083
H        0.7329586189   -0.5984311601   -2.5767966362
H        4.7079246092   -0.2587890297    1.9917527326
H        2.9933824940   -0.6037971131    2.2446269281
H        3.4868901529    0.8521677208    1.3611959395
H        4.4651789319   -0.5950191994   -0.4642199541
H        3.9602687632   -2.0435756311    0.4144644655
H        1.5408019993   -1.3148478010    0.1740493639
H        2.0895513411    0.1133675350   -0.7143852015
H        3.2929610028   -1.8842236406   -2.0128969401
24   
torsion grid (-120,)
C        1.3945350576   -3.4439402410   -3.1515081120
C        1.5128483294   -2.1057535372   -3.9420163018
C        1.5267521861   -3.0606505383   -1.6718534579
C        1.7111548208   -1.0160194692   -2.8802848414
C        3.8380159643   -0.0682410343    1.4435319144
C        3.7849358859   -0.8443322269    0.1219799248
C        2.3512034935   -0.9852819349   -0.3826478298
N        2.3000976780   -1.7569818066   -1.6955525461
H        0.4417508333   -3.9454436297   -3.3264590822
H        2.1846256080   -4.1388111554   -3.4441751468
H        2.3604555509   -2.1350423840   -4.6300676175
H        0.6220593676   -1.8953021691   -4.5354290212
H        2.0587483800   -3.7814062441   -1.0490150809
H        0.5623574211   -2.8340380662   -1.2129637081
H        2.3834753272   -0.2051500984   -3.1646865130
H        0.7656439710   -0.5930105107   -2.5352494619
H        4.8712957548    0.0253633556    1.7851518235
H        3.2707892877   -0.5789789748    2.2278083595
H        3.4303996936    0.9409285317    1.3287783338
H        4.3882482729   -0.3264424026   -0.6346235526
H        4.2214832674   -1.8415574957    0.2619781242
H        1.7285109062   -1.5249033946    0.3331039661
H        1.8962269800   -0.0098781735   -0.5639533762
H        3.2676465855   -1.9898715022   -1.9427380389
24   
torsion grid (-105,)
C        1.2883734144   -3.4121685688   -3.2091304610
C        1.6173745408   -2.0908372364   -3.9651878254
C        1.4358921158   -3.0828757019   -1.7150750500
C        1.8056337100   -1.0361784098   -2.8715943485
C        3.7751514388    0.0413774384    1.3794182966
C        3.7505560744   -0.7135840248    0.0447338586
C        2.3262978415   -1.0948396820   -0.3510214006
N        2.2992564361   -1.8343896917   -1.6806879573
H        0.2762357698   -3.7628915821   -3.4153776991
H        1.9736885689   -4.2093487476   -3.5033808426
H        2.5300626260   -2.1981340021   -4.5563357682
H        0.8222958385   -1.7917044548   -4.6495876421
H        1.9113169575   -3.8584820695   -1.1128305879
H        0.4863432030   -2.8061480791   -1.2528815511
H        2.5236060999   -0.2478617881   -3.1026683545
H        0.8609789675   -0.5837725731   -2.5634826733
H        4.8028132574    0.2898873245    1.6538006763
H        3.3499182973   -0.5632747670    2.1865356290
H        3.2094097098    0.9761341396    1.3180180540
H        4.1981114325   -0.0908831274   -0.7399445287
H        4.3582517329   -1.6241868060    0.1253663703
H        1.8837491389   -1.7593165913    0.3937590334
H        1.6816571556   -0.2203637408   -0.4555590525
H        3.2609448813   -2.1246078738   -1.8863260306
24   
torsion grid (-90,)
C        1.2273074197   -3.3752130766   -3.2280621100
C        1.7381546823   -2.0892316226   -3.9395516257
C        1.4020686875   -3.1149286644   -1.7214829826
C        1.9732813826   -1.0777156332   -2.8167387503
C        3.7771398007    0.0607515804    1.3718369837
C        3.7651437948   -0.6457820409    0.0102923296
C        2.3927726315   -1.2440629167   -0.2882307966
N        2.3646012481   -1.9423604652   -1.6339424367
H        0.1783707854   -3.5758214123   -3.4506032528
H        1.7989544429   -4.2492802788   -3.5448434167
H        2.6691907042   -2.2853756039   -4.4775171243
H        1.0225168013   -1.6980157659   -4.6640762051
H        1.8123615560   -3.9492958249   -1.1510108859
H        0.4781102730   -2.7816856112   -1.2448651114
H        2.7563013365   -0.3434174534   -3.0089012885
H        1.0570262795   -0.5605237249   -2.5245713115
H        4.7688557070    0.4707224864    1.5756370604
H        3.5279154545   -0.6315185164    2.1820892738
H        3.0612961588    0.8881513290    1.3968278318
H        4.0443269063    0.0651651773   -0.7762159785
H        4.5153007937   -1.4472699845    0.0058045223
H        2.1337445097   -1.9953526839    0.4616300882
H        1.6027954649   -0.4904187534   -0.3047485193
H        3.3079928681   -2.3021916378   -1.8135686468
24   
torsion grid (-75,)
C        1.1278777323   -3.3155717241   -3.2725480685
C        1.7831545156   -2.0831383831   -3.9572836407
C        1.3158763009   -3.1029801022   -1.7593717256
C        2.0927112589   -1.1072029493   -2.8209880021
C        3.7235085362    0.0757072709    1.3356205712
C        3.6916836797   -0.5408532676   -0.0692515569
C        2.4085106732   -1.3387130617   -0.2851190537
N        2.3691566699   -2.0139885419   -1.6375599834
H        0.0650139994   -3.3929403807   -3.5057745683
H        1.6005165875   -4.2424265252   -3.6017552283
H        2.7035912774   -2.3681416288   -4.4734852778
H        1.1297501726   -1.6169475571   -4.6961130274
H        1.6546414914   -3.9805824925   -1.2073512900
H        0.4184642998   -2.7094920012   -1.2782554936
H        2.9501151062   -0.4571034556   -2.9936869391
H        1.2285616073   -0.4993713190   -2.5433683610
H        4.6468858657    0.6415348770    1.4781582029
H        3.6798258912   -0.6954444253    2.1109857193
H        2.8844423086    0.7616467230    1.4880540751
H        3.7751852390    0.2524842372   -0.8196563318
H        4.5576658244   -1.2031554816   -0.1986221390
H        2.3200615926   -2.1340260403    0.4598422360
H        1.5153300819   -0.7122181770   -0.2241123858
H        3.2857066820   -2.4479925333   -1.7914509505
24   
torsion grid (-60,)
C        1.0882156712   -3.2589176016   -3.2619418763
C        1.8559185125   -2.0804473543   -3.9239963715
C        1.2584213607   -3.0707491722   -1.7431202519
C        2.2256649856   -1.1371730066   -2.7770896297
C        3.7224432258    0.1011624116    1.3366333202
C        3.6264740228   -0.4359401564   -0.0980279790
C        2.4579991729   -1.4087324690   -0.2320355186
N        2.3885015878   -2.0670224326   -1.5912599706
H        0.0279866234   -3.2483712928   -3.5185399649
H        1.4910858229   -4.2193384877   -3.5876204169
H        2.7595779071   -2.4381146969   -4.4243875915
H        1.2580323268   -1.5585545759   -4.6724976628
H        1.5161005260   -3.9756234468   -1.1913828750
H        0.3824489825   -2.6137165959   -1.2795576219
H        3.1446788606   -0.5723205996   -2.9281899910
H        1.4167671788   -0.4493155206   -2.5189167024
H        4.5533774236    0.8052071838    1.4204295113
H        3.8932723884   -0.7064276394    2.0551510267
H        2.8080393616    0.6284242804    1.6261735530
H        3.5012949542    0.3999152108   -0.7932828940
H        4.5633883241   -0.9427166171   -0.3636731626
H        2.5320277782   -2.2196849592    0.4976394998
H        1.4986329356   -0.9053647063   -0.0862476485
H        3.2708073497   -2.5720407772   -1.7284956117
24   
torsion grid (-45,)
C        1.0470755985   -3.2120829048   -3.2737777749
C        1.9150732759   -2.0932481820   -3.9160179757
C        1.1960535682   -3.0374710782   -1.7509376271
C        2.3330048058   -1.1813773383   -2.7596938995
C        3.7057849930    0.1243585380    1.3119305732
C        3.5571595331   -0.3760147830   -0.1317188672
C        2.5252808298   -1.4987844979   -0.2016411618
N        2.3972749230   -2.1255879730   -1.5758884034
H       -0.0034390386   -3.1218900285   -3.5536624735
H        1.3839373415   -4.1998038536   -3.5926682752
H        2.7989579013   -2.5173733853   -4.3996609031
H        1.3731882522   -1.5267620532   -4.6746223354
H        1.3688141317   -3.9594692336   -1.1943490781
H        0.3480820779   -2.5124913993   -1.3082483705
H        3.2967426960   -0.6910826707   -2.8888948056
H        1.5746511709   -0.4321401290   -2.5197222463
H        4.4340825548    0.9373340789    1.3549295884
H        4.0523711097   -0.6717765568    1.9780035601
H        2.7564540896    0.5059943084    1.7008348272
H        3.2516556904    0.4535714245   -0.7759079296
H        4.5282336714   -0.7333151987   -0.4975174077
H        2.7662233713   -2.3137370333    0.4857339848
H        1.5310079684   -1.1231328143    0.0541675244
H        3.2353261293   -2.6999380075   -1.7172898586
24   
torsion grid (-30,)
C        1.0001210646   -3.1722540340   -3.2793217719
C        1.9579642213   -2.1270259017   -3.9195723459
C        1.1382334964   -2.9879280301   -1.7566371289
C        2.4207100601   -1.2339236009   -2.7655925404
C        3.6575646447    0.1437815687    1.2980202873
C        3.4783365724   -0.3307172415   -0.1511602667
C        2.6112073710   -1.5869458930   -0.1877532614
N        2.4084473716   -2.1770149883   -1.5780877940
H       -0.0365760219   -3.0094158621   -3.5773382655
H        1.2689350044   -4.1859524410   -3.5809595212
H        2.8166641949   -2.6201262555   -4.3830291584
H        1.4712346042   -1.5321259938   -4.6936251686
H        1.2237246444   -3.9118872817   -1.1831270658
H        0.3314053396   -2.3850735138   -1.3368011691
H        3.4152747281   -0.8065914610   -2.8838024474
H        1.7070273329   -0.4374280037   -2.5447120299
H        4.2680602695    1.0492709131    1.3233141398
H        4.1574659379   -0.6141073076    1.9090595080
H        2.6946874984    0.3770725905    1.7634331932
H        3.0119822911    0.4640057594   -0.7400818237
H        4.4614781738   -0.5330446608   -0.5929401101
H        3.0292519118   -2.3874227416    0.4268434023
H        1.6120828372   -1.3603011988    0.1924636472
H        3.1919523139   -2.8191095843   -1.7362907513
24   
torsion grid (-15,)
C        0.9339330773   -3.1106541199   -3.2688361581
C        1.9796694415   -2.1642833683   -3.9258479239
C        1.0870485477   -2.9071612298   -1.7505674054
C        2.5115008096   -1.2919496418   -2.7862052738
C        3.6084772754    0.1536287509    1.2959973730
C        3.3760418835   -0.2812416542   -0.1582988719
C        2.7001828231   -1.6503260785   -0.1878713620
N        2.4294140688   -2.2174379069   -1.5860388788
H       -0.0847202625   -2.8657897774   -3.5729586675
H        1.1153689740   -4.1496108818   -3.5492063826
H        2.7945880337   -2.7384820355   -4.3749439383
H        1.5488189973   -1.5450751836   -4.7138387596
H        1.0826408584   -3.8215131399   -1.1555762790
H        0.3426881599   -2.2186984048   -1.3468275093
H        3.5351693050   -0.9418969624   -2.9114062739
H        1.8594969991   -0.4421524142   -2.5793440364
H        4.0836135094    1.1369522394    1.3210524349
H        4.2621748381   -0.5472678784    1.8244103924
H        2.6658640757    0.2238671788    1.8479757977
H        2.7502245995    0.4600568134   -0.6632689004
H        4.3357981153   -0.3164615703   -0.6854738672
H        3.2977300161   -2.3998744486    0.3348309537
H        1.7293365081   -1.5951954699    0.3088967334
H        3.1446627895   -2.9318030595   -1.7518069768
24   
torsion grid (0,)
C        0.8864820606   -3.0246212196   -3.2535700855
C        2.0211895686   -2.2020061167   -3.9270223793
C        1.0750655638   -2.8238855552   -1.7397803936
C        2.6412663477   -1.3720009923   -2.8013413174
C        3.5522003061    0.1626865603    1.2945479160
C        3.2409968446   -0.2462551163   -0.1527359090
C        2.7905355969   -1.7045269040   -0.1902182575
N        2.4828683334   -2.2701471421   -1.5868792667
H       -0.1025580553   -2.6742377080   -3.5522343030
H        0.9527771482   -4.0795862440   -3.5247949471
H        2.7716755369   -2.8636396248   -4.3680637185
H        1.6545788939   -1.5533821123   -4.7238803374
H        0.9851029107   -3.7278875767   -1.1358691496
H        0.4077113147   -2.0605428109   -1.3354584749
H        3.6932938611   -1.1242034037   -2.9398848055
H        2.0774680664   -0.4612619846   -2.6006974319
H        3.8678385594    1.2079432400    1.3279380453
H        4.3587665975   -0.4441813455    1.7176919714
H        2.6728986781    0.0585942213    1.9379892225
H        2.4571031583    0.4057845112   -0.5505327548
H        4.1328211532   -0.1062723925   -0.7717682901
H        3.5612231203   -2.3506108439    0.2348349323
H        1.8829290668   -1.8404147327    0.4001681072
H        3.1232903858   -3.0544959680   -1.7367783774
24   
torsion grid (15,)
C        0.8833238634   -2.9642841925   -3.2696862701
C        2.0907199390   -2.2884430325   -3.9766820344
C        1.1340635836   -2.7807970845   -1.7617064931
C        2.7944700931   -1.4890084758   -2.8803582407
C        3.5149795813    0.1812115734    1.1952185748
C        3.1516815382   -0.2565855395   -0.2313523238
C        2.9506265838   -1.7686008317   -0.2714883554
N        2.5890181237   -2.3485785818   -1.6455704951
H       -0.0617236071   -2.4949417600   -3.5469404043
H        0.8121466933   -4.0202861226   -3.5349665048
H        2.7680409488   -3.0379244313   -4.3954739940
H        1.7870334235   -1.6338285560   -4.7949024295
H        0.9868827089   -3.6755124554   -1.1553935255
H        0.5448295506   -1.9660723775   -1.3367365906
H        3.8608790325   -1.3261294016   -3.0399122281
H        2.3062525130   -0.5343805561   -2.6887137762
H        3.6617836849    1.2631490790    1.2284178091
H        4.4411576603   -0.2926366915    1.5352570761
H        2.7216555488   -0.0706411337    1.9058610985
H        2.2383964298    0.2612030921   -0.5450503447
H        3.9504017698    0.0370222221   -0.9189998873
H        3.8710702630   -2.2702344367    0.0359162519
H        2.1584187690   -2.0822506635    0.4104192803
H        3.1584993527   -3.1885735740   -1.7790323667
24   
torsion grid (30,)
C        0.7972577392   -2.7880481208   -3.2153023502
C        2.0776451203   -2.3020170888   -3.9448447553
C        1.1129673906   -2.6788783675   -1.7095023866
C        2.8614044466   -1.5433062822   -2.8771975709
C        3.3724553975    0.1825855377    1.2313080762
C        3.0154074589   -0.2654133859   -0.1936849844
C        3.0353453525   -1.7882276469   -0.2803706261
N        2.6022646365   -2.3631362780   -1.6277799489
H       -0.0620154742   -2.1611171916   -3.4584983917
H        0.5448108204   -3.8112809209   -3.4970036658
H        2.6627918905   -3.1487167563   -4.3161359739
H        1.8592435380   -1.6593029131   -4.7989445521
H        0.9222506166   -3.5841480537   -1.1319492806
H        0.5985642599   -1.8432801834   -1.2327570652
H        3.9362527434   -1.4680012086   -3.0493428155
H        2.4510177386   -0.5501696608   -2.6987989704
H        3.3781046590    1.2732779106    1.2907920273
H        4.3652290519   -0.1728841203    1.5246192217
H        2.6470907854   -0.1894717839    1.9614166132
H        2.0243549584    0.1226987183   -0.4569149570
H        3.7336755546    0.1604066120   -0.9004025810
H        4.0491231733   -2.1562901964   -0.1033380251
H        2.3798964641   -2.2424755214    0.4658679365
H        3.1000363681   -3.2496782114   -1.7492374910
24   
torsion grid (45,)
C        0.6948766145   -2.6963573546   -3.1894766854
C        2.0167511101   -2.4158452802   -3.9449008867
C        1.0585061375   -2.6620435569   -1.6885838107
C        2.8693288098   -1.6654569077   -2.9273847313
C        3.1794511519    0.1961112147    1.2016842831
C        2.8140783786   -0.2792383783   -0.2124552896
C        3.0564468905   -1.7806317733   -0.3384584306
N        2.5623740343   -2.4001748278   -1.6375974220
H       -0.0471481497   -1.9257664540   -3.4061357106
H        0.2639629271   -3.6566216402   -3.4757263376
H        2.5090769566   -3.3478758823   -4.2405126110
H        1.8673832254   -1.8244811088   -4.8495501740
H        0.8617694032   -3.5900799190   -1.1506476049
H        0.5758962883   -1.8422777095   -1.1575953072
H        3.9458413938   -1.6811934759   -3.1059398046
H        2.5351221165   -0.6360778898   -2.8001624932
H        3.0456767401    1.2773233113    1.2805011320
H        4.2235398933   -0.0288511767    1.4410188719
H        2.5462068656   -0.2771662288    1.9583853461
H        1.7646610533   -0.0377373760   -0.4161553824
H        3.4211365253    0.2618817085   -0.9441054054
H        4.1262149272   -1.9990437400   -0.2825217220
H        2.5578814698   -2.3337378649    0.4617889169
H        3.0186379350   -3.3140161110   -1.7129342677
24   
torsion grid (60,)
C        0.7065327098   -2.6332825249   -3.2142613145
C        2.0611299359   -2.4744704622   -3.9457501608
C        1.0349695958   -2.5814831024   -1.7047624984
C        2.9427082664   -1.7448116774   -2.9377321576
C        3.2194807003    0.1981854405    1.2145936466
C        2.6732664042   -0.2982202268   -0.1330668852
C        3.0842972055   -1.7511279737   -0.3556075241
N        2.5475791662   -2.3923984588   -1.6254238334
H        0.0299606128   -1.8160870930   -3.4709247680
H        0.2108670008   -3.5666980360   -3.4840668093
H        2.4942299994   -3.4489856952   -4.1932367916
H        1.9714610990   -1.9113037317   -4.8759094121
H        0.7824017156   -3.4882233560   -1.1539023476
H        0.5735443136   -1.7315592740   -1.2064967529
H        4.0186798416   -1.8557853645   -3.0817487232
H        2.6909149936   -0.6863662889   -2.8668093979
H        2.9419240779    1.2432614648    1.3690394720
H        4.3113853298    0.1335407730    1.2516406435
H        2.8142118062   -0.3831352388    2.0485800617
H        1.5836370187   -0.1970942903   -0.1378271240
H        3.0631778848    0.3363977131   -0.9345919368
H        4.1724355500   -1.8421567753   -0.4115124866
H        2.7344101823   -2.3835610896    0.4651986967
H        2.9526961527   -3.3331043174   -1.6495338567
24   
torsion grid (75,)
C        0.9479252501   -2.8130861472   -3.3278051402
C        2.1644875607   -2.1781815124   -4.0375712916
C        1.0825986874   -2.3292629406   -1.8881879303
C        3.2463781249   -2.0262482206   -2.9462019493
C        3.4929464734    0.2574005767    1.0025137936
C        2.7200781082   -0.3484926896   -0.1785128350
C        3.1299820723   -1.8044377523   -0.3818657748
N        2.5733548321   -2.4529315757   -1.6397986978
H       -0.0025040863   -2.5035322527   -3.7653768121
H        0.9889593159   -3.9066262029   -3.3687951743
H        2.5168385333   -2.7894125762   -4.8694613735
H        1.9033125900   -1.1961003438   -4.4371605832
H        0.5446911903   -2.9104893516   -1.1373641339
H        0.8216021431   -1.2756017051   -1.7912268363
H        4.1218804080   -2.6608001372   -3.0878663218
H        3.5794948418   -0.9972165856   -2.8208461006
H        3.1776678672    1.2901572828    1.1672708727
H        4.5711186546    0.2608492406    0.8148686437
H        3.3091354293   -0.2987670641    1.9270772518
H        1.6465596736   -0.2841919848    0.0219225468
H        2.9180489077    0.2393728578   -1.0817119011
H        4.2162939222   -1.9042061171   -0.4549869135
H        2.7903769879   -2.4198602784    0.4555355213
H        2.7563523261   -3.4555891451   -1.5412098988
24   
torsion grid (90,)
C        2.0149687300   -3.4493609013   -3.3561762552
C        0.8265188666   -2.4605722228   -3.4525894604
C        2.7602825896   -3.0129633183   -2.0981365785
C        1.2659814881   -1.2034019328   -2.6696130607
C        3.1969127588   -0.3271980550    1.4967395654
C        2.8227787429   -1.2992980040    0.3684219738
C        3.1332824782   -0.6739644764   -0.9877268266
N        2.6815736724   -1.5025412574   -2.1859018882
H        1.6916622493   -4.4888679393   -3.2833622519
H        2.6673298073   -3.3700138455   -4.2316885438
H        0.5837049846   -2.2235716138   -4.4892078290
H       -0.0687018271   -2.8849936454   -2.9946393736
H        3.8057850773   -3.3190876009   -2.0362854771
H        2.2366842638   -3.3146234556   -1.1912973633
H        1.2989824044   -0.2852843672   -3.2570059378
H        0.6596421077   -1.0287170015   -1.7802135213
H        2.9968841166   -0.7848175021    2.4682123180
H        2.6166151563    0.5986529943    1.4358723122
H        4.2595178847   -0.0668200363    1.4631680021
H        3.3840833292   -2.2306246969    0.4885467477
H        1.7569206366   -1.5469039143    0.4407168710
H        2.6572483248    0.3027580788   -1.1007725927
H        4.2119619045   -0.5371971933   -1.0991707274
H        3.3001682328   -1.2400719895   -2.9586123940
24   
torsion grid (105,)
C        1.9961687959   -3.5067561698   -3.3837146597
C        0.8975410749   -2.4515802286   -3.6825651266
C        2.6453908541   -3.0390782237   -2.0824559265
C        1.2517372587   -1.2238329336   -2.8176841408
C        3.3160311379   -0.3655240169    1.4420626933
C        2.9233599416   -1.3481741215    0.3291100800
C        3.0045529507   -0.6555322243   -1.0276773453
N        2.6206804156   -1.5301602861   -2.2269172609
H        1.5934786560   -4.5151568394   -3.2776682813
H        2.7382336410   -3.5364901447   -4.1872052864
H        0.8710316067   -2.1986155402   -4.7433981337
H       -0.0926244553   -2.8203657836   -3.4104665319
H        3.6718738028   -3.3739799880   -1.9288454308
H        2.0452315621   -3.2905266623   -1.2083876475
H        1.3152534251   -0.2792661354   -3.3590239428
H        0.5738293130   -1.0992917388   -1.9715079708
H        3.2645835722   -0.8609441335    2.4142512023
H        2.6434689184    0.4973909342    1.4701363730
H        4.3381483766    0.0023652429    1.3080363408
H        3.5935731037   -2.2127170836    0.3511110120
H        1.9065819308   -1.7141407372    0.5121617286
H        2.3552446394    0.2208734739   -1.0690063728
H        4.0283573503   -0.3212117966   -1.2108322021
H        3.2974333774   -1.3148300692   -2.9641878244
24   
torsion grid (120,)
C        2.0343712770   -3.5058526902   -3.1730352439
C        1.0629447822   -2.3892616302   -3.6509427999
C        2.6123268829   -3.0023801026   -1.8486983612
C        1.3118886488   -1.1954880127   -2.7128081523
C        3.4936920541   -0.2931334044    1.5936624402
C        3.1450971487   -1.3126344723    0.4991971595
C        2.9568071976   -0.5929853842   -0.8338613831
N        2.6399163956   -1.4956986729   -2.0375070782
H        1.5351629991   -4.4655443724   -3.0319934322
H        2.8344687609   -3.6618197841   -3.9016471609
H        1.2566372452   -2.1215018104   -4.6910385864
H        0.0194688170   -2.7006160824   -3.5851527747
H        3.6155550438   -3.3610490193   -1.6196413146
H        1.9529905540   -3.2063167379   -1.0054904229
H        1.3790625251   -0.2240910626   -3.2045553763
H        0.5741415461   -1.1354559137   -1.9103328570
H        3.6117745092   -0.8009484811    2.5535925932
H        2.7053736237    0.4575783212    1.7077222130
H        4.4310062200    0.2268414881    1.3724392746
H        3.9461227175   -2.0544184222    0.4221424282
H        2.2294246816   -1.8430771129    0.7796800986
H        2.1408407258    0.1288069241   -0.7704425529
H        3.8634475544   -0.0444690871   -1.0973372781
H        3.3662618888   -1.3186315678   -2.7367009336
24   
torsion grid (135,)
C        1.9621785603   -3.4912463348   -3.1289844627
C        1.1539780633   -2.3150798572   -3.7498317385
C        2.4624824680   -2.9742438298   -1.7761936856
C        1.3212084190   -1.1458931549   -2.7695632054
C        3.4947524694   -0.2726475325    1.6226210290
C        3.2486614557   -1.2976690581    0.5058076834
C        2.8280807299   -0.5760582986   -0.7728158117
N        2.5852302360   -1.4741940237   -1.9929826964
H        1.3569122352   -4.3881052443   -2.9899039570
H        2.8037735871   -3.7655683226   -3.7697406119
H        1.5384360561   -2.0553062893   -4.7381167073
H        0.0963184697   -2.5554239717   -3.8668762286
H        3.4216348125   -3.3785760934   -1.4552224974
H        1.7269857816   -3.1178136922   -0.9845108285
H        1.4288835272   -0.1631050081   -3.2311476977
H        0.5197858086   -1.1052652003   -2.0295862616
H        3.7866123850   -0.7846530223    2.5423881995
H        2.5932410435    0.3101813079    1.8365184945
H        4.2967341790    0.4235774497    1.3582674510
H        4.1622946218   -1.8774346320    0.3355836051
H        2.4691496132   -1.9964682007    0.8220343644
H        1.8945497072   -0.0353600773   -0.6055027409
H        3.5815366757    0.1530614975   -1.0775805525
H        3.3760634170   -1.3433630355   -2.6302714272
24   
torsion grid (150,)
C        1.9139164249   -3.4939558480   -3.0908325139
C        1.2297887184   -2.2918891410   -3.8034582490
C        2.3479117621   -2.9636880782   -1.7200791804
C        1.3734784720   -1.1118717285   -2.8333587605
C        3.5357417987   -0.2743867594    1.6259249410
C        3.3695966045   -1.2791270168    0.4766728924
C        2.7308427851   -0.5919408248   -0.7283802859
N        2.5613795807   -1.4774250496   -1.9588897638
H        1.2441998076   -4.3466907333   -2.9710052095
H        2.7802831240   -3.8408715143   -3.6590653606
H        1.7146070145   -2.0751913697   -4.7574612885
H        0.1750104609   -2.4774823412   -4.0111390880
H        3.2603606397   -3.4067715182   -1.3234726352
H        1.5543406935   -3.0452962600   -0.9753760779
H        1.5549106754   -0.1435852041   -3.3025072922
H        0.5217621600   -1.0247458135   -2.1567755628
H        3.9810492342   -0.7671340406    2.4932086533
H        2.5713497420    0.1402322672    1.9362126030
H        4.1887758107    0.5563043307    1.3410533168
H        4.3496906824   -1.6898466132    0.2065531628
H        2.7456939015   -2.1127526864    0.8100871826
H        1.7284334909   -0.2435842172   -0.4691003828
H        3.3111576270    0.2750432548   -1.0522786048
H        3.4099718788   -1.3894030208   -2.5266013071
24   
torsion grid (165,)
C        1.7679439407   -3.5174371981   -3.0228005817
C        1.2527456008   -2.2823120190   -3.8162457775
C        2.2172877777   -2.9777903399   -1.6561999669
C        1.3589013899   -1.1050105220   -2.8427238598
C        3.6081423653   -0.2416431612    1.6038925321
C        3.4584320753   -1.2334527562    0.4418043148
C        2.5905597566   -0.6320802206   -0.6610730786
N        2.4802321389   -1.5010922518   -1.8992106471
H        0.9947603274   -4.2750813797   -2.8880074982
H        2.6007530636   -3.9946262411   -3.5432848297
H        1.8649902243   -2.1055019959   -4.7034844631
H        0.2221979037   -2.4020274271   -4.1533884234
H        3.1146478804   -3.4453895015   -1.2534169105
H        1.4235566801   -3.0251420124   -0.9077826884
H        1.5939236938   -0.1428912425   -3.3005001771
H        0.4674730205   -0.9965562234   -2.2220754605
H        4.2163809354   -0.6814386200    2.3975189540
H        2.6356202578    0.0178946730    2.0340844544
H        4.0962604105    0.6830171410    1.2808728708
H        4.4501185733   -1.4855142295    0.0452245847
H        3.0096428445   -2.1607330445    0.8090321265
H        1.5676251071   -0.4832331344   -0.3059019229
H        2.9761430251    0.3339701881   -0.9968066225
H        3.3654428485   -1.4300453578   -2.4119226929
24   
torsion grid (180,)
C        1.7077132934   -3.5271715634   -3.0180411870
C        1.3135480566   -2.2674917689   -3.8419497657
C        2.1123909986   -3.0121768360   -1.6277073533
C        1.4263789073   -1.0902159967   -2.8682852834
C        3.6404626422   -0.2111360672    1.5970976007
C        3.5435828049   -1.1810365621    0.4113988600
C        2.5059771484   -0.6958199928   -0.5974436004
N        2.4490686559   -1.5474723747   -1.8454477919
H        0.8837415742   -4.2362802779   -2.9271113238
H        2.5376669148   -4.0556801161   -3.4911199990
H        1.9889685339   -2.1311912996   -4.6895894803
H        0.3009939046   -2.3310067585   -4.2427789599
H        2.9695221763   -3.5190228256   -1.1863095640
H        1.2838644399   -3.0280288672   -0.9163216247
H        1.7580621466   -0.1506474378   -3.3124723805
H        0.5014935124   -0.9158061997   -2.3145711449
H        4.3760312357   -0.5716916063    2.3196717693
H        2.6809144861   -0.1192355671    2.1155942843
H        3.9504411238    0.7870249040    1.2726909798
H        4.5238544160   -1.2646768128   -0.0755065171
H        3.2761867810   -2.1777987116    0.7755558801
H        1.4987274426   -0.7084461846   -0.1729318316
H        2.7233432723    0.3227521033   -0.9302269453
H        3.3733367640   -1.5075154605   -2.2885985701
