
  -OEChem-05262117483D

 68 72  0     1  0  0  0  0  0999 V2000
    3.2456    9.8060    4.1963 C   0  0  0  0  0  0  0  0  0  0  0  0
    3.6859    8.5081    4.4750 C   0  0  0  0  0  0  0  0  0  0  0  0
    2.8115   10.1350    2.9067 C   0  0  0  0  0  0  0  0  0  0  0  0
  -10.0244   -6.6561   -0.9877 C   0  0  0  0  0  0  0  0  0  0  0  0
   -1.0053    0.3555   -0.2868 C   0  0  0  0  0  0  0  0  0  0  0  0
    0.6599    3.5644   -1.1492 C   0  0  0  0  0  0  0  0  0  0  0  0
    1.3737    2.0202    0.5708 C   0  0  0  0  0  0  0  0  0  0  0  0
    3.7068    7.5443    3.4641 C   0  0  0  0  0  0  0  0  0  0  0  0
    2.8204    9.1713    1.8985 C   0  0  0  0  0  0  0  0  0  0  0  0
   -8.8947   -5.8516   -1.1420 C   0  0  0  0  0  0  0  0  0  0  0  0
   -2.2310   -0.2939   -0.3757 C   0  0  0  0  0  0  0  0  0  0  0  0
    1.8779    4.2351   -1.0708 C   0  0  0  0  0  0  0  0  0  0  0  0
    2.5987    2.6761    0.6618 C   0  0  0  0  0  0  0  0  0  0  0  0
   -2.1083    2.4680   -0.6272 C   0  0  0  0  0  0  0  0  0  0  0  0
  -11.1259   -6.4227   -1.8167 C   0  0  0  0  0  0  0  0  0  0  0  0
  -10.0575   -4.7040   -2.8941 C   0  0  0  0  0  0  0  0  0  0  0  0
    0.3827    2.4526   -0.3315 C   0  0  0  0  0  0  0  0  0  0  0  0
   -0.9194    1.7544   -0.4176 C   0  0  0  0  0  0  0  0  0  0  0  0
    3.2794    7.8731    2.1680 C   0  0  0  0  0  0  0  0  0  0  0  0
   -3.3550    1.8409   -0.7125 C   0  0  0  0  0  0  0  0  0  0  0  0
   -8.9025   -4.8436   -2.1110 C   0  0  0  0  0  0  0  0  0  0  0  0
   -3.4031    0.4421   -0.5922 C   0  0  0  0  0  0  0  0  0  0  0  0
    2.8336    3.7826   -0.1587 C   0  0  0  0  0  0  0  0  0  0  0  0
    3.2613    6.8923    1.0364 C   0  0  0  0  0  0  0  0  0  0  0  0
   -4.6282    2.6373   -0.9074 C   0  0  0  0  0  0  0  0  0  0  0  0
   -5.8570    1.8011   -0.5367 C   0  0  0  0  0  0  0  0  0  0  0  0
   -5.7375    0.4172   -1.1647 C   0  0  2  0  0  0  0  0  0  0  0  0
   -6.9189   -0.4938   -0.8739 C   0  0  0  0  0  0  0  0  0  0  0  0
   -7.8213   -2.7440   -1.2563 C   0  0  0  0  0  0  0  0  0  0  0  0
   -7.7298   -3.9043   -2.2657 C   0  0  2  0  0  0  0  0  0  0  0  0
  -11.1505   -5.4694   -2.7586 N   0  0  0  0  0  0  0  0  0  0  0  0
    4.1196    5.8053    1.1750 N   0  0  0  0  0  0  0  0  0  0  0  0
   -6.7528   -1.7836   -1.5447 N   0  0  0  0  0  0  0  0  0  0  0  0
    2.5345    7.0194    0.0598 O   0  0  0  0  0  0  0  0  0  0  0  0
    4.6936    5.2749   -1.3112 O   0  0  0  0  0  0  0  0  0  0  0  0
    5.3780    3.7491    0.6153 O   0  0  0  0  0  0  0  0  0  0  0  0
   -4.5740   -0.2715   -0.6500 O   0  0  0  0  0  0  0  0  0  0  0  0
   -7.6917   -3.3751   -3.5840 O   0  0  0  0  0  0  0  0  0  0  0  0
    4.4010    4.6191   -0.0446 S   0  0  0  0  0  0  0  0  0  0  0  0
    3.2347   10.5561    4.9827 H   0  0  0  0  0  0  0  0  0  0  0  0
    4.0065    8.2448    5.4793 H   0  0  0  0  0  0  0  0  0  0  0  0
    2.4648   11.1418    2.6897 H   0  0  0  0  0  0  0  0  0  0  0  0
  -10.0533   -7.4514   -0.2480 H   0  0  0  0  0  0  0  0  0  0  0  0
   -0.1023   -0.2326   -0.1500 H   0  0  0  0  0  0  0  0  0  0  0  0
   -0.0769    3.8927   -1.8762 H   0  0  0  0  0  0  0  0  0  0  0  0
    1.1746    1.1758    1.2240 H   0  0  0  0  0  0  0  0  0  0  0  0
    4.0191    6.5321    3.7077 H   0  0  0  0  0  0  0  0  0  0  0  0
    2.4777    9.4033    0.8950 H   0  0  0  0  0  0  0  0  0  0  0  0
   -8.0146   -6.0116   -0.5212 H   0  0  0  0  0  0  0  0  0  0  0  0
   -2.3005   -1.3748   -0.2934 H   0  0  0  0  0  0  0  0  0  0  0  0
    2.0921    5.0921   -1.6985 H   0  0  0  0  0  0  0  0  0  0  0  0
    3.3654    2.3386    1.3519 H   0  0  0  0  0  0  0  0  0  0  0  0
   -2.0734    3.5536   -0.6891 H   0  0  0  0  0  0  0  0  0  0  0  0
  -12.0247   -7.0309   -1.7242 H   0  0  0  0  0  0  0  0  0  0  0  0
  -10.0851   -3.9465   -3.6728 H   0  0  0  0  0  0  0  0  0  0  0  0
   -4.5905    3.5520   -0.3070 H   0  0  0  0  0  0  0  0  0  0  0  0
   -4.7057    2.9556   -1.9550 H   0  0  0  0  0  0  0  0  0  0  0  0
   -5.9312    1.6915    0.5513 H   0  0  0  0  0  0  0  0  0  0  0  0
   -6.7740    2.2862   -0.8863 H   0  0  0  0  0  0  0  0  0  0  0  0
   -5.6137    0.5075   -2.2531 H   0  0  0  0  0  0  0  0  0  0  0  0
   -7.8293   -0.0178   -1.2547 H   0  0  0  0  0  0  0  0  0  0  0  0
   -7.0285   -0.5940    0.2194 H   0  0  0  0  0  0  0  0  0  0  0  0
   -7.7990   -3.1329   -0.2256 H   0  0  0  0  0  0  0  0  0  0  0  0
   -8.7839   -2.2407   -1.3988 H   0  0  0  0  0  0  0  0  0  0  0  0
   -6.8015   -4.4659   -2.0622 H   0  0  0  0  0  0  0  0  0  0  0  0
    4.8427    5.7945    1.8881 H   0  0  0  0  0  0  0  0  0  0  0  0
   -5.8550   -2.1743   -1.2608 H   0  0  0  0  0  0  0  0  0  0  0  0
   -7.1837   -2.5434   -3.4995 H   0  0  0  0  0  0  0  0  0  0  0  0
  1  2  1  0  0  0  0
  1  3  2  0  0  0  0
  1 40  1  0  0  0  0
  2  8  2  0  0  0  0
  2 41  1  0  0  0  0
  3  9  1  0  0  0  0
  3 42  1  0  0  0  0
  4 10  2  0  0  0  0
  4 15  1  0  0  0  0
  4 43  1  0  0  0  0
  5 11  2  0  0  0  0
  5 18  1  0  0  0  0
  5 44  1  0  0  0  0
  6 12  2  0  0  0  0
  6 17  1  0  0  0  0
  6 45  1  0  0  0  0
  7 13  1  0  0  0  0
  7 17  2  0  0  0  0
  7 46  1  0  0  0  0
  8 19  1  0  0  0  0
  8 47  1  0  0  0  0
  9 19  2  0  0  0  0
  9 48  1  0  0  0  0
 10 21  1  0  0  0  0
 10 49  1  0  0  0  0
 11 22  1  0  0  0  0
 11 50  1  0  0  0  0
 12 23  1  0  0  0  0
 12 51  1  0  0  0  0
 13 23  2  0  0  0  0
 13 52  1  0  0  0  0
 14 18  2  0  0  0  0
 14 20  1  0  0  0  0
 14 53  1  0  0  0  0
 15 31  2  0  0  0  0
 15 54  1  0  0  0  0
 16 21  2  0  0  0  0
 16 31  1  0  0  0  0
 16 55  1  0  0  0  0
 17 18  1  0  0  0  0
 19 24  1  0  0  0  0
 20 22  2  0  0  0  0
 20 25  1  0  0  0  0
 21 30  1  0  0  0  0
 22 37  1  0  0  0  0
 23 39  1  0  0  0  0
 24 32  1  0  0  0  0
 24 34  2  0  0  0  0
 25 26  1  0  0  0  0
 25 56  1  0  0  0  0
 25 57  1  0  0  0  0
 26 27  1  0  0  0  0
 26 58  1  0  0  0  0
 26 59  1  0  0  0  0
 27 28  1  0  0  0  0
 27 37  1  0  0  0  0
 27 60  1  0  0  0  0
 28 33  1  0  0  0  0
 28 61  1  0  0  0  0
 28 62  1  0  0  0  0
 29 30  1  0  0  0  0
 29 33  1  0  0  0  0
 29 63  1  0  0  0  0
 29 64  1  0  0  0  0
 30 38  1  0  0  0  0
 30 65  1  0  0  0  0
 32 39  1  0  0  0  0
 32 66  1  0  0  0  0
 33 67  1  0  0  0  0
 35 39  2  0  0  0  0
 36 39  2  0  0  0  0
 38 68  1  0  0  0  0
M  END
$$$$
