66
0 1 C27F3H30NO5
C                    -0.994642522363    -0.822564777541     6.272916461441
C                    -3.032110099347    -1.920312314633    -1.976182124854
C                    -1.711088139408     0.065713786949     5.484153269823
C                    -2.620539269308    -0.781581717108    -1.283555112735
C                    -4.923544128780    -0.281216374606    -0.683604969311
C                    -0.636393038017    -2.049360051612     5.686733492874
C                    -4.388814150511    -2.259550308628    -2.011211841123
C                    -5.317734942975    -1.427584618563    -1.375808560285
C                    -1.725532650510    -1.461372197165     3.535331702302
C                    -1.005594696713    -2.328394078234     4.364795876440
C                    -3.557689794002     0.027406923841    -0.621849666028
C                    -2.067705392523    -0.249587378640     4.150379144544
C                     0.067001592609    -3.237934152240     6.074320926912
C                    -3.021585743604    -4.811245908873    -3.260481980428
C                    -6.720988845367    -1.957327345043    -1.569773355005
C                    -6.477488221757    -3.426907869219    -1.978525549089
C                    -5.091035933934    -3.436220218645    -2.676406989280
C                    -3.818421718783    -3.641304550591     2.819856463967
C                    -5.221206637872    -5.950067868843    -3.129044801964
C                    -1.865752784227    -4.343534276964    -5.272074559263
C                    -2.130809483848    -1.824239514689     2.128633946374
C                    -3.576532402738    -2.352930628465     2.027484236147
C                    -3.014824732139     2.551708760883     1.971819439760
C                    -3.893732272034     1.751188511086     1.019961482267
C                    -2.049075079100     1.675500225850     2.758032642819
C                    -4.371033092427    -4.794581700459    -2.563430321855
C                     0.703616085997    -3.517088429092     7.406263411112
N                     0.120791847520    -4.125714729224     5.113761062947
O                    -1.987199504420    -5.227453537801    -2.772874830595
O                    -0.553858173362    -3.571590342683     4.019169771577
O                    -3.038090299254     1.080577874482     0.089015655620
O                    -2.820754393025     0.668543109491     3.445694866722
O                    -3.100454246290    -4.334012505656    -4.527842270227
F                     1.651346948090    -2.584650523798     7.684443864310
F                    -0.220282375521    -3.440333190306     8.399021723931
F                     1.279551596089    -4.725096933206     7.467526018661
H                    -0.729775157057    -0.583217988656     7.297684518522
H                    -2.278531874007    -2.538977746756    -2.452416192784
H                    -2.032075181831     1.024927529925     5.879825245739
H                    -1.568962226884    -0.518562222747    -1.214731615907
H                    -5.665118762861     0.337901297652    -0.189984445451
H                    -7.346233214952    -1.861644040693    -0.676197107499
H                    -7.222973321964    -1.405941006058    -2.376334443126
H                    -6.424444916355    -4.045348983122    -1.073978066270
H                    -7.273057045063    -3.829583696022    -2.610666134917
H                    -5.224001270347    -3.215938959688    -3.744004718295
H                    -3.137128946960    -4.436924275452     2.499125199349
H                    -3.667524397654    -3.489976680299     3.894013392135
H                    -4.844347292803    -3.997938578623     2.677858988045
H                    -5.486115845220    -5.762572530113    -4.174089146431
H                    -6.143957673860    -6.064111315191    -2.554346100724
H                    -4.674992561612    -6.896911396006    -3.076058531281
H                    -2.113271439814    -3.937785475764    -6.252927485530
H                    -1.480666940201    -5.362072971048    -5.359898052712
H                    -1.117626195430    -3.719990127298    -4.776383206224
H                    -2.035641254136    -0.946792202265     1.487401815604
H                    -1.443580793666    -2.583260311765     1.741609181173
H                    -4.263655077557    -1.569464945235     2.366129101865
H                    -3.793131583162    -2.522770096564     0.968043096487
H                    -2.433715879800     3.293190386777     1.412506846384
H                    -3.667570256151     3.094924370897     2.664368990919
H                    -4.475132621639     1.016701708315     1.585660948236
H                    -4.585816395961     2.413251311163     0.483078340137
H                    -1.489572458188     2.273291633177     3.489103516735
H                    -1.332798777595     1.189555475641     2.086819606754
H                    -4.153024697216    -4.994358861242    -1.509694686212
