
  -OEChem-05262117483D

 58 60  0     1  0  0  0  0  0999 V2000
   -5.0399   -8.7904   12.2042 C   0  0  0  0  0  0  0  0  0  0  0  0
   -3.8887   -8.6519   12.9871 C   0  0  0  0  0  0  0  0  0  0  0  0
   -5.1896   -8.0073   11.0548 C   0  0  0  0  0  0  0  0  0  0  0  0
    4.2563   -4.9907    7.6579 C   0  0  0  0  0  0  0  0  0  0  0  0
   -2.8958   -7.7390   12.6191 C   0  0  0  0  0  0  0  0  0  0  0  0
   -4.1930   -7.0958   10.6929 C   0  0  0  0  0  0  0  0  0  0  0  0
    4.1745   -5.2644    6.2947 C   0  0  0  0  0  0  0  0  0  0  0  0
    3.1923   -4.3807    8.3323 C   0  0  0  0  0  0  0  0  0  0  0  0
    1.9469   -4.3180    6.2228 C   0  0  0  0  0  0  0  0  0  0  0  0
    1.4917   -5.1744    1.0339 C   0  0  0  0  0  0  0  0  0  0  0  0
   -3.0330   -6.9486   11.4681 C   0  0  0  0  0  0  0  0  0  0  0  0
    3.0221   -4.9275    5.5536 C   0  0  0  0  0  0  0  0  0  0  0  0
    2.0553   -4.0651    7.5887 C   0  0  0  0  0  0  0  0  0  0  0  0
    0.4251   -4.3120    1.2183 C   0  0  0  0  0  0  0  0  0  0  0  0
    0.2593   -3.7225    2.5009 C   0  0  0  0  0  0  0  0  0  0  0  0
    2.1067   -4.9014    3.1971 C   0  0  0  0  0  0  0  0  0  0  0  0
    0.0986   -1.2481    4.5218 C   0  0  0  0  0  0  0  0  0  0  0  0
   -1.9343   -6.0024   11.0419 C   0  0  0  0  0  0  0  0  0  0  0  0
   -0.8855   -6.7024   10.1592 C   0  0  0  0  0  0  0  0  0  0  0  0
    0.2204   -5.7631    9.6755 C   0  0  0  0  0  0  0  0  0  0  0  0
   -2.3439   -1.6814    4.1596 C   0  0  0  0  0  0  0  0  0  0  0  0
   -0.9490   -2.2930    4.1266 C   0  0  1  0  0  0  0  0  0  0  0  0
    2.3594   -5.4848    2.0108 N   0  0  0  0  0  0  0  0  0  0  0  0
    1.1173   -4.0531    3.4848 N   0  0  0  0  0  0  0  0  0  0  0  0
    3.0058   -5.2440    4.1930 N   0  0  0  0  0  0  0  0  0  0  0  0
   -0.7130   -2.8229    2.7756 N   0  0  0  0  0  0  0  0  0  0  0  0
   -0.3497   -4.7239    8.7994 N   0  0  0  0  0  0  0  0  0  0  0  0
    1.0521   -2.8221    9.6962 O   0  0  0  0  0  0  0  0  0  0  0  0
   -0.1729   -2.6266    7.4498 O   0  0  0  0  0  0  0  0  0  0  0  0
   -3.2817   -2.6570    3.6853 O   0  0  0  0  0  0  0  0  0  0  0  0
    0.6101   -3.3927    8.4243 S   0  0  0  0  0  0  0  0  0  0  0  0
   -0.7794   -3.9163   -0.2158 Br  0  0  0  0  0  0  0  0  0  0  0  0
   -5.8147   -9.4972   12.4901 H   0  0  0  0  0  0  0  0  0  0  0  0
   -3.7668   -9.2515   13.8859 H   0  0  0  0  0  0  0  0  0  0  0  0
   -6.0839   -8.1030   10.4438 H   0  0  0  0  0  0  0  0  0  0  0  0
    5.1621   -5.2484    8.1997 H   0  0  0  0  0  0  0  0  0  0  0  0
   -2.0055   -7.6332   13.2365 H   0  0  0  0  0  0  0  0  0  0  0  0
   -4.3192   -6.4849    9.8009 H   0  0  0  0  0  0  0  0  0  0  0  0
    5.0156   -5.7342    5.7890 H   0  0  0  0  0  0  0  0  0  0  0  0
    3.2449   -4.1416    9.3888 H   0  0  0  0  0  0  0  0  0  0  0  0
    1.0627   -4.0310    5.6750 H   0  0  0  0  0  0  0  0  0  0  0  0
    1.6623   -5.6363    0.0637 H   0  0  0  0  0  0  0  0  0  0  0  0
    0.0714   -0.3975    3.8321 H   0  0  0  0  0  0  0  0  0  0  0  0
    1.0976   -1.6850    4.4960 H   0  0  0  0  0  0  0  0  0  0  0  0
   -0.0864   -0.8998    5.5408 H   0  0  0  0  0  0  0  0  0  0  0  0
   -1.4324   -5.5869   11.9236 H   0  0  0  0  0  0  0  0  0  0  0  0
   -2.3529   -5.1548   10.4916 H   0  0  0  0  0  0  0  0  0  0  0  0
   -1.3815   -7.1671    9.2970 H   0  0  0  0  0  0  0  0  0  0  0  0
   -0.4191   -7.5220   10.7182 H   0  0  0  0  0  0  0  0  0  0  0  0
    1.0079   -6.3332    9.1629 H   0  0  0  0  0  0  0  0  0  0  0  0
    0.6752   -5.2487   10.5259 H   0  0  0  0  0  0  0  0  0  0  0  0
   -2.5628   -1.3850    5.1924 H   0  0  0  0  0  0  0  0  0  0  0  0
   -2.3704   -0.7832    3.5243 H   0  0  0  0  0  0  0  0  0  0  0  0
   -0.9208   -3.1206    4.8428 H   0  0  0  0  0  0  0  0  0  0  0  0
    3.7534   -5.8343    3.8490 H   0  0  0  0  0  0  0  0  0  0  0  0
   -1.5020   -2.8076    2.1391 H   0  0  0  0  0  0  0  0  0  0  0  0
   -0.7633   -5.0924    7.9432 H   0  0  0  0  0  0  0  0  0  0  0  0
   -4.1672   -2.2633    3.6986 H   0  0  0  0  0  0  0  0  0  0  0  0
  1  2  1  0  0  0  0
  1  3  2  0  0  0  0
  1 33  1  0  0  0  0
  2  5  2  0  0  0  0
  2 34  1  0  0  0  0
  3  6  1  0  0  0  0
  3 35  1  0  0  0  0
  4  7  1  0  0  0  0
  4  8  2  0  0  0  0
  4 36  1  0  0  0  0
  5 11  1  0  0  0  0
  5 37  1  0  0  0  0
  6 11  2  0  0  0  0
  6 38  1  0  0  0  0
  7 12  2  0  0  0  0
  7 39  1  0  0  0  0
  8 13  1  0  0  0  0
  8 40  1  0  0  0  0
  9 12  1  0  0  0  0
  9 13  2  0  0  0  0
  9 41  1  0  0  0  0
 10 14  1  0  0  0  0
 10 23  2  0  0  0  0
 10 42  1  0  0  0  0
 11 18  1  0  0  0  0
 12 25  1  0  0  0  0
 13 31  1  0  0  0  0
 14 15  2  0  0  0  0
 14 32  1  0  0  0  0
 15 24  1  0  0  0  0
 15 26  1  0  0  0  0
 16 23  1  0  0  0  0
 16 24  2  0  0  0  0
 16 25  1  0  0  0  0
 17 22  1  0  0  0  0
 17 43  1  0  0  0  0
 17 44  1  0  0  0  0
 17 45  1  0  0  0  0
 18 19  1  0  0  0  0
 18 46  1  0  0  0  0
 18 47  1  0  0  0  0
 19 20  1  0  0  0  0
 19 48  1  0  0  0  0
 19 49  1  0  0  0  0
 20 27  1  0  0  0  0
 20 50  1  0  0  0  0
 20 51  1  0  0  0  0
 21 22  1  0  0  0  0
 21 30  1  0  0  0  0
 21 52  1  0  0  0  0
 21 53  1  0  0  0  0
 22 26  1  0  0  0  0
 22 54  1  0  0  0  0
 25 55  1  0  0  0  0
 26 56  1  0  0  0  0
 27 31  1  0  0  0  0
 27 57  1  0  0  0  0
 28 31  2  0  0  0  0
 29 31  2  0  0  0  0
 30 58  1  0  0  0  0
M  END
$$$$
