58
0 1 BrC22H26N5O3S
C                    -2.784090926787     4.260862974548     6.712375449076
C                    -2.885295883116     3.613413916446     5.476398511183
C                    -2.572147510964     3.504319065492     7.869866505866
C                     2.706365965471    -5.392075546149     7.607139683544
C                    -2.771703168749     2.221872806560     5.401314001269
C                    -2.460223324093     2.113002279117     7.788533355030
C                     2.904497787303    -5.800660234479     6.285914249676
C                     1.468052143973    -4.926068092404     8.050706308733
C                     0.585215526791    -5.285045692841     5.804532435801
C                     3.562707489356    -7.600775184563     1.297490698239
C                    -2.557514205308     1.452315636127     6.554617551789
C                     1.837796283395    -5.761496808096     5.368456832623
C                     0.423492652834    -4.875307165353     7.123033115044
C                     4.784548786301    -7.984690054674     1.823926448159
C                     5.026916123996    -7.721019143166     3.197095239680
C                     2.935503745897    -6.780694375433     3.318727156021
C                     5.794052112894    -8.449233465580     6.234454734622
C                    -2.379734290285    -0.045891448942     6.466571840954
C                    -0.910250589663    -0.435990527358     6.225996429588
C                    -0.685756974274    -1.948945416155     6.196773136723
C                     8.045873174514    -7.820771291088     5.326142399371
C                     6.539011210953    -7.649552781887     5.160097063080
N                     2.615120589923    -6.997935569524     2.027889850479
N                     4.080997688557    -7.103748685671     3.929810928661
N                     1.930374868007    -6.154670421981     4.030450628477
N                     6.183730077378    -8.089737250310     3.807474984375
N                    -0.998702147668    -2.528375014576     7.514676025638
O                    -2.152321601107    -4.587157177551     6.622002363950
O                    -1.340000868849    -4.471892305533     9.056727421733
O                     8.700183300909    -7.124303357312     4.260953236305
S                    -1.165186812172    -4.198955019515     7.629948766521
Br                    6.100184838799    -8.842005619175     0.728969939846
H                    -2.875592439980     5.342282330755     6.773640781888
H                    -3.057268739723     4.191994762247     4.572058767461
H                    -2.499963675348     3.997466446716     8.836189268408
H                     3.538991068550    -5.445998486954     8.303666959252
H                    -2.857217491604     1.725468905824     4.436299142538
H                    -2.303637850668     1.530484693542     8.694598200583
H                     3.868497869356    -6.157357398645     5.956358574062
H                     1.303144565143    -4.636692122716     9.083465846587
H                    -0.265957047018    -5.254223681537     5.129640030590
H                     3.332072650726    -7.784212808317     0.250103273502
H                     6.057085281195    -9.510406088949     6.175478363127
H                     4.715667328693    -8.356267380372     6.102348909002
H                     6.051972841953    -8.080521586852     7.233472451829
H                    -2.990393615176    -0.450486834326     5.650892061098
H                    -2.727943854166    -0.525477854501     7.385919129746
H                    -0.277938613921     0.017810157539     7.000416934382
H                    -0.567324230510    -0.018591450648     5.272097308591
H                     0.345627956983    -2.176243141584     5.891776226199
H                    -1.361948371951    -2.414746093905     5.475521220036
H                     8.338867896099    -7.419184966077     6.304883929735
H                     8.297687595445    -8.891520741361     5.301840354021
H                     6.296799731822    -6.584050203034     5.259672550482
H                     1.105254132788    -6.010047920171     3.460519734528
H                     6.966836380489    -8.251328152762     3.183015882020
H                    -0.396957659575    -2.193591110456     8.266374153141
H                     9.654449342801    -7.281583698625     4.325944516441
