
  -OEChem-05262117483D

 34 34  0     1  0  0  0  0  0999 V2000
    3.0279    1.0741   -1.2765 C   0  0  0  0  0  0  0  0  0  0  0  0
    0.7418    0.3390   -1.1856 C   0  0  0  0  0  0  0  0  0  0  0  0
    3.4371   -0.2293   -1.0149 C   0  0  0  0  0  0  0  0  0  0  0  0
    1.6622    1.3782   -1.3688 C   0  0  0  0  0  0  0  0  0  0  0  0
    2.4283   -1.2098   -0.8548 C   0  0  0  0  0  0  0  0  0  0  0  0
    4.9023   -0.5745   -0.9048 C   0  0  0  0  0  0  0  0  0  0  0  0
    0.2715    6.7375   -1.0022 C   0  0  0  0  0  0  0  0  0  0  0  0
    0.3324    4.5776    1.4542 C   0  0  0  0  0  0  0  0  0  0  0  0
    2.7708   -2.6521   -0.5727 C   0  0  0  0  0  0  0  0  0  0  0  0
   -0.1527    4.5287   -1.8896 C   0  0  0  0  0  0  0  0  0  0  0  0
   -0.0414    3.0308   -1.6739 C   0  0  0  0  0  0  0  0  0  0  0  0
    1.1260   -0.9222   -0.9379 N   0  0  0  0  0  0  0  0  0  0  0  0
    0.3801    5.2993   -0.7659 N   0  0  2  0  0  0  0  0  0  0  0  0
    3.4753   -3.1985   -1.7029 O   0  0  0  0  0  0  0  0  0  0  0  0
    1.3439    2.6784   -1.6309 O   0  0  0  0  0  0  0  0  0  0  0  0
   -0.4823    5.0080    0.3641 O   0  0  0  0  0  0  0  0  0  0  0  0
    3.7504    1.8755   -1.4094 H   0  0  0  0  0  0  0  0  0  0  0  0
   -0.3296    0.5084   -1.2410 H   0  0  0  0  0  0  0  0  0  0  0  0
    5.1274   -1.0369    0.0634 H   0  0  0  0  0  0  0  0  0  0  0  0
    5.1895   -1.2935   -1.6760 H   0  0  0  0  0  0  0  0  0  0  0  0
    5.5240    0.3196   -1.0023 H   0  0  0  0  0  0  0  0  0  0  0  0
    0.6327    7.2713   -0.1200 H   0  0  0  0  0  0  0  0  0  0  0  0
   -0.7610    7.0568   -1.2156 H   0  0  0  0  0  0  0  0  0  0  0  0
    0.9128    6.9974   -1.8503 H   0  0  0  0  0  0  0  0  0  0  0  0
   -0.3599    4.3590    2.2723 H   0  0  0  0  0  0  0  0  0  0  0  0
    1.0298    5.3659    1.7643 H   0  0  0  0  0  0  0  0  0  0  0  0
    0.9029    3.6792    1.1925 H   0  0  0  0  0  0  0  0  0  0  0  0
    3.3980   -2.7236    0.3296 H   0  0  0  0  0  0  0  0  0  0  0  0
    1.8337   -3.1898   -0.3929 H   0  0  0  0  0  0  0  0  0  0  0  0
    0.4227    4.8130   -2.7766 H   0  0  0  0  0  0  0  0  0  0  0  0
   -1.2135    4.7696   -2.0754 H   0  0  0  0  0  0  0  0  0  0  0  0
   -0.5360    2.5062   -2.5024 H   0  0  0  0  0  0  0  0  0  0  0  0
   -0.5361    2.7493   -0.7383 H   0  0  0  0  0  0  0  0  0  0  0  0
    3.7102   -4.1151   -1.4900 H   0  0  0  0  0  0  0  0  0  0  0  0
  1  3  1  0  0  0  0
  1  4  2  0  0  0  0
  1 17  1  0  0  0  0
  2  4  1  0  0  0  0
  2 12  2  0  0  0  0
  2 18  1  0  0  0  0
  3  5  2  0  0  0  0
  3  6  1  0  0  0  0
  4 15  1  0  0  0  0
  5  9  1  0  0  0  0
  5 12  1  0  0  0  0
  6 19  1  0  0  0  0
  6 20  1  0  0  0  0
  6 21  1  0  0  0  0
  7 13  1  0  0  0  0
  7 22  1  0  0  0  0
  7 23  1  0  0  0  0
  7 24  1  0  0  0  0
  8 16  1  0  0  0  0
  8 25  1  0  0  0  0
  8 26  1  0  0  0  0
  8 27  1  0  0  0  0
  9 14  1  0  0  0  0
  9 28  1  0  0  0  0
  9 29  1  0  0  0  0
 10 11  1  0  0  0  0
 10 13  1  0  0  0  0
 10 30  1  0  0  0  0
 10 31  1  0  0  0  0
 11 15  1  0  0  0  0
 11 32  1  0  0  0  0
 11 33  1  0  0  0  0
 13 16  1  0  0  0  0
 14 34  1  0  0  0  0
M  END
$$$$
