
  -OEChem-05262117483D

 58 60  0     1  0  0  0  0  0999 V2000
   -2.7841    4.2609    6.7124 C   0  0  0  0  0  0  0  0  0  0  0  0
   -2.8853    3.6134    5.4764 C   0  0  0  0  0  0  0  0  0  0  0  0
   -2.5721    3.5043    7.8699 C   0  0  0  0  0  0  0  0  0  0  0  0
    2.7064   -5.3921    7.6071 C   0  0  0  0  0  0  0  0  0  0  0  0
   -2.7717    2.2219    5.4013 C   0  0  0  0  0  0  0  0  0  0  0  0
   -2.4602    2.1130    7.7885 C   0  0  0  0  0  0  0  0  0  0  0  0
    2.9045   -5.8007    6.2859 C   0  0  0  0  0  0  0  0  0  0  0  0
    1.4681   -4.9261    8.0507 C   0  0  0  0  0  0  0  0  0  0  0  0
    0.5852   -5.2850    5.8045 C   0  0  0  0  0  0  0  0  0  0  0  0
    3.5627   -7.6008    1.2975 C   0  0  0  0  0  0  0  0  0  0  0  0
   -2.5575    1.4523    6.5546 C   0  0  0  0  0  0  0  0  0  0  0  0
    1.8378   -5.7615    5.3685 C   0  0  0  0  0  0  0  0  0  0  0  0
    0.4235   -4.8753    7.1230 C   0  0  0  0  0  0  0  0  0  0  0  0
    4.7845   -7.9847    1.8239 C   0  0  0  0  0  0  0  0  0  0  0  0
    5.0269   -7.7210    3.1971 C   0  0  0  0  0  0  0  0  0  0  0  0
    2.9355   -6.7807    3.3187 C   0  0  0  0  0  0  0  0  0  0  0  0
    5.7941   -8.4492    6.2345 C   0  0  0  0  0  0  0  0  0  0  0  0
   -2.3797   -0.0459    6.4666 C   0  0  0  0  0  0  0  0  0  0  0  0
   -0.9103   -0.4360    6.2260 C   0  0  0  0  0  0  0  0  0  0  0  0
   -0.6858   -1.9489    6.1968 C   0  0  0  0  0  0  0  0  0  0  0  0
    8.0459   -7.8208    5.3261 C   0  0  0  0  0  0  0  0  0  0  0  0
    6.5390   -7.6496    5.1601 C   0  0  1  0  0  0  0  0  0  0  0  0
    2.6151   -6.9979    2.0279 N   0  0  0  0  0  0  0  0  0  0  0  0
    4.0810   -7.1037    3.9298 N   0  0  0  0  0  0  0  0  0  0  0  0
    1.9304   -6.1547    4.0305 N   0  0  0  0  0  0  0  0  0  0  0  0
    6.1837   -8.0897    3.8075 N   0  0  0  0  0  0  0  0  0  0  0  0
   -0.9987   -2.5284    7.5147 N   0  0  0  0  0  0  0  0  0  0  0  0
   -2.1523   -4.5872    6.6220 O   0  0  0  0  0  0  0  0  0  0  0  0
   -1.3400   -4.4719    9.0567 O   0  0  0  0  0  0  0  0  0  0  0  0
    8.7002   -7.1243    4.2610 O   0  0  0  0  0  0  0  0  0  0  0  0
   -1.1652   -4.1990    7.6299 S   0  0  0  0  0  0  0  0  0  0  0  0
    6.1002   -8.8420    0.7290 Br  0  0  0  0  0  0  0  0  0  0  0  0
   -2.8756    5.3423    6.7736 H   0  0  0  0  0  0  0  0  0  0  0  0
   -3.0573    4.1920    4.5721 H   0  0  0  0  0  0  0  0  0  0  0  0
   -2.5000    3.9975    8.8362 H   0  0  0  0  0  0  0  0  0  0  0  0
    3.5390   -5.4460    8.3037 H   0  0  0  0  0  0  0  0  0  0  0  0
   -2.8572    1.7255    4.4363 H   0  0  0  0  0  0  0  0  0  0  0  0
   -2.3036    1.5305    8.6946 H   0  0  0  0  0  0  0  0  0  0  0  0
    3.8685   -6.1574    5.9564 H   0  0  0  0  0  0  0  0  0  0  0  0
    1.3031   -4.6367    9.0835 H   0  0  0  0  0  0  0  0  0  0  0  0
   -0.2660   -5.2542    5.1296 H   0  0  0  0  0  0  0  0  0  0  0  0
    3.3321   -7.7842    0.2501 H   0  0  0  0  0  0  0  0  0  0  0  0
    6.0571   -9.5104    6.1755 H   0  0  0  0  0  0  0  0  0  0  0  0
    4.7157   -8.3563    6.1023 H   0  0  0  0  0  0  0  0  0  0  0  0
    6.0520   -8.0805    7.2335 H   0  0  0  0  0  0  0  0  0  0  0  0
   -2.9904   -0.4505    5.6509 H   0  0  0  0  0  0  0  0  0  0  0  0
   -2.7279   -0.5255    7.3859 H   0  0  0  0  0  0  0  0  0  0  0  0
   -0.2779    0.0178    7.0004 H   0  0  0  0  0  0  0  0  0  0  0  0
   -0.5673   -0.0186    5.2721 H   0  0  0  0  0  0  0  0  0  0  0  0
    0.3456   -2.1762    5.8918 H   0  0  0  0  0  0  0  0  0  0  0  0
   -1.3619   -2.4147    5.4755 H   0  0  0  0  0  0  0  0  0  0  0  0
    8.3389   -7.4192    6.3049 H   0  0  0  0  0  0  0  0  0  0  0  0
    8.2977   -8.8915    5.3018 H   0  0  0  0  0  0  0  0  0  0  0  0
    6.2968   -6.5841    5.2597 H   0  0  0  0  0  0  0  0  0  0  0  0
    1.1053   -6.0100    3.4605 H   0  0  0  0  0  0  0  0  0  0  0  0
    6.9668   -8.2513    3.1830 H   0  0  0  0  0  0  0  0  0  0  0  0
   -0.3970   -2.1936    8.2664 H   0  0  0  0  0  0  0  0  0  0  0  0
    9.6544   -7.2816    4.3259 H   0  0  0  0  0  0  0  0  0  0  0  0
  1  2  1  0  0  0  0
  1  3  2  0  0  0  0
  1 33  1  0  0  0  0
  2  5  2  0  0  0  0
  2 34  1  0  0  0  0
  3  6  1  0  0  0  0
  3 35  1  0  0  0  0
  4  7  1  0  0  0  0
  4  8  2  0  0  0  0
  4 36  1  0  0  0  0
  5 11  1  0  0  0  0
  5 37  1  0  0  0  0
  6 11  2  0  0  0  0
  6 38  1  0  0  0  0
  7 12  2  0  0  0  0
  7 39  1  0  0  0  0
  8 13  1  0  0  0  0
  8 40  1  0  0  0  0
  9 12  1  0  0  0  0
  9 13  2  0  0  0  0
  9 41  1  0  0  0  0
 10 14  1  0  0  0  0
 10 23  2  0  0  0  0
 10 42  1  0  0  0  0
 11 18  1  0  0  0  0
 12 25  1  0  0  0  0
 13 31  1  0  0  0  0
 14 15  2  0  0  0  0
 14 32  1  0  0  0  0
 15 24  1  0  0  0  0
 15 26  1  0  0  0  0
 16 23  1  0  0  0  0
 16 24  2  0  0  0  0
 16 25  1  0  0  0  0
 17 22  1  0  0  0  0
 17 43  1  0  0  0  0
 17 44  1  0  0  0  0
 17 45  1  0  0  0  0
 18 19  1  0  0  0  0
 18 46  1  0  0  0  0
 18 47  1  0  0  0  0
 19 20  1  0  0  0  0
 19 48  1  0  0  0  0
 19 49  1  0  0  0  0
 20 27  1  0  0  0  0
 20 50  1  0  0  0  0
 20 51  1  0  0  0  0
 21 22  1  0  0  0  0
 21 30  1  0  0  0  0
 21 52  1  0  0  0  0
 21 53  1  0  0  0  0
 22 26  1  0  0  0  0
 22 54  1  0  0  0  0
 25 55  1  0  0  0  0
 26 56  1  0  0  0  0
 27 31  1  0  0  0  0
 27 57  1  0  0  0  0
 28 31  2  0  0  0  0
 29 31  2  0  0  0  0
 30 58  1  0  0  0  0
M  END
$$$$
