58
0 1 BrC22H26N5O3S
C                    -4.564884246340     2.800741805227     6.442667996163
C                    -4.540187360706     1.899788356437     5.372800229208
C                    -3.874346193010     2.491657487595     7.619507253471
C                     4.345388995461    -4.400693162870     7.100250586179
C                    -3.827182485635     0.701966709424     5.481190533623
C                    -3.164104713084     1.291724291216     7.721761467665
C                     4.266267911202    -4.836437638701     5.778231883922
C                     3.188177275445    -4.159161692330     7.848598169963
C                     1.850502151021    -4.837947280739     5.912637122108
C                     1.354770517013    -6.404484156173     0.885698682710
C                    -3.129662187724     0.380824962043     6.655272650661
C                     3.017806942061    -5.061349457548     5.162516773501
C                     1.961074364203    -4.384802357533     7.223966857469
C                     0.022537874365    -6.180011792540     1.189152983454
C                    -0.291265412794    -5.688477364621     2.484615805829
C                     1.959371768278    -5.723382020439     2.960957656573
C                    -3.169863431162    -4.204933589556     4.275134973880
C                    -2.317846512779    -0.889887077998     6.750127014786
C                    -0.868401192052    -0.686856890273     6.275056427622
C                    -0.032714703558    -1.964439095163     6.365894453137
C                    -2.128777004141    -6.389917495094     5.054516959533
C                    -1.930451815665    -5.100928880721     4.257695325057
N                     2.350909753615    -6.182055115087     1.756744379663
N                     0.709950633547    -5.472155055005     3.359524157746
N                     3.007695794343    -5.509631369190     3.840219718739
N                    -1.557571528672    -5.397271431345     2.869200280907
N                     0.116473306388    -2.383307305395     7.771337249435
O                    -0.642206589437    -4.761723531668     7.447997194086
O                     0.687685909875    -4.072578352133     9.533190745106
O                    -3.181180287987    -7.130313381647     4.418083682881
S                     0.433536034118    -4.003585539765     8.094032470602
Br                   -1.349942701026    -6.524430309716    -0.099862005112
H                    -5.121160913016     3.731145198774     6.362371154226
H                    -5.079497785783     2.128093582357     4.456731452532
H                    -3.893945022439     3.182400893433     8.458940369535
H                     5.321560227445    -4.249041706006     7.552427231508
H                    -3.817125398662     0.003253455576     4.646431846241
H                    -2.635952412836     1.054192918838     8.643372269642
H                     5.180542184454    -5.011139409265     5.214930633196
H                     3.233532075194    -3.834122845841     8.882754608652
H                     0.885679092569    -5.029801986622     5.474275431046
H                     1.638025557407    -6.779492878576    -0.095572203594
H                    -4.028555904182    -4.710291512662     3.823666595205
H                    -2.979581937375    -3.276659732108     3.727812747624
H                    -3.431128967659    -3.957001747112     5.307855850048
H                    -2.780311384396    -1.674123687756     6.140013758443
H                    -2.303416644010    -1.260249582157     7.779348934195
H                    -0.396176551678     0.113091107288     6.859470917702
H                    -0.863936576844    -0.347938910905     5.232336113046
H                     0.944600366134    -1.829596327966     5.883692515129
H                    -0.550313400439    -2.771651319966     5.843987661082
H                    -1.191809712349    -6.961558853833     5.054586117703
H                    -2.379970155152    -6.137666264835     6.090986966279
H                    -1.094265768009    -4.569972819690     4.709327595206
H                     3.905393946021    -5.713573556795     3.417692798439
H                    -2.295901957194    -5.772963596699     2.284693407069
H                     0.744119754210    -1.795653330018     8.318351859686
H                    -3.307082918423    -7.959511750072     4.902337484357
