68
0 1 C30H29N3O5S
C                     2.866226373776     9.955385172781     4.932453843142
C                     3.287048750779     8.641979930316     5.164729083499
C                     2.515335453093    10.358572269438     3.638467097095
C                   -13.481058152714    -2.069401326106    -1.955098985100
C                    -1.022390447998     0.721725165158    -0.319973403476
C                     0.642805136488     3.996943704300    -0.896158791047
C                     1.279622558753     2.358582008237     0.765717735764
C                     3.372070616030     7.736814754814     4.104143793917
C                     2.587682090078     9.453259527579     2.579972840678
C                   -12.339008661560    -1.408921459111    -2.409890242109
C                    -2.231476520958     0.064437813691    -0.513930567460
C                     1.844262506111     4.675252795089    -0.706846564698
C                     2.487687896499     3.021303157682     0.967018762868
C                    -2.134268958695     2.837246740557    -0.607116324712
C                   -14.046620937502    -1.662616364178    -0.742782406980
C                   -12.454341956191    -0.040155951160    -0.446806867210
C                     0.335399691766     2.833640392574    -0.165157006508
C                    -0.948854051306     2.126817513848    -0.368325304193
C                     3.028034529932     8.140197160196     2.804299828747
C                    -3.364989558188     2.202053633032    -0.798564098612
C                   -11.800144787964    -0.372109540386    -1.642053114574
C                    -3.400674750392     0.797771391151    -0.756703784075
C                     2.753278885182     4.178338619353     0.229777889055
C                     3.081535610664     7.224447239249     1.620583543162
C                    -4.639246387027     2.990451761168    -1.015003970237
C                    -5.864800301321     2.120374950645    -0.724946240381
C                    -5.708501340313     0.771372147722    -1.416425668218
C                    -6.881161219512    -0.181552488151    -1.197512522854
C                    -9.292680994049    -0.466849036014    -1.580534152417
C                   -10.525260143282     0.323335255712    -2.058470763353
N                   -13.552530620698    -0.664560707016     0.003012812239
N                     3.936559779634     6.133557870558     1.749082782670
N                    -8.085027387923     0.315492436691    -1.870123015389
O                     2.412659283575     7.404626528413     0.611610886059
O                     4.658525672797     5.750991762030    -0.725647818235
O                     5.248783395846     4.123506769063     1.148049847421
O                    -4.551431111699     0.069210325368    -0.923178764636
O                   -10.479115599464     1.636453191994    -1.515877063564
S                     4.300788379073     5.021126337924     0.482538902180
H                     2.805336973746    10.659909739629     5.757767262367
H                     3.542449776090     8.320989400615     6.170865276668
H                     2.183580098942    11.377348167207     3.457307136724
H                   -13.929976299408    -2.877219876866    -2.526269122116
H                    -0.120537636079     0.136883216311    -0.162714028164
H                    -0.056195090161     4.361162117078    -1.643076686177
H                     1.055914268803     1.473978193176     1.354490185386
H                     3.667477322049     6.711036561940     4.308822622658
H                     2.309256066904     9.742805061522     1.571566498442
H                   -11.877617485212    -1.691923462838    -3.354645646582
H                    -2.291587845276    -1.019837760635    -0.493000910264
H                     2.081175413208     5.571579441147    -1.268074467362
H                     3.218460732518     2.650652998083     1.678835936732
H                    -2.112437625866     3.924944032937    -0.605660881003
H                   -14.937777024785    -2.155817705602    -0.356854858974
H                   -12.074873121877     0.777886996532     0.159761976052
H                    -4.639479542506     3.880463084683    -0.377423749607
H                    -4.680918319768     3.350612951105    -2.051292310446
H                    -5.965080388180     1.949125029484     0.353461219063
H                    -6.783158335653     2.599444090773    -1.073613907681
H                    -5.564647611279     0.932421453174    -2.497142816850
H                    -7.087486932401    -0.247830192794    -0.124258021751
H                    -6.584072132138    -1.187135871055    -1.534355233247
H                    -9.285866884943    -1.471702768213    -2.031381044208
H                    -9.364397799026    -0.591900500782    -0.495168420119
H                   -10.498314169834     0.374824420564    -3.160889935071
H                     4.617683627508     6.086845630720     2.501032274640
H                    -7.925990638655     0.313032376507    -2.877819244142
H                    -9.527047807331     1.855904097823    -1.482273442836
