
  -OEChem-05262117483D

 17 18  0     0  0  0  0  0  0999 V2000
    1.4071   -0.0589    1.6571 C   0  0  0  0  0  0  0  0  0  0  0  0
    0.2500   -0.3882    0.9441 C   0  0  0  0  0  0  0  0  0  0  0  0
    1.6184   -0.6455    2.9023 C   0  0  0  0  0  0  0  0  0  0  0  0
   -0.6463   -1.2962    1.5175 C   0  0  0  0  0  0  0  0  0  0  0  0
    1.6031   -2.8005    6.6009 C   0  0  0  0  0  0  0  0  0  0  0  0
    0.4178   -3.4416    6.3936 C   0  0  0  0  0  0  0  0  0  0  0  0
    0.6543   -1.5457    3.3872 C   0  0  0  0  0  0  0  0  0  0  0  0
    0.8625   -2.1720    4.6973 C   0  0  0  0  0  0  0  0  0  0  0  0
   -0.4612   -1.8699    2.7114 N   0  0  0  0  0  0  0  0  0  0  0  0
    1.8744   -1.9922    5.5079 N   0  0  0  0  0  0  0  0  0  0  0  0
   -0.0677   -3.0468    5.1754 O   0  0  0  0  0  0  0  0  0  0  0  0
    2.1308    0.6421    1.2495 H   0  0  0  0  0  0  0  0  0  0  0  0
    0.0428    0.0441   -0.0306 H   0  0  0  0  0  0  0  0  0  0  0  0
    2.4966   -0.4290    3.5010 H   0  0  0  0  0  0  0  0  0  0  0  0
   -1.5578   -1.5763    0.9915 H   0  0  0  0  0  0  0  0  0  0  0  0
    2.2717   -2.8629    7.4489 H   0  0  0  0  0  0  0  0  0  0  0  0
   -0.1803   -4.1482    6.9493 H   0  0  0  0  0  0  0  0  0  0  0  0
  1  2  1  0  0  0  0
  1  3  2  0  0  0  0
  1 12  1  0  0  0  0
  2  4  2  0  0  0  0
  2 13  1  0  0  0  0
  3  7  1  0  0  0  0
  3 14  1  0  0  0  0
  4  9  1  0  0  0  0
  4 15  1  0  0  0  0
  5  6  2  0  0  0  0
  5 10  1  0  0  0  0
  5 16  1  0  0  0  0
  6 11  1  0  0  0  0
  6 17  1  0  0  0  0
  7  8  1  0  0  0  0
  7  9  2  0  0  0  0
  8 10  2  0  0  0  0
  8 11  1  0  0  0  0
M  END
$$$$
