
  -OEChem-05262117483D

 29 29  0     1  0  0  0  0  0999 V2000
    0.2892    3.8093    4.9844 C   0  0  0  0  0  0  0  0  0  0  0  0
    0.1331    2.9230    6.0562 C   0  0  0  0  0  0  0  0  0  0  0  0
    0.4620    3.3036    3.6928 C   0  0  0  0  0  0  0  0  0  0  0  0
    0.1467    1.5438    5.8359 C   0  0  0  0  0  0  0  0  0  0  0  0
    0.4768    1.9223    3.4700 C   0  0  0  0  0  0  0  0  0  0  0  0
    0.3159    1.0346    4.5397 C   0  0  0  0  0  0  0  0  0  0  0  0
   -0.7687   -1.1739    5.1471 C   0  0  0  0  0  0  0  0  0  0  0  0
   -3.1082   -1.6528    5.5756 C   0  0  0  0  0  0  0  0  0  0  0  0
   -2.5404   -0.1269    3.7211 C   0  0  0  0  0  0  0  0  0  0  0  0
    0.5447   -2.1350    2.6478 C   0  0  0  0  0  0  0  0  0  0  0  0
    0.3417   -0.4705    4.3264 C   0  0  1  0  0  0  0  0  0  0  0  0
   -2.0678   -1.0640    4.7376 N   0  0  0  0  0  0  0  0  0  0  0  0
   -0.4349   -1.8106    6.1516 O   0  0  0  0  0  0  0  0  0  0  0  0
    0.3073   -0.7599    2.9357 O   0  0  0  0  0  0  0  0  0  0  0  0
    0.2774    4.8827    5.1556 H   0  0  0  0  0  0  0  0  0  0  0  0
    0.0013    3.3056    7.0652 H   0  0  0  0  0  0  0  0  0  0  0  0
    0.5870    3.9846    2.8545 H   0  0  0  0  0  0  0  0  0  0  0  0
    0.0273    0.8597    6.6724 H   0  0  0  0  0  0  0  0  0  0  0  0
    0.6094    1.5279    2.4684 H   0  0  0  0  0  0  0  0  0  0  0  0
   -3.6067   -0.8812    6.1778 H   0  0  0  0  0  0  0  0  0  0  0  0
   -2.6586   -2.3849    6.2442 H   0  0  0  0  0  0  0  0  0  0  0  0
   -3.8577   -2.1384    4.9418 H   0  0  0  0  0  0  0  0  0  0  0  0
   -3.3803   -0.5817    3.1854 H   0  0  0  0  0  0  0  0  0  0  0  0
   -1.7577    0.0944    3.0021 H   0  0  0  0  0  0  0  0  0  0  0  0
   -2.8860    0.8086    4.1801 H   0  0  0  0  0  0  0  0  0  0  0  0
    0.5404   -2.2315    1.5603 H   0  0  0  0  0  0  0  0  0  0  0  0
   -0.2379   -2.7774    3.0722 H   0  0  0  0  0  0  0  0  0  0  0  0
    1.5192   -2.4568    3.0397 H   0  0  0  0  0  0  0  0  0  0  0  0
    1.2674   -0.8745    4.7582 H   0  0  0  0  0  0  0  0  0  0  0  0
  1  2  1  0  0  0  0
  1  3  2  0  0  0  0
  1 15  1  0  0  0  0
  2  4  2  0  0  0  0
  2 16  1  0  0  0  0
  3  5  1  0  0  0  0
  3 17  1  0  0  0  0
  4  6  1  0  0  0  0
  4 18  1  0  0  0  0
  5  6  2  0  0  0  0
  5 19  1  0  0  0  0
  6 11  1  0  0  0  0
  7 11  1  0  0  0  0
  7 12  1  0  0  0  0
  7 13  2  0  0  0  0
  8 12  1  0  0  0  0
  8 20  1  0  0  0  0
  8 21  1  0  0  0  0
  8 22  1  0  0  0  0
  9 12  1  0  0  0  0
  9 23  1  0  0  0  0
  9 24  1  0  0  0  0
  9 25  1  0  0  0  0
 10 14  1  0  0  0  0
 10 26  1  0  0  0  0
 10 27  1  0  0  0  0
 10 28  1  0  0  0  0
 11 14  1  0  0  0  0
 11 29  1  0  0  0  0
M  END
$$$$
