27
0 1 C13H13N
C                     2.363234698318    -0.916403915187    -0.254913430846
C                    -3.429065922677    -2.315448345162     4.112476498740
C                     1.988018580782    -2.134312816902     0.321464164471
C                     2.471060804575     0.222918318335     0.550256429221
C                    -2.762728402633    -3.202594391044     4.967989246445
C                    -2.675026916281    -1.407902036257     3.364245074645
C                     1.727809620671    -2.216035807297     1.692942615812
C                     2.205070604604     0.139206590022     1.920008910879
C                    -1.373366836092    -3.180704954557     5.070980165276
C                    -1.280439370236    -1.374082183137     3.459653714856
C                     1.837129583610    -1.080617589231     2.503655226153
C                    -0.609397253118    -2.264324757093     4.319484188759
C                     1.591905461576    -1.152305739263     4.004081807445
N                     0.787170955601    -2.291444163080     4.422018491159
H                     2.562402061742    -0.853049348413    -1.321663698434
H                    -4.512207173902    -2.334269236465     4.031862563235
H                     1.891849333000    -3.022041095302    -0.298934127221
H                     2.754571638649     1.176216833781     0.111069687386
H                    -3.328903127947    -3.916978783477     5.560851510932
H                    -3.172984592435    -0.713676681415     2.691550495852
H                     1.420524436762    -3.155252620829     2.142896372891
H                     2.278730146125     1.031987722310     2.538972878325
H                    -0.867112269829    -3.877878720772     5.736790312603
H                    -0.721225537203    -0.671354966685     2.852116223294
H                     2.560500611605    -1.243557390852     4.508388763444
H                     1.150126486966    -0.202041822281     4.341989497559
H                     1.114002162345    -2.732438860022     5.271569390822
