
  -OEChem-05262117483D

 17 18  0     0  0  0  0  0  0999 V2000
    1.3944   -0.0478    1.6231 C   0  0  0  0  0  0  0  0  0  0  0  0
    0.2269   -0.4045    0.9451 C   0  0  0  0  0  0  0  0  0  0  0  0
    1.6438   -0.6118    2.8736 C   0  0  0  0  0  0  0  0  0  0  0  0
   -0.6410   -1.3166    1.5584 C   0  0  0  0  0  0  0  0  0  0  0  0
    0.8761   -3.2318    6.5467 C   0  0  0  0  0  0  0  0  0  0  0  0
    2.0252   -2.5000    6.5573 C   0  0  0  0  0  0  0  0  0  0  0  0
    0.7072   -1.5179    3.4003 C   0  0  0  0  0  0  0  0  0  0  0  0
    0.9302   -2.1358    4.7143 C   0  0  0  0  0  0  0  0  0  0  0  0
   -0.4193   -1.8670    2.7544 N   0  0  0  0  0  0  0  0  0  0  0  0
    0.1897   -2.9890    5.3663 N   0  0  0  0  0  0  0  0  0  0  0  0
    2.0780   -1.7879    5.3863 O   0  0  0  0  0  0  0  0  0  0  0  0
    2.0986    0.6563    1.1878 H   0  0  0  0  0  0  0  0  0  0  0  0
   -0.0112    0.0080   -0.0311 H   0  0  0  0  0  0  0  0  0  0  0  0
    2.5380   -0.3628    3.4346 H   0  0  0  0  0  0  0  0  0  0  0  0
   -1.5613   -1.6188    1.0603 H   0  0  0  0  0  0  0  0  0  0  0  0
    0.4972   -3.9108    7.2988 H   0  0  0  0  0  0  0  0  0  0  0  0
    2.8483   -2.3691    7.2438 H   0  0  0  0  0  0  0  0  0  0  0  0
  1  2  1  0  0  0  0
  1  3  2  0  0  0  0
  1 12  1  0  0  0  0
  2  4  2  0  0  0  0
  2 13  1  0  0  0  0
  3  7  1  0  0  0  0
  3 14  1  0  0  0  0
  4  9  1  0  0  0  0
  4 15  1  0  0  0  0
  5  6  2  0  0  0  0
  5 10  1  0  0  0  0
  5 16  1  0  0  0  0
  6 11  1  0  0  0  0
  6 17  1  0  0  0  0
  7  8  1  0  0  0  0
  7  9  2  0  0  0  0
  8 10  2  0  0  0  0
  8 11  1  0  0  0  0
M  END
$$$$
