29
0 1 C11H15NO2
C                     0.532484160770     3.961625993918     5.069343996966
C                    -0.721604078829     3.378801818942     4.850167003845
C                     1.681071213021     3.164877327687     5.044886765107
C                    -0.828114671707     2.006562754739     4.614246626816
C                     1.572424638666     1.791143073275     4.805673455882
C                     0.321148319761     1.203296339806     4.592982407912
C                    -0.853209604439    -0.897538514788     5.299338531171
C                    -1.464139841603    -1.527639651646     7.568504815233
C                     0.802716435765    -0.644045453785     7.162737794463
C                    -0.180739021067    -1.799658481822     2.531284420297
C                     0.190089434210    -0.284054108566     4.325563889857
N                    -0.453418671868    -1.121595585438     6.594558016697
O                    -1.990714712212    -1.153557243366     4.905904699684
O                    -0.205024402627    -0.447515631290     2.979452707008
H                     0.613374961792     5.029699352702     5.254743460561
H                    -1.616558981138     3.995764559889     4.862647934115
H                     2.658836183885     3.611302504667     5.207220706448
H                    -1.798234434197     1.550010575893     4.438897312682
H                     2.469397092592     1.175603988362     4.778501793646
H                    -1.063874877378    -2.323344357075     8.205852367228
H                    -2.342319572328    -1.889685612054     7.037186209604
H                    -1.756060264657    -0.681340080266     8.204885216499
H                     0.734336273021     0.400980305978     7.490893230134
H                     1.623164710842    -0.726471482563     6.451040151147
H                     1.052492550749    -1.265560605731     8.027465491236
H                    -0.408431729658    -1.773921503672     1.463574479254
H                    -0.930694843187    -2.407313752355     3.048186465964
H                     0.817513648771    -2.242900980677     2.672860067898
H                     1.165637840492    -0.770491342838     4.475596673010
