
  -OEChem-05262117483D

 33 34  0     0  0  0  0  0  0999 V2000
   -2.7968    3.0937    3.1015 C   0  0  0  0  0  0  0  0  0  0  0  0
   -2.2085    3.0772    1.8371 C   0  0  0  0  0  0  0  0  0  0  0  0
   -2.7301    1.9630    3.9173 C   0  0  0  0  0  0  0  0  0  0  0  0
   -1.5440    1.9367    1.3643 C   0  0  0  0  0  0  0  0  0  0  0  0
   -2.0664    0.8090    3.4849 C   0  0  0  0  0  0  0  0  0  0  0  0
   -1.4722    0.8094    2.2062 C   0  0  0  0  0  0  0  0  0  0  0  0
   -1.5567   -1.3647    1.0224 C   0  0  0  0  0  0  0  0  0  0  0  0
    0.6057   -0.3647    1.4685 C   0  0  0  0  0  0  0  0  0  0  0  0
   -1.0190   -2.7707    1.2731 C   0  0  0  0  0  0  0  0  0  0  0  0
    1.2357   -1.7254    1.7540 C   0  0  0  0  0  0  0  0  0  0  0  0
   -0.9300    1.9613   -0.0188 C   0  0  0  0  0  0  0  0  0  0  0  0
   -1.9943   -0.4085    4.3773 C   0  0  0  0  0  0  0  0  0  0  0  0
   -0.8020   -0.4067    1.8060 N   0  0  0  0  0  0  0  0  0  0  0  0
    0.4724   -2.7849    0.9730 N   0  3  0  0  0  0  0  0  0  0  0  0
   -3.3114    3.9852    3.4489 H   0  0  0  0  0  0  0  0  0  0  0  0
   -2.2724    3.9560    1.2007 H   0  0  0  0  0  0  0  0  0  0  0  0
   -3.1914    1.9775    4.9012 H   0  0  0  0  0  0  0  0  0  0  0  0
   -1.5358   -1.1543   -0.0643 H   0  0  0  0  0  0  0  0  0  0  0  0
   -2.6046   -1.3433    1.3289 H   0  0  0  0  0  0  0  0  0  0  0  0
    1.1085    0.3803    2.0892 H   0  0  0  0  0  0  0  0  0  0  0  0
    0.8031   -0.0962    0.4143 H   0  0  0  0  0  0  0  0  0  0  0  0
   -1.1234   -3.0502    2.3224 H   0  0  0  0  0  0  0  0  0  0  0  0
   -1.4863   -3.5233    0.6339 H   0  0  0  0  0  0  0  0  0  0  0  0
    2.2804   -1.7807    1.4396 H   0  0  0  0  0  0  0  0  0  0  0  0
    1.1445   -1.9932    2.8075 H   0  0  0  0  0  0  0  0  0  0  0  0
    0.1520    2.1332    0.0195 H   0  0  0  0  0  0  0  0  0  0  0  0
   -1.1004    1.0306   -0.5680 H   0  0  0  0  0  0  0  0  0  0  0  0
   -1.3594    2.7706   -0.6134 H   0  0  0  0  0  0  0  0  0  0  0  0
   -2.5544   -1.2536    3.9589 H   0  0  0  0  0  0  0  0  0  0  0  0
   -0.9611   -0.7418    4.5171 H   0  0  0  0  0  0  0  0  0  0  0  0
   -2.4179   -0.1941    5.3609 H   0  0  0  0  0  0  0  0  0  0  0  0
    0.6087   -2.6149   -0.0316 H   0  0  0  0  0  0  0  0  0  0  0  0
    0.8615   -3.7142    1.1662 H   0  0  0  0  0  0  0  0  0  0  0  0
  1  2  1  0  0  0  0
  1  3  2  0  0  0  0
  1 15  1  0  0  0  0
  2  4  2  0  0  0  0
  2 16  1  0  0  0  0
  3  5  1  0  0  0  0
  3 17  1  0  0  0  0
  4  6  1  0  0  0  0
  4 11  1  0  0  0  0
  5  6  2  0  0  0  0
  5 12  1  0  0  0  0
  6 13  1  0  0  0  0
  7  9  1  0  0  0  0
  7 13  1  0  0  0  0
  7 18  1  0  0  0  0
  7 19  1  0  0  0  0
  8 10  1  0  0  0  0
  8 13  1  0  0  0  0
  8 20  1  0  0  0  0
  8 21  1  0  0  0  0
  9 14  1  0  0  0  0
  9 22  1  0  0  0  0
  9 23  1  0  0  0  0
 10 14  1  0  0  0  0
 10 24  1  0  0  0  0
 10 25  1  0  0  0  0
 11 26  1  0  0  0  0
 11 27  1  0  0  0  0
 11 28  1  0  0  0  0
 12 29  1  0  0  0  0
 12 30  1  0  0  0  0
 12 31  1  0  0  0  0
 14 32  1  0  0  0  0
 14 33  1  0  0  0  0
M  CHG  1  14   1
M  END
$$$$
