
  -OEChem-05262117483D

 22 23  0     0  0  0  0  0  0999 V2000
    1.8170   -0.9730   -0.1183 C   0  0  0  0  0  0  0  0  0  0  0  0
    2.9308   -1.3101    0.6560 C   0  0  0  0  0  0  0  0  0  0  0  0
    0.6173   -0.6224    0.5137 C   0  0  0  0  0  0  0  0  0  0  0  0
    2.8514   -1.2861    2.0512 C   0  0  0  0  0  0  0  0  0  0  0  0
    0.5362   -0.5948    1.9053 C   0  0  0  0  0  0  0  0  0  0  0  0
    0.6452   -1.0393    6.1316 C   0  0  0  0  0  0  0  0  0  0  0  0
    1.9485   -0.6341    6.3189 C   0  0  0  0  0  0  0  0  0  0  0  0
    1.6570   -0.9153    2.6944 C   0  0  0  0  0  0  0  0  0  0  0  0
    1.5105   -0.8882    4.1565 C   0  0  0  0  0  0  0  0  0  0  0  0
    3.8375   -0.0237    4.7826 C   0  0  0  0  0  0  0  0  0  0  0  0
    0.3814   -1.1890    4.7930 N   0  0  0  0  0  0  0  0  0  0  0  0
    2.5001   -0.5341    5.0544 N   0  0  0  0  0  0  0  0  0  0  0  0
    1.8794   -0.9920   -1.2032 H   0  0  0  0  0  0  0  0  0  0  0  0
    3.8599   -1.6059    0.1755 H   0  0  0  0  0  0  0  0  0  0  0  0
   -0.2564   -0.3686   -0.0812 H   0  0  0  0  0  0  0  0  0  0  0  0
    3.7133   -1.5961    2.6335 H   0  0  0  0  0  0  0  0  0  0  0  0
   -0.3911   -0.3314    2.4042 H   0  0  0  0  0  0  0  0  0  0  0  0
   -0.1088   -1.2326    6.8841 H   0  0  0  0  0  0  0  0  0  0  0  0
    2.5202   -0.4022    7.2067 H   0  0  0  0  0  0  0  0  0  0  0  0
    4.5732   -0.8327    4.7265 H   0  0  0  0  0  0  0  0  0  0  0  0
    3.8419    0.5267    3.8409 H   0  0  0  0  0  0  0  0  0  0  0  0
    4.1267    0.6580    5.5852 H   0  0  0  0  0  0  0  0  0  0  0  0
  1  2  1  0  0  0  0
  1  3  2  0  0  0  0
  1 13  1  0  0  0  0
  2  4  2  0  0  0  0
  2 14  1  0  0  0  0
  3  5  1  0  0  0  0
  3 15  1  0  0  0  0
  4  8  1  0  0  0  0
  4 16  1  0  0  0  0
  5  8  2  0  0  0  0
  5 17  1  0  0  0  0
  6  7  2  0  0  0  0
  6 11  1  0  0  0  0
  6 18  1  0  0  0  0
  7 12  1  0  0  0  0
  7 19  1  0  0  0  0
  8  9  1  0  0  0  0
  9 11  2  0  0  0  0
  9 12  1  0  0  0  0
 10 12  1  0  0  0  0
 10 20  1  0  0  0  0
 10 21  1  0  0  0  0
 10 22  1  0  0  0  0
M  END
$$$$
