31
0 1 C13H13N3O2
C                     1.585222307954    -0.231450750512     2.405059970740
C                     1.003956464612    -0.851795066129     1.295437024985
C                     8.226834555845    -6.651416239988     4.681690690950
C                     7.478986578849    -7.050663998611     5.793934609094
C                     2.809007389213    -0.692787061767     2.897721900666
C                     1.662692586863    -1.913687058289     0.668277049773
C                     7.794196583080    -5.557885462083     3.935448227027
C                     6.334636293976    -6.313995070111     6.109737535222
C                     3.473490735812    -1.754885644710     2.275695632328
C                     2.898822308800    -2.357274469559     1.141424173028
C                     6.630606129216    -4.885492265586     4.349157234628
C                     4.858428962967    -3.505169686107     3.293253692247
C                     4.569502005434    -2.976946312068    -0.395582746055
N                     5.920905071516    -5.243219647820     5.421855385271
N                     4.731848049057    -2.210487886962     2.755099418832
N                     6.202670504521    -3.741505340244     3.646938684478
O                     3.951589978781    -4.299928291477     3.407024633498
O                     3.536698090778    -3.398707290690     0.501093945436
H                     1.080858364862     0.593819583104     2.899958949698
H                     0.043236741504    -0.511684093781     0.918461890651
H                     9.123381397832    -7.192084935962     4.389523380268
H                     7.770972995593    -7.902989575477     6.399826073776
H                     3.247016965759    -0.240040587834     3.784771795049
H                     1.234679294829    -2.410991131795    -0.197702241064
H                     8.331065257504    -5.238618494308     3.045542130400
H                     5.723684762722    -6.586927916332     6.969048140142
H                     5.007065559676    -3.887323015244    -0.810949729358
H                     5.341884119612    -2.404296664364     0.132042821782
H                     4.156149149971    -2.364820864673    -1.207793970381
H                     5.289880218795    -1.509670857362     3.229649285037
H                     6.884539047608    -3.327269494397     3.023857956462
