30
0 1 C16H12N2
C                     1.993001615029    -1.094300349739    -0.114381124909
C                     1.365973103311    -2.151880764740     0.553010743685
C                     2.533983657997    -0.034727063946     0.621624797464
C                     0.544477083816    -0.501218773049     6.228793485695
C                     1.560909874856    -1.086473495995     6.989956603791
C                     1.278306992456    -2.148121479252     1.948386573270
C                     2.445807790735    -0.031916148688     2.016966468660
C                     0.630157473063    -0.503156477116     4.833721303285
C                     2.657548230055    -1.670465670910     6.350569084233
C                     6.002163095063    -3.406462668468     2.989481985720
C                     6.005459133529    -2.067112687588     3.379807705443
C                     4.862296581614    -4.141945276913     3.315020767087
C                     1.812293889502    -1.085542895536     2.691717964564
C                     1.725759090731    -1.086151364660     4.182670792089
C                     2.743730914311    -1.672583110018     4.954586171968
C                     3.919105059843    -2.298552955100     4.272381241511
N                     4.973240610580    -1.504307842128     4.020774432676
N                     3.818340834046    -3.600362157427     3.955341538282
H                     2.061975123012    -1.097190847958    -1.199362325295
H                     0.948079621626    -2.981408096179    -0.012109013942
H                     3.027586046954     0.787926075605     0.110048227200
H                    -0.311738432392    -0.044987275592     6.719095867357
H                     1.500539269580    -1.088448745186     8.075159413009
H                     0.805326708192    -2.975644747801     2.470078080160
H                     2.878583968712     0.782240643279     2.591868601496
H                    -0.156709628983    -0.049858981537     4.236189272168
H                     3.451526897010    -2.127375843431     6.935712410085
H                     6.840839937516    -3.852152262665     2.463473276516
H                     6.857969483202    -1.421133757861     3.173448659682
H                     4.777716510541    -5.196560272786     3.055608292763
