24
0 1 C9H12O2S
C                     1.958615097785    -1.041247085222    -0.163539650448
C                     3.100221932202    -0.908745487965     0.633789422639
C                     0.707881233147    -1.208317829361     0.439073561413
C                     2.995148452334    -0.952040867596     2.025647350921
C                     0.603092826334    -1.247920345827     1.831253081269
C                     1.744653278369    -1.131895268412     2.636122659728
C                     2.667519415692    -1.991054803822     4.871287424134
C                     1.265734255233     0.459058430909     6.511253844797
C                     1.604052015350    -1.169969753932     4.138505048241
O                     2.985815655500     1.115147465874     4.592760624451
O                     0.474878120120     1.280188312692     4.118448125976
S                     1.616912079924     0.587127676891     4.736909787830
H                     2.042596277842    -1.007690466013    -1.246716695219
H                     4.073318771595    -0.764610739374     0.171767715770
H                    -0.185264798578    -1.301661979936    -0.172984130132
H                     3.884119196490    -0.823147237605     2.634391837491
H                    -0.372738419875    -1.358394280218     2.297399396406
H                     3.654014291794    -1.530681494547     4.786136227973
H                     2.431119799906    -2.101573813527     5.933220226441
H                     2.713067629712    -2.990922845304     4.430561221125
H                     1.125619972833     1.486989009754     6.851379189597
H                     0.346847705162    -0.111438714406     6.657965035516
H                     2.112371489299     0.003272199033     7.024134895094
H                     0.599846858616    -1.518472227982     4.397494831685
