
  -OEChem-05262117483D

 28 29  0     1  0  0  0  0  0999 V2000
    3.8566    0.9873    3.8126 C   0  0  0  0  0  0  0  0  0  0  0  0
    3.1318    1.3124    2.6622 C   0  0  0  0  0  0  0  0  0  0  0  0
    3.3848   -0.0201    4.6617 C   0  0  0  0  0  0  0  0  0  0  0  0
    1.9479    0.6321    2.3580 C   0  0  0  0  0  0  0  0  0  0  0  0
    2.2005   -0.6946    4.3553 C   0  0  0  0  0  0  0  0  0  0  0  0
    1.4726   -0.3820    3.1992 C   0  0  0  0  0  0  0  0  0  0  0  0
   -1.2660    0.7737    2.5626 C   0  0  0  0  0  0  0  0  0  0  0  0
   -2.2006    2.7530    2.7848 C   0  0  0  0  0  0  0  0  0  0  0  0
   -1.7919    2.2274    4.1828 C   0  0  0  0  0  0  0  0  0  0  0  0
    0.5509   -2.4556    2.0959 C   0  0  0  0  0  0  0  0  0  0  0  0
    0.2124   -1.1758    2.8711 C   0  0  2  0  0  0  0  0  0  0  0  0
   -1.6372    1.7710    1.8457 N   0  0  0  0  0  0  0  0  0  0  0  0
   -0.7875   -0.4264    2.0997 N   0  0  0  0  0  0  0  0  0  0  0  0
   -1.3834    0.8560    3.9255 O   0  0  0  0  0  0  0  0  0  0  0  0
    4.7750    1.5181    4.0500 H   0  0  0  0  0  0  0  0  0  0  0  0
    3.4844    2.1006    2.0016 H   0  0  0  0  0  0  0  0  0  0  0  0
    3.9349   -0.2739    5.5645 H   0  0  0  0  0  0  0  0  0  0  0  0
    1.3866    0.9119    1.4706 H   0  0  0  0  0  0  0  0  0  0  0  0
    1.8320   -1.4683    5.0267 H   0  0  0  0  0  0  0  0  0  0  0  0
   -3.2909    2.8063    2.6685 H   0  0  0  0  0  0  0  0  0  0  0  0
   -1.7973    3.7511    2.5878 H   0  0  0  0  0  0  0  0  0  0  0  0
   -0.9310    2.7571    4.6028 H   0  0  0  0  0  0  0  0  0  0  0  0
   -2.6016    2.2035    4.9147 H   0  0  0  0  0  0  0  0  0  0  0  0
    1.0205   -2.2124    1.1355 H   0  0  0  0  0  0  0  0  0  0  0  0
    1.2582   -3.0663    2.6625 H   0  0  0  0  0  0  0  0  0  0  0  0
   -0.3542   -3.0416    1.9083 H   0  0  0  0  0  0  0  0  0  0  0  0
   -0.2615   -1.4583    3.8153 H   0  0  0  0  0  0  0  0  0  0  0  0
   -0.6357   -0.3975    1.0977 H   0  0  0  0  0  0  0  0  0  0  0  0
  1  2  1  0  0  0  0
  1  3  2  0  0  0  0
  1 15  1  0  0  0  0
  2  4  2  0  0  0  0
  2 16  1  0  0  0  0
  3  5  1  0  0  0  0
  3 17  1  0  0  0  0
  4  6  1  0  0  0  0
  4 18  1  0  0  0  0
  5  6  2  0  0  0  0
  5 19  1  0  0  0  0
  6 11  1  0  0  0  0
  7 12  2  0  0  0  0
  7 13  1  0  0  0  0
  7 14  1  0  0  0  0
  8  9  1  0  0  0  0
  8 12  1  0  0  0  0
  8 20  1  0  0  0  0
  8 21  1  0  0  0  0
  9 14  1  0  0  0  0
  9 22  1  0  0  0  0
  9 23  1  0  0  0  0
 10 11  1  0  0  0  0
 10 24  1  0  0  0  0
 10 25  1  0  0  0  0
 10 26  1  0  0  0  0
 11 13  1  0  0  0  0
 11 27  1  0  0  0  0
 13 28  1  0  0  0  0
M  END
$$$$
