36
1 1 C16H17N2O
C                    -3.072930051487     1.503244809780     3.939294514541
C                    -3.549388056629     0.208222284012     3.709176052324
C                    -1.693785521023     1.729491837982     4.006016167113
C                    -0.284191001418     2.617994392601    -0.535973766968
C                    -1.465943404539     2.341754135895     0.164042993227
C                    -2.650844972991    -0.851041549532     3.544163892203
C                    -0.801598167900     0.666932257019     3.844997162348
C                     0.601137146117     1.585724724674    -0.850809886332
C                    -1.776822585435     1.040528541946     0.566409738205
C                    -1.268606121122    -0.634969297315     3.610141214694
C                     0.280824487131     0.287497226546    -0.452674558750
C                    -0.892345428940     0.014029091117     0.258957588302
C                     0.950038080023    -2.007674370846    -0.222769571912
C                    -0.048073347125    -2.084853671082     0.921575987408
C                    -0.289959816197    -1.783221062885     3.467932787569
C                     0.643185588444    -1.698481910559     2.241883293524
N                     1.103614450742    -0.827663272963    -0.796543827024
N                     1.643558671364    -3.085319762189    -0.583296529137
O                    -1.184499732445    -1.292289378393     0.593264074035
H                    -3.769570454700     2.325533732532     4.077419365800
H                    -4.618874646656     0.020768115269     3.665832993827
H                    -1.314192748115     2.729998342352     4.194752701574
H                    -0.051024552553     3.634368603724    -0.836217105067
H                    -2.147695719144     3.149152392947     0.412349344967
H                    -3.031555225291    -1.854036557362     3.365767946114
H                     0.268225047625     0.854419965014     3.918609559470
H                     1.519255060997     1.787153511032    -1.397737933776
H                    -2.675994342183     0.814739685957     1.128328550511
H                    -0.431328465548    -3.106595379570     0.987863460663
H                     0.354579238215    -1.813814982935     4.353256130174
H                    -0.830168461380    -2.736030010035     3.449741331390
H                     1.064962198960    -0.692054310083     2.156446886722
H                     1.486932239622    -2.385975612687     2.379479359164
H                     1.777085216085    -0.700559653680    -1.548836225827
H                     2.340635375895    -3.076512385408    -1.321821514954
H                     1.478783312753    -3.972474169071    -0.121652416667
