35
0 1 C10F3H18NO2S
C                     1.515695412903    -0.635166585163     0.461347180554
C                     0.193079708792    -1.416086195745     0.428446635252
C                     1.838989376917    -0.470324867729    -1.028287582958
C                     0.398082610949    -2.398692360197    -0.743668969311
C                     0.939441496884    -3.753633960202    -0.250563588883
C                     3.703067738615    -6.441934329003    -3.054793523904
C                     4.191441147632    -7.337075628692    -4.200923399986
C                     1.328928444269    -4.648338180683    -1.423303056335
C                     2.533118712554    -7.096341464164    -2.323522208244
C                     5.314460870655    -6.706168576110    -4.995799122856
N                     1.376793819459    -1.735945503323    -1.645568264156
O                     0.956378432648    -6.988098149302    -0.186122647754
O                     3.262774238519    -5.891444929515    -0.055341574946
F                     5.730329614497    -7.524442123355    -5.994498307132
F                     4.931172006601    -5.536576194323    -5.573131248026
F                     6.396119351460    -6.432534167910    -4.225174617865
S                     2.036455260980    -6.204165139094    -0.813434020566
H                     1.438227054908     0.323518901371     0.981085637238
H                     2.295696403599    -1.222902466589     0.956686175655
H                    -0.034204152194    -1.924634792843     1.369757106667
H                    -0.636311179594    -0.735118629777     0.206269974653
H                     1.303174558908     0.402157317805    -1.431461354933
H                     2.908236508964    -0.319704316864    -1.210049048481
H                    -0.545704266935    -2.577145383340    -1.274886449176
H                     0.182809823787    -4.249393518891     0.366152761862
H                     1.823434805488    -3.585048176417     0.372290688329
H                     4.515041409999    -6.263797251113    -2.345491465821
H                     3.402094723352    -5.470732293282    -3.458145475137
H                     4.564389767279    -8.291974915785    -3.818899872727
H                     3.384810557377    -7.554775233126    -4.907631976434
H                     0.465608496462    -4.922747336070    -2.038134250309
H                     2.084983711090    -4.148567538114    -2.033122889207
H                     1.635584563478    -7.189566348779    -2.942337847318
H                     2.790780430536    -8.091263741351    -1.945817190366
H                     0.970889736498    -1.563503181861    -2.558977851263
