30
0 1 C10H16O3S
C                     0.744104720286    -0.427387883948    -0.901315368960
C                     1.451323423565     1.683433184917     0.232822573638
C                    -0.373096360632    -0.788106996001     1.286450955644
C                     1.741395943924     0.200069234852     0.091609946895
C                    -0.462591916481    -1.072058740527    -0.216954766342
C                    -3.002875259834    -1.357853757448    -0.319127677750
C                     3.670471221495     5.935035944578     1.153215463681
C                    -1.778517931632    -0.621351593854    -0.871743231893
C                     3.763539792454     4.425011485712     0.904047653776
C                     2.391202550002     3.816710571355     0.669455035286
O                     0.936185850514    -0.421501803499    -2.099311676203
O                     0.328853584458     2.157737899195     0.185327326157
O                     2.572470388439     2.390814308558     0.444216640015
S                     1.421307449697    -0.643017532345     1.690756743507
H                    -0.876356270726     0.146918241887     1.542996284339
H                    -0.783108081147    -1.595080546008     1.895916387954
H                     2.769041354462     0.029024877870    -0.228752936299
H                    -0.335638774029    -2.151713719370    -0.377193959695
H                    -2.910377612876    -2.441313721523    -0.458742131106
H                    -3.914438383609    -1.032150539554    -0.830457418595
H                    -3.141858822829    -1.169597885230     0.751058431632
H                     3.224604342348     6.454477612223     0.297634298655
H                     3.058621168504     6.157616737812     2.034579999823
H                     4.663445671454     6.362660185527     1.321220205597
H                    -1.886077533662     0.459126758270    -0.725344398606
H                    -1.692528608729    -0.788611661724    -1.950082755567
H                     4.232104394526     3.928043492652     1.760767010190
H                     4.396897782205     4.223503433899     0.032976148851
H                     1.730799487787     3.949825881881     1.531578561046
H                     1.895522500189     4.246656005804    -0.205869874348
