
  -OEChem-05262117483D

 35 35  0     1  0  0  0  0  0999 V2000
   -0.9668   -1.5621   -0.6953 C   0  0  0  0  0  0  0  0  0  0  0  0
   -0.2203   -2.7903   -1.2857 C   0  0  0  0  0  0  0  0  0  0  0  0
    0.0045   -0.9950    0.3583 C   0  0  0  0  0  0  0  0  0  0  0  0
    1.1092   -2.8658   -0.5003 C   0  0  2  0  0  0  0  0  0  0  0  0
    1.6159   -4.2840   -0.2290 C   0  0  0  0  0  0  0  0  0  0  0  0
    1.9027   -7.5793   -3.7163 C   0  0  0  0  0  0  0  0  0  0  0  0
    2.3506   -8.3120   -4.9877 C   0  0  0  0  0  0  0  0  0  0  0  0
    1.9768   -5.0028   -1.5298 C   0  0  0  0  0  0  0  0  0  0  0  0
    3.0925   -7.3349   -2.7906 C   0  0  0  0  0  0  0  0  0  0  0  0
    1.2182   -8.5196   -5.9707 C   0  0  0  0  0  0  0  0  0  0  0  0
    0.7815   -2.1769    0.7545 N   0  0  0  0  0  0  0  0  0  0  0  0
    1.5056   -7.4837   -0.6472 O   0  0  0  0  0  0  0  0  0  0  0  0
    3.8587   -6.5138   -0.3827 O   0  0  0  0  0  0  0  0  0  0  0  0
    1.6440   -9.1706   -7.0811 F   0  0  0  0  0  0  0  0  0  0  0  0
    0.2071   -9.2502   -5.4392 F   0  0  0  0  0  0  0  0  0  0  0  0
    0.6825   -7.3392   -6.3812 F   0  0  0  0  0  0  0  0  0  0  0  0
    2.6180   -6.6652   -1.1633 S   0  0  0  0  0  0  0  0  0  0  0  0
   -1.2184   -0.8175   -1.4550 H   0  0  0  0  0  0  0  0  0  0  0  0
   -1.8989   -1.8775   -0.2200 H   0  0  0  0  0  0  0  0  0  0  0  0
   -0.8005   -3.7049   -1.1265 H   0  0  0  0  0  0  0  0  0  0  0  0
   -0.0447   -2.6945   -2.3609 H   0  0  0  0  0  0  0  0  0  0  0  0
    0.6333   -0.2085   -0.0955 H   0  0  0  0  0  0  0  0  0  0  0  0
   -0.5085   -0.5614    1.2220 H   0  0  0  0  0  0  0  0  0  0  0  0
    1.8849   -2.3167   -1.0692 H   0  0  0  0  0  0  0  0  0  0  0  0
    0.8414   -4.8414    0.3054 H   0  0  0  0  0  0  0  0  0  0  0  0
    2.5000   -4.2456    0.4159 H   0  0  0  0  0  0  0  0  0  0  0  0
    1.4378   -6.6288   -3.9941 H   0  0  0  0  0  0  0  0  0  0  0  0
    1.1510   -8.1706   -3.1875 H   0  0  0  0  0  0  0  0  0  0  0  0
    3.1307   -7.7538   -5.5142 H   0  0  0  0  0  0  0  0  0  0  0  0
    2.7542   -9.2999   -4.7473 H   0  0  0  0  0  0  0  0  0  0  0  0
    1.1044   -5.1349   -2.1741 H   0  0  0  0  0  0  0  0  0  0  0  0
    2.7651   -4.4782   -2.0790 H   0  0  0  0  0  0  0  0  0  0  0  0
    3.6059   -8.2661   -2.5295 H   0  0  0  0  0  0  0  0  0  0  0  0
    3.8309   -6.6454   -3.2102 H   0  0  0  0  0  0  0  0  0  0  0  0
    1.6207   -1.9243    1.2723 H   0  0  0  0  0  0  0  0  0  0  0  0
  1  2  1  0  0  0  0
  1  3  1  0  0  0  0
  1 18  1  0  0  0  0
  1 19  1  0  0  0  0
  2  4  1  0  0  0  0
  2 20  1  0  0  0  0
  2 21  1  0  0  0  0
  3 11  1  0  0  0  0
  3 22  1  0  0  0  0
  3 23  1  0  0  0  0
  4  5  1  0  0  0  0
  4 11  1  0  0  0  0
  4 24  1  0  0  0  0
  5  8  1  0  0  0  0
  5 25  1  0  0  0  0
  5 26  1  0  0  0  0
  6  7  1  0  0  0  0
  6  9  1  0  0  0  0
  6 27  1  0  0  0  0
  6 28  1  0  0  0  0
  7 10  1  0  0  0  0
  7 29  1  0  0  0  0
  7 30  1  0  0  0  0
  8 17  1  0  0  0  0
  8 31  1  0  0  0  0
  8 32  1  0  0  0  0
  9 17  1  0  0  0  0
  9 33  1  0  0  0  0
  9 34  1  0  0  0  0
 10 14  1  0  0  0  0
 10 15  1  0  0  0  0
 10 16  1  0  0  0  0
 11 35  1  0  0  0  0
 12 17  2  0  0  0  0
 13 17  2  0  0  0  0
M  END
$$$$
