35
0 1 C10F3H18NO2S
C                    -0.966822094158    -1.562147736770    -0.695305717743
C                    -0.220300536883    -2.790309441651    -1.285678171704
C                     0.004503255729    -0.994986884433     0.358259184164
C                     1.109236704600    -2.865784875937    -0.500303672190
C                     1.615943325788    -4.284012630687    -0.228979037846
C                     1.902722236604    -7.579342861935    -3.716285696319
C                     2.350596269035    -8.311976851246    -4.987688873549
C                     1.976814544539    -5.002764534310    -1.529801689808
C                     3.092468184290    -7.334915029892    -2.790613051784
C                     1.218176252626    -8.519576071426    -5.970690333376
N                     0.781515569957    -2.176884255650     0.754476228482
O                     1.505626493527    -7.483650683283    -0.647164053841
O                     3.858689913721    -6.513758038360    -0.382718289310
F                     1.644007503599    -9.170591286503    -7.081090709247
F                     0.207134824844    -9.250232821841    -5.439232882230
F                     0.682457004021    -7.339166317892    -6.381200808704
S                     2.617971500395    -6.665191611800    -1.163339512739
H                    -1.218408990055    -0.817457656530    -1.455032818226
H                    -1.898854120531    -1.877527146501    -0.219952401780
H                    -0.800546687491    -3.704869893940    -1.126522008306
H                    -0.044749008261    -2.694479258875    -2.360929057336
H                     0.633335452094    -0.208533868845    -0.095490159960
H                    -0.508519005508    -0.561425190512     1.222035102807
H                     1.884858563374    -2.316664071594    -1.069247655932
H                     0.841422531328    -4.841362055988     0.305434968710
H                     2.500045803651    -4.245642472692     0.415921793858
H                     1.437760077187    -6.628799407091    -3.994090798830
H                     1.150992046254    -8.170648064814    -3.187477724340
H                     3.130688426381    -7.753787955093    -5.514220182290
H                     2.754212861792    -9.299932679791    -4.747336362208
H                     1.104364374226    -5.134897707809    -2.174058962647
H                     2.765136360029    -4.478200600603    -2.078961505095
H                     3.605942886750    -8.266085857397    -2.529503014011
H                     3.830931526253    -6.645351350560    -3.210160789056
H                     1.620746027024    -1.924270914717     1.272253326877
