28
0 1 C11H14N2O
C                     3.856608559208     0.987333727816     3.812586465806
C                     3.131797359560     1.312391524142     2.662173725720
C                     3.384849811742    -0.020120259485     4.661696761940
C                     1.947854580837     0.632129478398     2.357979386521
C                     2.200485141196    -0.694596413902     4.355331118686
C                     1.472560723224    -0.381990152052     3.199234867188
C                    -1.266029377363     0.773666734192     2.562633576771
C                    -2.200628537637     2.752959262147     2.784758425629
C                    -1.791903294547     2.227360151980     4.182848352210
C                     0.550929309795    -2.455588181529     2.095923148144
C                     0.212359518448    -1.175834587915     2.871073816946
N                    -1.637204729469     1.770960720136     1.845742069717
N                    -0.787498399875    -0.426444339814     2.099669235953
O                    -1.383361792369     0.856001008934     3.925471040521
H                     4.775009716190     1.518124722600     4.049981670305
H                     3.484417573157     2.100638471640     2.001622991312
H                     3.934867851921    -0.273921407460     5.564534610777
H                     1.386562526020     0.911869025244     1.470612705493
H                     1.832003465138    -1.468338016086     5.026723810414
H                    -3.290946770656     2.806287624729     2.668487010930
H                    -1.797296499342     3.751113340978     2.587802313849
H                    -0.931031960821     2.757111863889     4.602755559562
H                    -2.601591089719     2.203481421939     4.914694682411
H                     1.020508476874    -2.212421849747     1.135505172465
H                     1.258240079326    -3.066266858430     2.662481537520
H                    -0.354207983359    -3.041584096535     1.908346887635
H                    -0.261531051162    -1.458329105405     3.815255386943
H                    -0.635721766142    -0.397470929719     1.097676373341
