27   
torsion grid (-165,)
C       -1.9406555787   -0.0418887738    9.4241406120
C       -3.1899477518   -0.3948512885    7.1481494768
C       -1.4801554674   -2.1712250668   10.5605982137
C       -2.5597603950   -0.7680302105    8.3881221301
C       -2.0912632404   -2.9143558565    9.5501835418
C       -2.6245128444   -2.1868565838    8.4748987535
C       -1.4147976782   -0.7646876327   10.4841041865
C       -3.6129849371   -1.5546744937    6.5374413271
C       -2.1834107781   -4.4191234241    9.5977381438
C       -4.0815239866   -2.8785725545    3.0736495951
C       -4.3212339679   -1.7835753778    5.2410107812
N       -3.2869319904   -2.6358962481    7.3449403766
N       -3.6566233014   -2.8529106746    4.4763054688
Br      -0.5510184271    0.1811993319   11.9227882719
H       -1.8742986084    1.0408458804    9.3950260222
H       -3.3207900934    0.6066427765    6.7585367799
H       -1.0504468724   -2.6797582126   11.4179538500
H       -3.2274901048   -4.7547391389    9.5727294940
H       -1.6704019928   -4.8784939577    8.7434226109
H       -1.7282021751   -4.8147151383   10.5088928097
H       -5.1409777104   -3.1518353119    3.0177494593
H       -3.5124228486   -3.6414838079    2.5344779973
H       -3.9542698185   -1.9122885486    2.5565343834
H       -5.3623618654   -2.0883302846    5.4144892145
H       -4.3555294695   -0.8255412634    4.6960796945
H       -3.3935746462   -3.5968307195    7.0485789745
H       -2.6544494534   -2.6668748117    4.5000833930
27   
torsion grid (-150,)
C       -1.8102077639   -0.0444727705    9.2528953808
C       -3.1926956042   -0.4703229163    7.0689073261
C       -1.3358967480   -2.1296869209   10.4627867440
C       -2.5009934473   -0.8022835522    8.2873090073
C       -2.0166507874   -2.9038857350    9.5227830929
C       -2.5904331374   -2.2135115983    8.4438423589
C       -1.2433571839   -0.7301778589   10.3162607158
C       -3.6742641015   -1.6453032808    6.5352436363
C       -2.1391777911   -4.4021606918    9.6467633041
C       -3.9997087436   -2.7127629883    3.0127103307
C       -4.4414664928   -1.9088291669    5.2807129061
N       -3.3205990473   -2.6976325126    7.3713933288
N       -3.7481758682   -2.9108692894    4.4436647178
Br      -0.2810875035    0.2591785026   11.6596081728
H       -1.7218305787    1.0337842127    9.1687947145
H       -3.3233476955    0.5151575952    6.6404420399
H       -0.8716452744   -2.6083949157   11.3192946842
H       -3.1899836267   -4.7127270278    9.7004068264
H       -1.6890961576   -4.9129227575    8.7861952942
H       -1.6385182477   -4.7668223191   10.5468791079
H       -5.0565484171   -2.9023651016    2.7947808333
H       -3.4090162812   -3.4315597829    2.4370218104
H       -3.7596212427   -1.6950008652    2.6605201466
H       -5.4519486103   -2.2764894373    5.5044459025
H       -4.5594808706   -0.9448403821    4.7607201789
H       -3.4902953059   -3.6697676244    7.1523343671
H       -2.7480016237   -2.7898272815    4.5972278334
27   
torsion grid (-135,)
C       -1.8452383841   -0.0648595238    9.1996259198
C       -3.2690837932   -0.5605665751    7.0573381633
C       -1.3733224657   -2.1059863568   10.4828933084
C       -2.5581570865   -0.8522396485    8.2743413948
C       -2.0741995131   -2.9087382095    9.5826206070
C       -2.6567794927   -2.2555917463    8.4853410085
C       -1.2694000238   -0.7142094666   10.2807134984
C       -3.7709598622   -1.7496000323    6.5748035039
C       -2.2063775283   -4.4001253783    9.7653643027
C       -3.8351048995   -2.4856686102    3.0208127874
C       -4.5445321606   -2.0486132446    5.3321283099
N       -3.4010085403   -2.7748050724    7.4389927179
N       -3.7833770896   -2.9339480721    4.4165043515
Br      -0.2773705566    0.3158121295   11.5704797970
H       -1.7477480511    1.0083531305    9.0722268848
H       -3.3975045363    0.4088856852    6.5931849422
H       -0.9011316197   -2.5559849408   11.3505462329
H       -3.2584449086   -4.7007599654    9.8461271136
H       -1.7720756378   -4.9465064532    8.9187274959
H       -1.6958607622   -4.7340748234   10.6718065551
H       -4.8568618113   -2.5843668250    2.6383436380
H       -3.1917394440   -3.1275443278    2.4113289581
H       -3.5204107016   -1.4371989491    2.8809355060
H       -5.5059475354   -2.5218871920    5.5732368281
H       -4.7747302493   -1.0851526010    4.8559097598
H       -3.6330934806   -3.7485099832    7.3003613272
H       -2.8084733461   -2.9061593598    4.7089342579
27   
torsion grid (-120,)
C       -1.7713900000   -0.1040052726    9.0719442038
C       -3.2732607114   -0.6531491949    6.9972958414
C       -1.3093307156   -2.1020094183   10.4270949432
C       -2.5282998126   -0.9121202529    8.2009638025
C       -2.0520617313   -2.9244046060    9.5797081899
C       -2.6493554465   -2.3031479021    8.4720692236
C       -1.1806290479   -0.7227297745   10.1629743017
C       -3.8155450138   -1.8487965830    6.5778365479
C       -2.2111449939   -4.4037898260    9.8271511998
C       -3.7375997020   -2.2649376128    3.0627145984
C       -4.6196820766   -2.1838029533    5.3626184857
N       -3.4293788591   -2.8490088216    7.4654647551
N       -3.8386994943   -2.9477012098    4.3559458046
Br      -0.1306023936    0.3353582649   11.3818581285
H       -1.6536861729    0.9605403306    8.8974214335
H       -3.3952091065    0.2994930775    6.4978219937
H       -0.8231248314   -2.5265470807   11.2998231486
H       -3.2662849997   -4.6768169595    9.9541964165
H       -1.8169385103   -4.9932180281    8.9898973025
H       -1.6788066073   -4.7130518798   10.7297698130
H       -4.7248775237   -2.2228084363    2.5905785612
H       -3.0821248480   -2.8415321147    2.4027583868
H       -3.3460807591   -1.2350122782    3.1292198682
H       -5.5107099064   -2.7618028161    5.6445427319
H       -4.9786676948   -1.2424692635    4.9318169795
H       -3.7380819692   -3.8098647484    7.4148371935
H       -2.8976021325   -3.0782999219    4.7191727969
27   
torsion grid (-105,)
C       -1.7029727089    1.5134428891    2.5872837172
C       -3.6360007909    0.1411725999    3.7023560224
C       -1.0176414042    0.5592447601    0.4277651876
C       -2.6555793799    0.4829694739    2.7043363526
C       -1.9545107390   -0.4718877646    0.5191931699
C       -2.7600420346   -0.4845598119    1.6670312473
C       -0.9094441356    1.5237744338    1.4496077383
C       -4.2923083857   -0.9847719616    3.2641608444
C       -2.1031735543   -1.5219966895   -0.5537398971
C       -5.1805620929   -2.2422472493    6.2899197887
C       -5.4141346860   -1.7606386319    3.8971933916
N       -3.7666015206   -1.3660918427    2.0336515285
N       -5.6741473130   -1.3156165840    5.2695614713
Br       0.4038011541    2.9183474692    1.2420863224
H       -1.5934532488    2.2717532649    3.3557499946
H       -3.8484283324    0.6519680882    4.6307931796
H       -0.3663035325    0.6209862997   -0.4384354799
H       -1.9176523588   -2.5284534315   -0.1574436667
H       -3.1141333052   -1.5169463880   -0.9805714949
H       -1.3982765876   -1.3543377487   -1.3716782656
H       -4.0885887853   -2.2965948523    6.2311468603
H       -5.5796001475   -3.2670534391    6.1943315955
H       -5.4393635789   -1.8598339367    7.2819913191
H       -6.3220407229   -1.6195182400    3.2946972589
H       -5.1889083320   -2.8403097267    3.8534476125
H       -4.0490421027   -2.1804846667    1.5076127869
H       -6.6730217289   -1.1852725121    5.3941057081
27   
torsion grid (-90,)
C       -2.0051774254    1.5663963882    2.5991372390
C       -3.9197212430    0.1657992556    3.7106543810
C       -1.2503967676    0.5795190169    0.4784913693
C       -2.9302252283    0.5115625247    2.7237318678
C       -2.1587292288   -0.4759064386    0.5768001713
C       -2.9862204279   -0.4838744665    1.7091520096
C       -1.1896407052    1.5722497425    1.4773758992
C       -4.5342401631   -0.9901435087    3.2883661976
C       -2.2563797848   -1.5555265568   -0.4724129730
C       -4.9789635741   -2.3373368910    6.1956390468
C       -5.6513741875   -1.7773104251    3.9149071798
N       -3.9738221071   -1.3849515334    2.0784297965
N       -5.7890842276   -1.4690862662    5.3381503444
Br       0.0862341734    2.9995672456    1.2591020955
H       -1.9334223494    2.3466085312    3.3499071874
H       -4.1621901522    0.6926516462    4.6229036871
H       -0.5839088045    0.6390175171   -0.3762252299
H       -2.0500765047   -2.5463431968   -0.0479668860
H       -3.2586171036   -1.5899385657   -0.9179450384
H       -1.5407020992   -1.3873997457   -1.2808139653
H       -3.9187000663   -2.1645634590    5.9854253858
H       -5.1838428100   -3.4133513412    6.0565204110
H       -5.1563619795   -2.0809536214    7.2443550735
H       -6.5924805069   -1.5116265393    3.4151273101
H       -5.4944105032   -2.8562204652    3.7255383545
H       -4.2154339082   -2.2263468939    1.5749826566
H       -6.7662112539   -1.5632033074    5.6003702777
27   
torsion grid (-75,)
C       -1.7386154835    1.5284869285    2.6189087422
C       -3.8006001015    0.2887961779    3.6564251275
C       -0.9359229540    0.4299321819    0.5732374337
C       -2.7385023392    0.5408621338    2.7189841966
C       -1.9168594860   -0.5600577559    0.6470014105
C       -2.8054917618   -0.4789848875    1.7294131373
C       -0.8632744048    1.4474457933    1.5466094537
C       -4.4658227514   -0.8392365918    3.2326652309
C       -2.0276333743   -1.6630697027   -0.3761666938
C       -4.7578830845   -2.2215093738    5.9733465841
C       -5.6668152706   -1.5335482283    3.8112419139
N       -3.8687333804   -1.3024357616    2.0663645166
N       -5.7248212256   -1.3817419820    5.2633635195
Br       0.5164593221    2.7800350805    1.3635335141
H       -1.6562931156    2.3246314493    3.3516036822
H       -4.0517950062    0.8557055167    4.5423853774
H       -0.2202929569    0.4191173681   -0.2428313933
H       -1.9119044503   -2.6514407625    0.0865979021
H       -3.0034935301   -1.6460715993   -0.8776357883
H       -1.2582467384   -1.5671075399   -1.1460728935
H       -3.7439719315   -1.8973343061    5.7224754048
H       -4.8428319567   -3.2959191305    5.7305386941
H       -4.8930778892   -2.0967828173    7.0516703100
H       -6.5797043258   -1.0931853258    3.3907015494
H       -5.6510825620   -2.5948747393    3.4906161378
H       -4.1357023774   -2.1444389095    1.5768099469
H       -6.6657498871   -1.6014105448    5.5789531170
27   
torsion grid (-60,)
C       -1.6848049505    1.5985107499    2.5288651842
C       -3.8473067786    0.5422393485    3.5635617383
C       -0.8096064617    0.2596183083    0.6622621489
C       -2.7256648630    0.6587521194    2.6717930789
C       -1.8289824455   -0.6849933056    0.7806084594
C       -2.7722638008   -0.4615386094    1.7955070473
C       -0.7536504508    1.3725339243    1.5273504552
C       -4.5278589904   -0.6067258481    3.2248898566
C       -1.9228980327   -1.8879863740   -0.1245696451
C       -4.4831867685   -2.3811443479    5.5826611692
C       -5.7549566019   -1.2245197183    3.8330161214
N       -3.8790901957   -1.2115471384    2.1557213714
N       -5.5874670230   -1.4744488520    5.2670618537
Br       0.6910441736    2.6251559505    1.2932464508
H       -1.6137968117    2.4658450688    3.1770826952
H       -4.1176482038    1.2093568602    4.3713587227
H       -0.0494408721    0.1391893809   -0.1031351680
H       -1.8666444182   -2.8233900040    0.4465222388
H       -2.8692369608   -1.8970772642   -0.6798995964
H       -1.1104241283   -1.8975424713   -0.8550867955
H       -3.5368396622   -1.9118384560    5.3009866983
H       -4.5455095802   -3.3588105046    5.0695476842
H       -4.4618339337   -2.5591220348    6.6617083515
H       -6.6111750415   -0.5522079337    3.7078495959
H       -5.9869019996   -2.1470329526    3.2634279281
H       -4.1637006831   -2.0826138268    1.7311052579
H       -6.4596952950   -1.8424788416    5.6392422736
27   
torsion grid (-45,)
C       -1.6606440912    1.6911436074    2.5407574518
C       -3.8755247272    0.7404122177    3.5666322106
C       -0.7238930805    0.1937052906    0.8317018774
C       -2.7155759598    0.7735950051    2.7178855612
C       -1.7574919689   -0.7300342466    0.9844856329
C       -2.7393983179   -0.4158888412    1.9373008297
C       -0.6912020005    1.3751834941    1.6021086994
C       -4.5566609360   -0.4262300981    3.2961473903
C       -1.8281279214   -2.0033661909    0.1789518931
C       -4.3601546396   -2.5273819645    5.2452836875
C       -5.7934443631   -0.9947781916    3.9235593433
N       -3.8716156349   -1.1210438246    2.3061357755
N       -5.5281073210   -1.6493328701    5.2162868406
Br       0.7740776103    2.5940063735    1.3255874801
H       -1.6071901883    2.6091951168    3.1167879938
H       -4.1709554751    1.4788585803    4.3006592389
H        0.0661759280    0.0037243102    0.1120145699
H       -1.8087152883   -2.8882977553    0.8276609151
H       -2.7499905693   -2.0497444745   -0.4143586842
H       -0.9853970727   -2.0816604048   -0.5120692209
H       -3.4526835743   -1.9364516993    5.0985890255
H       -4.3697714049   -3.3309656954    4.4840059754
H       -4.2978831896   -2.9973945105    6.2311692613
H       -6.5178614828   -0.1919276701    4.0924234110
H       -6.2479009828   -1.6883484367    3.1898434231
H       -4.1451689811   -2.0246454016    1.9474251636
H       -6.3605976929   -2.1570783897    5.5044952611
27   
torsion grid (-30,)
C       -1.7272513895    1.7511387983    2.4903471579
C       -3.9225213768    0.7938909507    3.5521085074
C       -0.7770287833    0.2244176250    0.8145593866
C       -2.7673868669    0.8231910655    2.6961798804
C       -1.7961641387   -0.7100660313    0.9970852997
C       -2.7782198295   -0.3857447329    1.9462917814
C       -0.7582750427    1.4254970190    1.5542875027
C       -4.5880252297   -0.3892261399    3.3159520863
C       -1.8519583931   -2.0050697982    0.2257367556
C       -4.2736050245   -2.4989534194    5.1926351081
C       -5.8175522048   -0.9486388661    3.9603553417
N       -3.8981921612   -1.0978942415    2.3385257343
N       -5.5433553007   -1.7771393816    5.1550934311
Br       0.6860348273    2.6592521703    1.2380037646
H       -1.6841675459    2.6841591157    3.0427289012
H       -4.2261698053    1.5478324701    4.2669226692
H        0.0120527339    0.0275138279    0.0956037695
H       -1.8169674873   -2.8720282053    0.8976255372
H       -2.7756195945   -2.0803616080   -0.3618120349
H       -1.0112873939   -2.0896180457   -0.4670386973
H       -3.4437488428   -1.7889903666    5.1666357382
H       -4.1211924807   -3.2261279372    4.3727566013
H       -4.2155691453   -3.0453253805    6.1389895034
H       -6.4657610749   -0.1178974543    4.2571560070
H       -6.3653497461   -1.5185029395    3.1886148339
H       -4.1619841631   -2.0111998177    1.9980964530
H       -6.3193444566   -2.4156660904    5.3031345205
27   
torsion grid (-15,)
C       -1.8005539935    1.7919403109    2.5468911886
C       -3.9787189827    0.8006522319    3.6124884775
C       -0.8343253514    0.2845353387    0.8639539500
C       -2.8269423992    0.8490635539    2.7526092373
C       -1.8395693003   -0.6651500904    1.0463095220
C       -2.8233288753   -0.3574178097    1.9990609654
C       -0.8295388180    1.4835799515    1.6068784535
C       -4.6293615025   -0.3904519463    3.3741423700
C       -1.8791949661   -1.9585583116    0.2712484319
C       -4.2474925552   -2.5012722724    5.2243130730
C       -5.8526935039   -0.9588917160    4.0201319189
N       -3.9323516673   -1.0864941181    2.3919930856
N       -5.5911731811   -1.9363086949    5.1069681351
Br       0.5956713752    2.7392249056    1.2897112752
H       -1.7692127770    2.7237918165    3.1020093956
H       -4.2914685829    1.5491788030    4.3291605435
H       -0.0448440084    0.1008336187    0.1419603218
H       -1.8328718310   -2.8269141570    0.9406618556
H       -2.8020164389   -2.0439684359   -0.3162706506
H       -1.0377973120   -2.0305185388   -0.4220572407
H       -3.5190377001   -1.6999131383    5.3677952794
H       -3.9106978510   -3.1082500057    4.3647394335
H       -4.2215370789   -3.1376673865    6.1144381839
H       -6.4306941201   -0.1232698332    4.4293315360
H       -6.4745327751   -1.4139419495    3.2330414819
H       -4.1845805571   -2.0007737867    2.0459588160
H       -6.2791525877   -2.6811517628    5.0624017624
27   
torsion grid (0,)
C       -1.8056065325    1.7746102476    2.5685549276
C       -3.9868316990    0.7815940149    3.6257443823
C       -0.8501875301    0.2826173814    0.8660386290
C       -2.8364272899    0.8344847389    2.7642031066
C       -1.8598767542   -0.6642798167    1.0388196770
C       -2.8404326844   -0.3632044182    1.9967461457
C       -0.8376526239    1.4723991038    1.6233186203
C       -4.6448578619   -0.4027282582    3.3748813971
C       -1.9070295124   -1.9480014212    0.2481652941
C       -4.2555172377   -2.4259854325    5.3156230626
C       -5.8704355259   -0.9704116885    4.0202072651
N       -3.9516789347   -1.0923475229    2.3848064643
N       -5.6387132213   -2.0320399909    5.0364673293
Br       0.5942300296    2.7236979090    1.3196211248
H       -1.7685557825    2.6995529707    3.1348126177
H       -4.2940403861    1.5238155887    4.3513795477
H       -0.0630733959    0.1036557041    0.1402851346
H       -1.8628965815   -2.8247263334    0.9067544409
H       -2.8314418095   -2.0223103397   -0.3383926411
H       -1.0675147641   -2.0151677137   -0.4478950954
H       -3.6891775067   -1.5647362866    5.6789429280
H       -3.7019622151   -2.8475026249    4.4602278170
H       -4.2703016308   -3.1738607882    6.1146826872
H       -6.3953110796   -0.1342850393    4.4962319790
H       -6.5424161126   -1.3533271729    3.2404846996
H       -4.2140040346   -1.9971051309    2.0215470126
H       -6.1752208869   -2.8558251501    4.7837415339
27   
torsion grid (15,)
C       -1.8050946535    1.7443615551    2.6606205802
C       -4.0024499573    0.7434636008    3.6762501237
C       -0.8519294166    0.2913265102    0.9235401973
C       -2.8457009874    0.8090373152    2.8234239588
C       -1.8706827924   -0.6513700274    1.0642589932
C       -2.8545286782   -0.3673020890    2.0238284748
C       -0.8335624780    1.4594312647    1.7134818493
C       -4.6690945642   -0.4272292722    3.3894308540
C       -1.9233581936   -1.9128852525    0.2388446185
C       -4.3255538631   -2.3682459624    5.4308966462
C       -5.9000108733   -1.0081202936    4.0184878087
N       -3.9721765265   -1.0990186657    2.3892683351
N       -5.6938700617   -2.1441440364    4.9524957749
Br       0.6123157073    2.7046644753    1.4544880238
H       -1.7633447674    2.6528584334    3.2525728744
H       -4.3059688572    1.4679025577    4.4212601086
H       -0.0618707610    0.1254114531    0.1978907428
H       -1.8924270351   -2.8073175608    0.8739080615
H       -2.8436280814   -1.9629375508   -0.3567867629
H       -1.0790529792   -1.9691101075   -0.4523818076
H       -3.9881093195   -1.5021150920    6.0074817129
H       -3.5791224786   -2.5501267799    4.6421249433
H       -4.3370639288   -3.2301532404    6.1053452609
H       -6.3837237173   -0.1901052466    4.5650903906
H       -6.6095836214   -1.3222051572    3.2438633895
H       -4.2536571374   -1.9791930096    1.9822092343
H       -6.0241389264   -2.9971036992    4.5103750955
27   
torsion grid (30,)
C       -1.7824177208    1.7251291570    2.6320929343
C       -3.9760826237    0.7291072889    3.6621299278
C       -0.8516421354    0.2773535053    0.8776025033
C       -2.8266391934    0.7946889905    2.7987747539
C       -1.8747256986   -0.6601381356    1.0225923050
C       -2.8484133379   -0.3768113388    1.9925919769
C       -0.8207729289    1.4401618046    1.6747363398
C       -4.6518623178   -0.4355147265    3.3737224795
C       -1.9419950184   -1.9162473744    0.1900581202
C       -4.3695766888   -2.3066385494    5.5248394641
C       -5.8770732119   -1.0224412495    4.0140088957
N       -3.9671447799   -1.1048665558    2.3637373852
N       -5.6728853555   -2.2207702967    4.8567276788
Br       0.6298618690    2.6787548535    1.4112398441
H       -1.7304211418    2.6299691172    3.2288202203
H       -4.2680333039    1.4499534653    4.4152471890
H       -0.0690439521    0.1115835932    0.1438451165
H       -1.9092558515   -2.8148000286    0.8191957951
H       -2.8683325151   -1.9579364201   -0.3967322604
H       -1.1048478459   -1.9724256270   -0.5098228797
H       -4.2595999815   -1.4676596199    6.2194868424
H       -3.5021097586   -2.2910323953    4.8476895983
H       -4.3419224255   -3.2295394308    6.1122293475
H       -6.3127590066   -0.2331099898    4.6374091571
H       -6.6306138730   -1.2717705541    3.2581112205
H       -4.2537798205   -1.9832212037    1.9562168305
H       -5.7983737029   -3.0526922964    4.2850384731
27   
torsion grid (45,)
C       -2.9323743967   -0.3220948704    9.3431178395
C       -3.0827314855   -0.4943550503    6.7331528189
C       -2.1499180478   -2.4180254675   10.3596492428
C       -2.8199569135   -0.9332690420    8.0793090596
C       -2.0250452597   -3.0459141612    9.1199177294
C       -2.3657964162   -2.2791348840    7.9949393347
C       -2.5945150226   -1.0830132072   10.4519466323
C       -2.7873936992   -1.5435575405    5.8929393716
C       -1.5498507994   -4.4706301879    8.9799525339
C       -5.0099577740   -2.9143551427    4.7345183459
C       -2.8847473405   -1.6670422773    4.4061384036
N       -2.3364408007   -2.6158436915    6.6522709823
N       -3.7448032836   -2.7945663553    4.0050687209
Br      -2.7342300832   -0.2937925420   12.2034130347
H       -3.2718873748    0.7032424543    9.4478680798
H       -3.4470123255    0.4766075663    6.4229043707
H       -1.9006762996   -2.9615587048   11.2656198173
H       -2.3106504817   -5.1009449320    8.5024299871
H       -0.6425432362   -4.5290922020    8.3660688185
H       -1.3210291611   -4.9090371571    9.9542877542
H       -4.8177562884   -3.1458197111    5.7846795089
H       -5.5806695734   -3.7440977369    4.3066580335
H       -5.6387284003   -2.0078681135    4.7041267379
H       -3.2522382536   -0.6953138275    4.0350247176
H       -1.8917800149   -1.8273055067    3.9673388108
H       -2.1628214320   -3.5351766025    6.2692748455
H       -3.9102139306   -2.7520278686    3.0036100521
27   
torsion grid (60,)
C       -2.8600649836   -0.2825448895    9.3630394380
C       -3.0887414545   -0.4437847441    6.7576415460
C       -2.1075341303   -2.4023149776   10.3533136673
C       -2.7985003353   -0.8927975981    8.0953542693
C       -2.0326131114   -3.0290589942    9.1087565124
C       -2.3817629091   -2.2499191418    7.9951295293
C       -2.5128649345   -1.0561427464   10.4603474637
C       -2.8413762607   -1.4989877726    5.9093422140
C       -1.5992219161   -4.4653418232    8.9524727831
C       -5.0107502658   -2.9777307450    4.5979036015
C       -2.9624552786   -1.6250271179    4.4222282652
N       -2.3933563627   -2.5826004453    6.6509087396
N       -3.6513526609   -2.8715280507    4.0594833108
Br      -2.5824405208   -0.2681434412   12.2168770472
H       -3.1684986872    0.7513212768    9.4796554156
H       -3.4354888237    0.5375284151    6.4598178552
H       -1.8487910084   -2.9552308193   11.2509067062
H       -2.3889395600   -5.0738516158    8.4940102193
H       -0.7111561655   -4.5452476615    8.3135112904
H       -1.3557785257   -4.9127227265    9.9191911228
H       -4.9735967184   -3.0208422333    5.6896405062
H       -5.4656168557   -3.9051842437    4.2377260069
H       -5.6666538896   -2.1346620695    4.3201822283
H       -3.4738797907   -0.7200249118    4.0519175000
H       -1.9665611425   -1.6491356685    3.9618758887
H       -2.2904850528   -3.5076477115    6.2545974991
H       -3.6663626931   -2.9646559536    3.0472990958
27   
torsion grid (75,)
C       -2.7851176153   -0.2959416546    9.5235096021
C       -3.0879229400   -0.4153461297    6.9227968432
C       -2.0640768649   -2.4487375534   10.4659613697
C       -2.7737290027   -0.8894888706    8.2463245675
C       -2.0398689049   -3.0595316201    9.2114313196
C       -2.3963141306   -2.2560369227    8.1176254102
C       -2.4296837672   -1.0936789874   10.6007284884
C       -2.8893256345   -1.4666161023    6.0557147453
C       -1.6511414814   -4.5049076491    9.0246726036
C       -4.9994884567   -3.0247187702    4.4723403184
C       -3.0319760122   -1.5726929433    4.5660724747
N       -2.4545335107   -2.5704011566    6.7706252943
N       -3.5650718515   -2.8908298259    4.1954709202
Br      -2.4306952776   -0.3278904247   12.3688242188
H       -3.0623032821    0.7440259807    9.6622716645
H       -3.4151383880    0.5791529118    6.6471042884
H       -1.7966508461   -3.0206612228   11.3489828659
H       -2.4695000865   -5.0845586202    8.5792961514
H       -0.7830208093   -4.6003749255    8.3609254191
H       -1.3948961698   -4.9723082658    9.9785626109
H       -5.1701248397   -2.9448201449    5.5502507549
H       -5.3418314761   -4.0118391558    4.1480557178
H       -5.6167064574   -2.2562663439    3.9769571268
H       -3.6504643186   -0.7325306550    4.2096073668
H       -2.0453706490   -1.4721504019    4.0956254274
H       -2.3881371049   -3.4881828287    6.3493575581
H       -3.3959928272   -3.0486156645    3.2051323895
27   
torsion grid (90,)
C       -2.7038916355   -0.2760324034    9.6257009203
C       -3.0957885564   -0.3824584219    7.0365204375
C       -2.0083431762   -2.4498072654   10.5409028307
C       -2.7507712606   -0.8674025155    8.3480568749
C       -2.0427524965   -3.0587187774    9.2857519622
C       -2.4142202638   -2.2436218199    8.2056702969
C       -2.3335101790   -1.0857552828   10.6887376910
C       -2.9538455851   -1.4387313973    6.1630584225
C       -1.6993103498   -4.5136121687    9.0844297804
C       -4.9880332668   -3.0838052588    4.2724936750
C       -3.1334619604   -1.5367010562    4.6740937602
N       -2.5277747996   -2.5539139159    6.8616405080
N       -3.5321752541   -2.8995677474    4.2874839188
Br      -2.2552019338   -0.3240785497   12.4571433831
H       -2.9488077509    0.7705500264    9.7752387548
H       -3.4042560311    0.6214396187    6.7732598731
H       -1.7265735339   -3.0300555926   11.4139596486
H       -2.5468986112   -5.0697741424    8.6645590958
H       -0.8559035059   -4.6308038792    8.3928508395
H       -1.4252443976   -4.9900070685   10.0288988286
H       -5.3805380026   -2.9422278446    5.2846958188
H       -5.2245779295   -4.1055871720    3.9609169028
H       -5.5122501128   -2.3798726667    3.6051686056
H       -3.8421779548   -0.7644443440    4.3380124017
H       -2.1733572980   -1.3205030180    4.1878029399
H       -2.4962105070   -3.4682272464    6.4281373923
H       -3.1699349903   -3.0934890022    3.3575204877
27   
torsion grid (105,)
C       -2.5949792107   -0.2508985611    9.6265123298
C       -3.1046793592   -0.3551111384    7.0574522145
C       -1.9396931727   -2.4440270119   10.5242936785
C       -2.7216668814   -0.8459258145    8.3556444137
C       -2.0540827748   -3.0574881194    9.2761432773
C       -2.4437025518   -2.2349160698    8.2081990189
C       -2.2071417265   -1.0679805711   10.6774702802
C       -3.0420333504   -1.4219822241    6.1861088877
C       -1.7757526644   -4.5255502907    9.0698864213
C       -4.9523207966   -3.1902153435    4.0062230019
C       -3.2882355947   -1.5196933312    4.7036111201
N       -2.6319638270   -2.5476858074    6.8736158271
N       -3.5404432173   -2.9151147949    4.2971240848
Br      -2.0212691048   -0.3006716914   12.4358239727
H       -2.7942160703    0.8047366753    9.7801112094
H       -3.3862053171    0.6587066941    6.8018244999
H       -1.6401629919   -3.0299035847   11.3875925945
H       -2.6643324632   -5.0521096749    8.6995763034
H       -0.9746709318   -4.6791765801    8.3363452957
H       -1.4702899676   -5.0053952006   10.0029290393
H       -5.5428724965   -3.0560636653    4.9183204844
H       -5.0627153109   -4.2313368937    3.6879816871
H       -5.3767182026   -2.5366317480    3.2267499412
H       -4.1086023170   -0.8465281063    4.4195824026
H       -2.3958747770   -1.1593822798    4.1760980970
H       -2.6362606796   -3.4600201974    6.4342196737
H       -2.9948890596   -3.1172721843    3.4643955954
27   
torsion grid (120,)
C       -2.4416792011   -0.2363150431    9.6497945319
C       -3.0931297377   -0.3204842568    7.1122268575
C       -1.8900437570   -2.4640721992   10.5329447635
C       -2.6835345352   -0.8295982959    8.3945128961
C       -2.1229515043   -3.0770163251    9.3012787799
C       -2.5185201135   -2.2370357133    8.2491778187
C       -2.0512153799   -1.0713217395   10.6853766321
C       -3.1621483883   -1.3976751881    6.2527262031
C       -1.9634601598   -4.5629056672    9.0963847448
C       -4.7766991468   -3.3768327865    3.7989376261
C       -3.5300531310   -1.4911631146    4.7915977311
N       -2.8173683676   -2.5460490988    6.9348050202
N       -3.4947269700   -2.8865646600    4.3146947499
Br      -1.7094212045   -0.3066299262   12.4216409778
H       -2.5560605556    0.8319355991    9.8028242586
H       -3.3094486610    0.7102171312    6.8604010206
H       -1.5816445677   -3.0631963433   11.3839126519
H       -2.9072306646   -5.0251482904    8.7810931244
H       -1.2174500932   -4.7805685096    8.3219355093
H       -1.6419007407   -5.0570385176   10.0164830261
H       -5.5139246456   -3.3848576523    4.6081419075
H       -4.6558432222   -4.4070038176    3.4498600971
H       -5.1849868779   -2.7740733116    2.9711541272
H       -4.5281580742   -1.0615811834    4.6407823412
H       -2.8423724961   -0.8668001161    4.2076873451
H       -2.8115689282   -3.4467863071    6.4717208401
H       -2.7851066011   -2.9815753848    3.5950615788
27   
torsion grid (135,)
C       -2.2410822679   -0.1683808761    9.7539893385
C       -3.0465175060   -0.2453156358    7.2606099477
C       -1.7906245418   -2.4153148290   10.6451588359
C       -2.6053494022   -0.7630380701    8.5296799077
C       -2.1499192780   -3.0297379476    9.4448591838
C       -2.5564975992   -2.1807877015    8.4043702965
C       -1.8427962975   -1.0126368369   10.7793387226
C       -3.2539707894   -1.3273781795    6.4315309917
C       -2.1106285529   -4.5263802845    9.2612588311
C       -4.5091823605   -3.3504126501    3.6674813536
C       -3.7557221221   -1.4192981644    5.0144680278
N       -2.9752261378   -2.4906647478    7.1223419615
N       -3.4160248343   -2.7167429639    4.4073659363
Br      -1.3342199510   -0.2473315504   12.4737231022
H       -2.2688019007    0.9077231231    9.8915135235
H       -3.1977903017    0.7944982493    6.9990308529
H       -1.4695955279   -3.0215154379   11.4864141786
H       -3.0981354659   -4.9196094644    8.9899590961
H       -1.4136037430   -4.8126698565    8.4636513260
H       -1.7912928531   -5.0292427114   10.1773810854
H       -5.3286079256   -3.5778766884    4.3568382364
H       -4.1570046496   -4.2973505518    3.2467664885
H       -4.9157293544   -2.7378239141    2.8452944578
H       -4.8488131970   -1.3236535301    5.0226141486
H       -3.3824754079   -0.5648482801    4.4346236829
H       -2.9394547387   -3.3838042982    6.6464406047
H       -2.5946542877   -2.6242238513    3.8174513306
27   
torsion grid (150,)
C       -2.1608204807   -0.1106859172    9.7181982144
C       -3.0696778346   -0.2508722995    7.2637352885
C       -1.7259529327   -2.3366707313   10.6665546421
C       -2.5900106651   -0.7370913548    8.5315706906
C       -2.1497327461   -2.9823891497    9.5043856186
C       -2.5802836560   -2.1587781102    8.4530890225
C       -1.7393160308   -0.9294878861   10.7549086278
C       -3.3376317395   -1.3533990140    6.4811786132
C       -2.1533476849   -4.4848718747    9.3713478576
C       -4.3896434845   -3.2720540871    3.4795380644
C       -3.9040163826   -1.4781286223    5.0955079892
N       -3.0597268092   -2.5013436473    7.2008977092
N       -3.4428377408   -2.7128022920    4.4456580963
Br      -1.1409167647   -0.1212039837   12.3989654044
H       -2.1573791108    0.9698183185    9.8190321931
H       -3.2062512059    0.7828707488    6.9719726035
H       -1.3840702331   -2.9221691017   11.5142438273
H       -3.1604540554   -4.8623295077    9.1554655686
H       -1.4977786046   -4.8152634194    8.5558293766
H       -1.8070926225   -4.9643330868   10.2902090823
H       -5.3032571561   -3.5729686220    4.0024981949
H       -3.9548268830   -4.1681717144    3.0265075176
H       -4.6740808325   -2.5795251110    2.6691893407
H       -4.9975611787   -1.5414863721    5.1683351898
H       -3.6874011633   -0.5651741409    4.5213552138
H       -3.0546842026   -3.4119584351    6.7588489123
H       -2.5382752177   -2.5564145239    4.0084703272
27   
torsion grid (165,)
C       -2.1169249462   -0.0463701231    9.6597560773
C       -3.1261187822   -0.2713215927    7.2513806710
C       -1.6778326293   -2.2389367569   10.6809591296
C       -2.6040773823   -0.7136401735    8.5188954038
C       -2.1597482625   -2.9244933469    9.5652371979
C       -2.6196622303   -2.1369186516    8.4987746689
C       -1.6650776415   -0.8293164008   10.7113351254
C       -3.4426419486   -1.3985788379    6.5252954333
C       -2.1927046029   -4.4308484039    9.4951060468
C       -4.2639694445   -3.1698372029    3.3249927179
C       -4.0500339839   -1.5675748042    5.1655924253
N       -3.1565698254   -2.5225597039    7.2824759171
N       -3.4850473363   -2.7424693445    4.4890435223
Br      -0.9842227092    0.0347785489   12.2933388778
H       -2.0927940575    1.0371442862    9.7152221972
H       -3.2597451625    0.7516354288    6.9228454153
H       -1.3102602204   -2.7951221093   11.5376072856
H       -3.2128989706   -4.7987349950    9.3304959785
H       -1.5720057879   -4.8063299197    8.6718074558
H       -1.8217562456   -4.8782647977   10.4204440191
H       -5.2494340784   -3.5133517558    3.6567408570
H       -3.7611184415   -4.0132947211    2.8427633206
H       -4.4165035427   -2.3794179647    2.5704683005
H       -5.1280905343   -1.7495442282    5.2726439421
H       -3.9465173715   -0.6307529769    4.5956128470
H       -3.1671348895   -3.4514318834    6.8810075905
H       -2.5279830150   -2.5357757375    4.2096412636
27   
torsion grid (180,)
C       -2.0423726955   -0.0717872102    9.5892639654
C       -3.1576102154   -0.3434894608    7.2334795648
C       -1.5986008271   -2.2429409119   10.6527580119
C       -2.5893231460   -0.7608026975    8.4891735951
C       -2.1380840335   -2.9495622874    9.5774427495
C       -2.6292191053   -2.1834504202    8.5089870105
C       -1.5599009020   -0.8333853326   10.6427548797
C       -3.5226570523   -1.4830750115    6.5507729115
C       -2.1987559172   -4.4564228351    9.5508090060
C       -4.1720970955   -3.0256743482    3.1884111636
C       -4.1783406904   -1.6719873653    5.2188245261
N       -3.2178769029   -2.5921324375    7.3248441125
N       -3.5647511857   -2.7978752547    4.5017716591
Br      -0.7961423595    0.0610961340   12.1686230083
H       -1.9967688108    1.0121869904    9.6126440471
H       -3.2864603651    0.6722307549    6.8816830904
H       -1.2049957663   -2.7822233287   11.5086697408
H       -3.2313487335   -4.8112527953    9.4450460195
H       -1.6238395096   -4.8646763109    8.7100873085
H       -1.7916669290   -4.8850234535   10.4698057245
H       -5.2117393485   -3.3447300721    3.3197007601
H       -3.6383397177   -3.8309444071    2.6753077561
H       -4.1715515376   -2.1350217656    2.5369978071
H       -5.2422603230   -1.9113016750    5.3525367921
H       -4.1361012386   -0.7201884384    4.6632439903
H       -3.2905447697   -3.5372594816    6.9719462281
H       -2.5739482964   -2.5934591844    4.3780831678
