
  -OEChem-05262117483D

 49 53  0     0  0  0  0  0  0999 V2000
   -3.3370   -1.8491    4.7977 C   0  0  0  0  0  0  0  0  0  0  0  0
    2.2657   -0.0837   -0.1786 C   0  0  0  0  0  0  0  0  0  0  0  0
   -3.2889   -0.9115    3.7637 C   0  0  0  0  0  0  0  0  0  0  0  0
    1.1216    0.4514    0.4122 C   0  0  0  0  0  0  0  0  0  0  0  0
   -2.8706   -1.5236    6.0750 C   0  0  0  0  0  0  0  0  0  0  0  0
    4.2542   -1.6725   -1.8124 C   0  0  0  0  0  0  0  0  0  0  0  0
    1.1187   -1.4484    1.9164 C   0  0  0  0  0  0  0  0  0  0  0  0
    5.2802   -2.0132    0.3147 C   0  0  0  0  0  0  0  0  0  0  0  0
   -2.2880    0.6975    5.2648 C   0  0  0  0  0  0  0  0  0  0  0  0
    5.4859   -1.9861   -2.3889 C   0  0  0  0  0  0  0  0  0  0  0  0
    2.8650   -1.2810    0.2471 C   0  0  0  0  0  0  0  0  0  0  0  0
    4.1314   -1.6837   -0.4159 C   0  0  0  0  0  0  0  0  0  0  0  0
    2.2619   -2.0004    1.3130 C   0  0  0  0  0  0  0  0  0  0  0  0
   -2.7609    0.3702    3.9859 C   0  0  0  0  0  0  0  0  0  0  0  0
    0.5514   -0.2470    1.4864 C   0  0  0  0  0  0  0  0  0  0  0  0
   -2.3556   -0.2446    6.2909 C   0  0  0  0  0  0  0  0  0  0  0  0
    6.4716   -2.3202   -0.3462 C   0  0  0  0  0  0  0  0  0  0  0  0
    2.7099   -3.3050    1.8138 C   0  0  0  0  0  0  0  0  0  0  0  0
   -1.4371    1.2327    1.9235 C   0  0  0  0  0  0  0  0  0  0  0  0
   -3.9067    1.8319    2.1674 C   0  0  0  0  0  0  0  0  0  0  0  0
   -3.1389    2.7704    3.0545 C   0  0  0  0  0  0  0  0  0  0  0  0
   -2.6359    1.3496    2.8574 C   0  0  0  0  0  0  0  0  0  0  0  0
    7.6996   -2.7379    0.4259 C   0  0  0  0  0  0  0  0  0  0  0  0
    2.8881   -4.9974    3.0988 N   0  5  0  0  0  0  0  0  0  0  0  0
    6.5836   -2.3026   -1.6906 N   0  0  0  0  0  0  0  0  0  0  0  0
    2.3314   -3.7805    3.0232 N   0  0  0  0  0  0  0  0  0  0  0  0
    3.4700   -4.1976    1.1462 N   0  0  0  0  0  0  0  0  0  0  0  0
    3.5645   -5.2497    1.9746 N   0  0  0  0  0  0  0  0  0  0  0  0
   -0.6027    0.1890    2.1888 N   0  0  0  0  0  0  0  0  0  0  0  0
   -1.2831    2.0428    1.0047 O   0  0  0  0  0  0  0  0  0  0  0  0
   -1.7682    0.1877    7.8925 Cl  0  0  0  0  0  0  0  0  0  0  0  0
   -3.7289   -2.8452    4.6116 H   0  0  0  0  0  0  0  0  0  0  0  0
    2.7386    0.4708   -0.9854 H   0  0  0  0  0  0  0  0  0  0  0  0
   -3.6459   -1.1735    2.7713 H   0  0  0  0  0  0  0  0  0  0  0  0
    0.6879    1.3795    0.0664 H   0  0  0  0  0  0  0  0  0  0  0  0
   -2.8967   -2.2478    6.8827 H   0  0  0  0  0  0  0  0  0  0  0  0
    3.3980   -1.4473   -2.4427 H   0  0  0  0  0  0  0  0  0  0  0  0
    0.6732   -2.0102    2.7339 H   0  0  0  0  0  0  0  0  0  0  0  0
    5.2394   -2.0522    1.3975 H   0  0  0  0  0  0  0  0  0  0  0  0
   -1.8625    1.6785    5.4514 H   0  0  0  0  0  0  0  0  0  0  0  0
    5.5942   -1.9864   -3.4742 H   0  0  0  0  0  0  0  0  0  0  0  0
   -4.8438    1.4264    2.5373 H   0  0  0  0  0  0  0  0  0  0  0  0
   -3.8380    1.9883    1.0961 H   0  0  0  0  0  0  0  0  0  0  0  0
   -2.5608    3.5506    2.5713 H   0  0  0  0  0  0  0  0  0  0  0  0
   -3.5577    3.0119    4.0268 H   0  0  0  0  0  0  0  0  0  0  0  0
    7.7874   -3.8308    0.4188 H   0  0  0  0  0  0  0  0  0  0  0  0
    8.6016   -2.3271   -0.0372 H   0  0  0  0  0  0  0  0  0  0  0  0
    7.6481   -2.4166    1.4700 H   0  0  0  0  0  0  0  0  0  0  0  0
   -0.8563   -0.4026    2.9703 H   0  0  0  0  0  0  0  0  0  0  0  0
  1  3  1  0  0  0  0
  1  5  2  0  0  0  0
  1 32  1  0  0  0  0
  2  4  2  0  0  0  0
  2 11  1  0  0  0  0
  2 33  1  0  0  0  0
  3 14  2  0  0  0  0
  3 34  1  0  0  0  0
  4 15  1  0  0  0  0
  4 35  1  0  0  0  0
  5 16  1  0  0  0  0
  5 36  1  0  0  0  0
  6 10  2  0  0  0  0
  6 12  1  0  0  0  0
  6 37  1  0  0  0  0
  7 13  1  0  0  0  0
  7 15  2  0  0  0  0
  7 38  1  0  0  0  0
  8 12  2  0  0  0  0
  8 17  1  0  0  0  0
  8 39  1  0  0  0  0
  9 14  1  0  0  0  0
  9 16  2  0  0  0  0
  9 40  1  0  0  0  0
 10 25  1  0  0  0  0
 10 41  1  0  0  0  0
 11 12  1  0  0  0  0
 11 13  2  0  0  0  0
 13 18  1  0  0  0  0
 14 22  1  0  0  0  0
 15 29  1  0  0  0  0
 16 31  1  0  0  0  0
 17 23  1  0  0  0  0
 17 25  2  0  0  0  0
 18 26  2  0  0  0  0
 18 27  1  0  0  0  0
 19 22  1  0  0  0  0
 19 29  1  0  0  0  0
 19 30  2  0  0  0  0
 20 21  1  0  0  0  0
 20 22  1  0  0  0  0
 20 42  1  0  0  0  0
 20 43  1  0  0  0  0
 21 22  1  0  0  0  0
 21 44  1  0  0  0  0
 21 45  1  0  0  0  0
 23 46  1  0  0  0  0
 23 47  1  0  0  0  0
 23 48  1  0  0  0  0
 24 26  1  0  0  0  0
 24 28  1  0  0  0  0
 27 28  2  0  0  0  0
 29 49  1  0  0  0  0
M  CHG  1  24  -1
M  END
$$$$
