
  -OEChem-05262117483D

 57 60  0     1  0  0  0  0  0999 V2000
    2.6095    9.0621    5.8065 C   0  0  0  0  0  0  0  0  0  0  0  0
    0.5158    8.2991    6.7502 C   0  0  0  0  0  0  0  0  0  0  0  0
   -1.1740    5.1393   -2.1564 C   0  0  0  0  0  0  0  0  0  0  0  0
    2.6376    7.9560    4.9718 C   0  0  0  0  0  0  0  0  0  0  0  0
    0.5365    7.1817    5.9136 C   0  0  0  0  0  0  0  0  0  0  0  0
   -0.9519    4.6070   -0.8855 C   0  0  0  0  0  0  0  0  0  0  0  0
   -0.5521    8.7000   -1.7961 C   0  0  0  0  0  0  0  0  0  0  0  0
   -0.3966    6.8133    0.0176 C   0  0  0  0  0  0  0  0  0  0  0  0
   -0.8750    8.6075   -3.1380 C   0  0  0  0  0  0  0  0  0  0  0  0
    0.7677   11.7609    9.1125 C   0  0  0  0  0  0  0  0  0  0  0  0
   -0.6157    7.3742   -1.2562 C   0  0  0  0  0  0  0  0  0  0  0  0
    1.5458    9.2496    6.7129 C   0  0  0  0  0  0  0  0  0  0  0  0
   -0.9949    6.5164   -2.3405 C   0  0  0  0  0  0  0  0  0  0  0  0
    1.6027    7.0017    5.0176 C   0  0  0  0  0  0  0  0  0  0  0  0
   -0.5673    5.4436    0.1823 C   0  0  0  0  0  0  0  0  0  0  0  0
    1.9489   12.2473    8.6415 C   0  0  0  0  0  0  0  0  0  0  0  0
    1.5380   10.4188    7.5805 C   0  0  0  0  0  0  0  0  0  0  0  0
   -1.1172    7.5371   -6.0606 C   0  0  0  0  0  0  0  0  0  0  0  0
    2.8111   14.4777    7.8356 C   0  0  0  0  0  0  0  0  0  0  0  0
   -3.1525    6.7467   -4.7772 C   0  0  0  0  0  0  0  0  0  0  0  0
    2.6888   13.4953    9.0125 C   0  0  0  0  0  0  0  0  0  0  0  0
    1.0616    3.9165    3.1002 C   0  0  0  0  0  0  0  0  0  0  0  0
    0.6986    4.9445    4.1610 C   0  0  0  0  0  0  0  0  0  0  0  0
    0.9828    4.4707    1.6826 C   0  0  0  0  0  0  0  0  0  0  0  0
   -1.6163    6.7777   -4.7714 C   0  0  2  0  0  0  0  0  0  0  0  0
    2.4261   11.3762    7.6628 N   0  0  0  0  0  0  0  0  0  0  0  0
   -1.1315    7.2946   -3.4761 N   0  0  0  0  0  0  0  0  0  0  0  0
   -0.9307    8.7807   -5.9687 O   0  5  0  0  0  0  0  0  0  0  0  0
   -1.0375    6.7809   -7.0611 O   0  0  0  0  0  0  0  0  0  0  0  0
    0.4873   10.5863    8.4443 O   0  0  0  0  0  0  0  0  0  0  0  0
    1.7283    5.9486    4.1688 O   0  0  0  0  0  0  0  0  0  0  0  0
   -0.3691    4.8677    1.4460 O   0  0  0  0  0  0  0  0  0  0  0  0
    3.4051    9.7997    5.7699 H   0  0  0  0  0  0  0  0  0  0  0  0
   -0.3132    8.4340    7.4382 H   0  0  0  0  0  0  0  0  0  0  0  0
   -1.4805    4.4965   -2.9764 H   0  0  0  0  0  0  0  0  0  0  0  0
    3.4487    7.8046    4.2656 H   0  0  0  0  0  0  0  0  0  0  0  0
   -0.2773    6.4680    5.9613 H   0  0  0  0  0  0  0  0  0  0  0  0
   -1.0853    3.5449   -0.6965 H   0  0  0  0  0  0  0  0  0  0  0  0
   -0.2862    9.6087   -1.2704 H   0  0  0  0  0  0  0  0  0  0  0  0
   -0.1058    7.4261    0.8682 H   0  0  0  0  0  0  0  0  0  0  0  0
   -0.9201    9.3449   -3.9279 H   0  0  0  0  0  0  0  0  0  0  0  0
    0.0489   12.0812    9.8515 H   0  0  0  0  0  0  0  0  0  0  0  0
    3.3107   13.9987    6.9891 H   0  0  0  0  0  0  0  0  0  0  0  0
    3.3897   15.3617    8.1249 H   0  0  0  0  0  0  0  0  0  0  0  0
    1.8229   14.8086    7.4994 H   0  0  0  0  0  0  0  0  0  0  0  0
   -3.5448    7.7680   -4.7292 H   0  0  0  0  0  0  0  0  0  0  0  0
   -3.5496    6.1815   -3.9246 H   0  0  0  0  0  0  0  0  0  0  0  0
   -3.4989    6.2847   -5.7063 H   0  0  0  0  0  0  0  0  0  0  0  0
    2.1809   13.9760    9.8559 H   0  0  0  0  0  0  0  0  0  0  0  0
    3.6920   13.2190    9.3593 H   0  0  0  0  0  0  0  0  0  0  0  0
    2.0725    3.5377    3.2903 H   0  0  0  0  0  0  0  0  0  0  0  0
    0.3665    3.0739    3.1921 H   0  0  0  0  0  0  0  0  0  0  0  0
   -0.2659    5.4047    3.9229 H   0  0  0  0  0  0  0  0  0  0  0  0
    0.6428    4.4785    5.1538 H   0  0  0  0  0  0  0  0  0  0  0  0
    1.2833    3.7022    0.9561 H   0  0  0  0  0  0  0  0  0  0  0  0
    1.6549    5.3301    1.5627 H   0  0  0  0  0  0  0  0  0  0  0  0
   -1.2343    5.7584   -4.8548 H   0  0  0  0  0  0  0  0  0  0  0  0
  1  4  1  0  0  0  0
  1 12  2  0  0  0  0
  1 33  1  0  0  0  0
  2  5  2  0  0  0  0
  2 12  1  0  0  0  0
  2 34  1  0  0  0  0
  3  6  2  0  0  0  0
  3 13  1  0  0  0  0
  3 35  1  0  0  0  0
  4 14  2  0  0  0  0
  4 36  1  0  0  0  0
  5 14  1  0  0  0  0
  5 37  1  0  0  0  0
  6 15  1  0  0  0  0
  6 38  1  0  0  0  0
  7  9  2  0  0  0  0
  7 11  1  0  0  0  0
  7 39  1  0  0  0  0
  8 11  1  0  0  0  0
  8 15  2  0  0  0  0
  8 40  1  0  0  0  0
  9 27  1  0  0  0  0
  9 41  1  0  0  0  0
 10 16  2  0  0  0  0
 10 30  1  0  0  0  0
 10 42  1  0  0  0  0
 11 13  2  0  0  0  0
 12 17  1  0  0  0  0
 13 27  1  0  0  0  0
 14 31  1  0  0  0  0
 15 32  1  0  0  0  0
 16 21  1  0  0  0  0
 16 26  1  0  0  0  0
 17 26  2  0  0  0  0
 17 30  1  0  0  0  0
 18 25  1  0  0  0  0
 18 28  1  0  0  0  0
 18 29  2  0  0  0  0
 19 21  1  0  0  0  0
 19 43  1  0  0  0  0
 19 44  1  0  0  0  0
 19 45  1  0  0  0  0
 20 25  1  0  0  0  0
 20 46  1  0  0  0  0
 20 47  1  0  0  0  0
 20 48  1  0  0  0  0
 21 49  1  0  0  0  0
 21 50  1  0  0  0  0
 22 23  1  0  0  0  0
 22 24  1  0  0  0  0
 22 51  1  0  0  0  0
 22 52  1  0  0  0  0
 23 31  1  0  0  0  0
 23 53  1  0  0  0  0
 23 54  1  0  0  0  0
 24 32  1  0  0  0  0
 24 55  1  0  0  0  0
 24 56  1  0  0  0  0
 25 27  1  0  0  0  0
 25 57  1  0  0  0  0
M  CHG  1  28  -1
M  END
$$$$
