
  -OEChem-05262117483D

 40 42  0     1  0  0  0  0  0999 V2000
    9.9455    1.7667   -0.0827 C   0  0  0  0  0  0  0  0  0  0  0  0
    7.2199   -3.7795    2.8301 C   0  0  0  0  0  0  0  0  0  0  0  0
    6.3475   -3.7070    1.7382 C   0  0  0  0  0  0  0  0  0  0  0  0
    7.3968   -2.6639    3.6627 C   0  0  0  0  0  0  0  0  0  0  0  0
    5.6481   -2.5287    1.4435 C   0  0  0  0  0  0  0  0  0  0  0  0
    7.1262   -0.3182   -0.9017 C   0  0  0  0  0  0  0  0  0  0  0  0
    8.6811    1.1250   -0.2263 C   0  0  0  0  0  0  0  0  0  0  0  0
    6.7105   -1.4864    3.3796 C   0  0  0  0  0  0  0  0  0  0  0  0
    5.8565   -1.4206    2.2692 C   0  0  0  0  0  0  0  0  0  0  0  0
    6.6087    0.6194   -0.0325 C   0  0  0  0  0  0  0  0  0  0  0  0
    6.6417   -0.1941    4.1603 C   0  0  0  0  0  0  0  0  0  0  0  0
    5.8878    0.7673    3.2130 C   0  0  0  0  0  0  0  0  0  0  0  0
   11.2919   -1.3097    0.2450 C   0  0  0  0  0  0  0  0  0  0  0  0
    9.3362   -2.8388    0.0798 C   0  0  0  0  0  0  0  0  0  0  0  0
   10.9800    2.2774    0.0739 N   0  0  0  0  0  0  0  0  0  0  0  0
    7.5702    1.5006    0.3878 N   0  0  0  0  0  0  0  0  0  0  0  0
    8.4560    0.0142   -1.0373 N   0  0  0  0  0  0  0  0  0  0  0  0
    5.2479   -0.1322    2.1914 N   0  0  1  0  0  0  0  0  0  0  0  0
   10.2839   -1.9508   -0.6203 N   0  0  0  0  0  0  0  0  0  0  0  0
    4.4996    1.9197    0.9325 O   0  0  0  0  0  0  0  0  0  0  0  0
    4.2272   -0.3934   -0.1321 O   0  0  0  0  0  0  0  0  0  0  0  0
    8.8070   -1.8947   -2.6658 O   0  0  0  0  0  0  0  0  0  0  0  0
   10.6655   -0.1558   -2.3595 O   0  0  0  0  0  0  0  0  0  0  0  0
    4.9727    0.5696    0.6737 S   0  0  0  0  0  0  0  0  0  0  0  0
    9.6541   -1.0521   -1.8457 S   0  0  0  0  0  0  0  0  0  0  0  0
    7.7469   -4.7053    3.0435 H   0  0  0  0  0  0  0  0  0  0  0  0
    6.1970   -4.5803    1.1087 H   0  0  0  0  0  0  0  0  0  0  0  0
    8.0556   -2.7206    4.5261 H   0  0  0  0  0  0  0  0  0  0  0  0
    4.9534   -2.4797    0.6136 H   0  0  0  0  0  0  0  0  0  0  0  0
    6.6786   -1.1450   -1.4309 H   0  0  0  0  0  0  0  0  0  0  0  0
    6.0805   -0.3484    5.0883 H   0  0  0  0  0  0  0  0  0  0  0  0
    7.6259    0.1973    4.4324 H   0  0  0  0  0  0  0  0  0  0  0  0
    5.1100    1.3468    3.7084 H   0  0  0  0  0  0  0  0  0  0  0  0
    6.5787    1.4579    2.7241 H   0  0  0  0  0  0  0  0  0  0  0  0
   11.9237   -0.6469   -0.3429 H   0  0  0  0  0  0  0  0  0  0  0  0
   11.9077   -2.1071    0.6670 H   0  0  0  0  0  0  0  0  0  0  0  0
   10.8233   -0.7474    1.0612 H   0  0  0  0  0  0  0  0  0  0  0  0
    8.6946   -3.3417   -0.6419 H   0  0  0  0  0  0  0  0  0  0  0  0
    8.7247   -2.2907    0.8054 H   0  0  0  0  0  0  0  0  0  0  0  0
    9.9229   -3.5917    0.6094 H   0  0  0  0  0  0  0  0  0  0  0  0
  1  7  1  0  0  0  0
  1 15  3  0  0  0  0
  2  3  1  0  0  0  0
  2  4  2  0  0  0  0
  2 26  1  0  0  0  0
  3  5  2  0  0  0  0
  3 27  1  0  0  0  0
  4  8  1  0  0  0  0
  4 28  1  0  0  0  0
  5  9  1  0  0  0  0
  5 29  1  0  0  0  0
  6 10  2  0  0  0  0
  6 17  1  0  0  0  0
  6 30  1  0  0  0  0
  7 16  2  0  0  0  0
  7 17  1  0  0  0  0
  8  9  2  0  0  0  0
  8 11  1  0  0  0  0
  9 18  1  0  0  0  0
 10 16  1  0  0  0  0
 10 24  1  0  0  0  0
 11 12  1  0  0  0  0
 11 31  1  0  0  0  0
 11 32  1  0  0  0  0
 12 18  1  0  0  0  0
 12 33  1  0  0  0  0
 12 34  1  0  0  0  0
 13 19  1  0  0  0  0
 13 35  1  0  0  0  0
 13 36  1  0  0  0  0
 13 37  1  0  0  0  0
 14 19  1  0  0  0  0
 14 38  1  0  0  0  0
 14 39  1  0  0  0  0
 14 40  1  0  0  0  0
 17 25  1  0  0  0  0
 18 24  1  0  0  0  0
 19 25  1  0  0  0  0
 20 24  2  0  0  0  0
 21 24  2  0  0  0  0
 22 25  2  0  0  0  0
 23 25  2  0  0  0  0
M  END
$$$$
