49
-1 1 C23ClH18N6O
C                    -2.667036223981    -1.234085674418     5.405795587191
C                     2.778417602036    -0.086110769073     0.078738081670
C                    -2.392642234813    -0.131531816516     4.593783603376
C                     1.512930954112     0.357418776669     0.461087735552
C                    -3.481954136823    -2.272083251725     4.943724815011
C                     5.733543958586    -0.699087308051    -0.128329934551
C                     1.422638108127    -1.510171263208     2.002674445263
C                     4.945934616708    -2.935035857990    -0.397783408862
C                    -3.734137383686    -1.093687366734     2.827982710302
C                     6.921748286054    -1.108798895127    -0.734232803001
C                     3.391775042771    -1.227322678538     0.622107634626
C                     4.702980754868    -1.632252779091     0.054271626252
C                     2.704937446299    -1.951512814645     1.632671284180
C                    -2.920768309039    -0.051562027263     3.295522386077
C                     0.826198605696    -0.382442371021     1.434721086551
C                    -4.010952538513    -2.181684522672     3.655543994941
C                     6.169830703470    -3.259732321533    -0.987752746207
C                     3.242863945967    -3.106700093156     2.360772606093
C                    -1.240641465668     1.038707674915     1.640182970561
C                    -3.672564027403     1.828959627238     1.661968386683
C                    -2.975194619082     2.501184878764     2.810458123244
C                    -2.563034634887     1.093292992126     2.395929695317
C                     6.466950842964    -4.676363183506    -1.416549622688
N                     4.545351124846    -3.435449948297     2.486228462795
N                     7.154973965724    -2.355549182515    -1.164693327964
N                     2.447760195345    -3.952007494309     3.057310396553
N                     4.547400125464    -4.518231814111     3.279642550583
N                     3.292454523532    -4.829595192155     3.616391310854
N                    -0.472452975049    -0.054683934676     1.905409800654
O                    -0.930515679659     1.946882090710     0.863439869947
Cl                   -5.043650871732    -3.474435380634     3.056148349857
H                    -2.237984035372    -1.296902978153     6.402043215161
H                     3.301995509264     0.456958745697    -0.704143649217
H                    -1.752405496959     0.668380530377     4.956211317516
H                     1.063914470417     1.235762488828     0.018642077032
H                    -3.694835450459    -3.136399058125     5.564401353372
H                     5.622145445772     0.324973900570     0.217886938458
H                     0.909417659442    -2.079301750167     2.774114835678
H                     4.190025931976    -3.701914333383    -0.269281872725
H                    -4.139083079092    -1.056233907713     1.821476569345
H                     7.733645766505    -0.394792382848    -0.878185927391
H                    -4.685571713655     1.470595396106     1.818350423222
H                    -3.432537695603     2.175595254050     0.662654790623
H                    -2.272614312807     3.293141511970     2.573899039905
H                    -3.508362169885     2.593293337050     3.752061621248
H                     7.127774108926    -4.680833900128    -2.287829178925
H                     6.974595102667    -5.210500186959    -0.604312796767
H                     5.551346122951    -5.227519187526    -1.650520801920
H                    -0.847621202047    -0.717437136385     2.572542345956
