40
0 1 C14H15N5O4S2
C                     9.582366532406     2.684120228677    -0.474777269528
C                     4.710873623469     6.252401060041    -1.019729422184
C                     5.242512598274     5.945373088007     0.238116086738
C                     3.969317960391     5.292749703387    -1.723943420220
C                     5.057151642905     4.685184197184     0.821036153916
C                     6.939093767793     0.267777210244    -0.082895091458
C                     8.414893870479     1.936297022466    -0.143800107507
C                     3.787265616739     4.033232174400    -1.161412625053
C                     4.335358044550     3.739369475187     0.094928946361
C                     6.519646404854     1.351455698048     0.660966366064
C                     2.988484703640     2.847358216364    -1.655041689833
C                     3.510297339194     1.697065509545    -0.772199696211
C                     7.289903565609    -0.008068915275    -3.659627300927
C                     9.248817558558     1.531532279207    -3.637905883496
N                    10.513721825794     3.317239390169    -0.769479106211
N                     7.427980335827     2.375209417668     0.617595446386
N                     8.163773444293     0.640543205543    -0.596645119529
N                     3.993607755289     2.393374335609     0.455796836587
N                     8.679665803967     0.230897204691    -3.237288810048
O                     4.382259518158     0.141074347446     1.492438783592
O                     5.139477673066     2.262335595834     2.718131543403
O                    10.481557440077    -0.029640046378    -1.486615675231
O                     8.509791516008    -1.666996961921    -1.587800295280
S                     4.950976431960     1.487243364072     1.502321332046
S                     9.098992117619    -0.353696475376    -1.755918969050
H                     4.869783513085     7.237633155273    -1.449096815199
H                     5.814092339618     6.694614833107     0.778943636419
H                     3.542350285483     5.528972489317    -2.695948694029
H                     5.469960424819     4.451776750434     1.794854669313
H                     6.514349642606    -0.711160020437    -0.246238602373
H                     1.918884456932     3.011260173281    -1.478959200674
H                     3.123486605007     2.637683975921    -2.719595988416
H                     2.757725423697     0.957510189241    -0.504646894147
H                     4.348984939820     1.186938345077    -1.267718257014
H                     7.000455749531    -1.030062543866    -3.419120121671
H                     7.250171152013     0.121163647428    -4.743198434550
H                     6.595852093107     0.701695162138    -3.189355335043
H                    10.274998333579     1.613724358741    -3.285154518619
H                     8.656337418226     2.369286088435    -3.250871571938
H                     9.245756898115     1.563661141259    -4.729664880849
