49
-1 1 C23ClH18N6O
C                    -2.073183091042     4.744808424463     2.799840881026
C                     1.594312688708    -1.230669486266    -0.273531419731
C                    -2.391011786909     3.405163956465     2.581030570670
C                     0.488629350868    -0.679843440112     0.372849467713
C                    -1.579175976771     5.169585612642     4.039139347852
C                     3.684081527059    -3.072779410611    -1.453242156630
C                     1.671745353700    -0.985253452825     2.466081633322
C                     5.181353884086    -1.641924032377    -0.268063643284
C                    -1.705893577155     2.872104119683     4.838984314610
C                     4.766821863045    -3.443460923960    -2.251853960567
C                     2.747922728084    -1.659619173249     0.403981254064
C                     3.883081167766    -2.143871577697    -0.422351259925
C                     2.782427654021    -1.556308292710     1.820148863723
C                    -2.213934719766     2.456357494066     3.602316779290
C                     0.544507649092    -0.548485855192     1.768201939416
C                    -1.403709481636     4.220031957312     5.043871088828
C                     6.208475287475    -2.074212467720    -1.110072963346
C                     3.871033406086    -2.037487225334     2.677995536932
C                    -1.741987521712     0.437189272493     2.162841495886
C                    -2.978934806564     0.083305468385     4.434674997135
C                    -3.987560937262     0.571030460691     3.414910363499
C                    -2.549953278988     1.019017795255     3.323550950262
C                     7.624811614704    -1.590840995158    -0.912780898122
N                     4.009798524728    -1.628473120281     3.960771716688
N                     6.008627031734    -2.965219469907    -2.103049932189
N                     4.801856775834    -2.956542895149     2.347673956683
N                     5.064897844750    -2.313017469101     4.423103500236
N                     5.535901329334    -3.111357720461     3.460639466164
N                    -0.504937899278     0.011499915097     2.543153558210
O                    -2.188004994109     0.406033249826     1.014746070431
Cl                   -0.780012796639     4.728449778846     6.610845228683
H                    -2.207793798156     5.472046171503     2.003262572815
H                     1.578005293903    -1.299985842872    -1.358334488485
H                    -2.767384659369     3.076001258432     1.616674431730
H                    -0.382716077349    -0.352142826961    -0.177186284028
H                    -1.331420519675     6.210904422542     4.219041046526
H                     2.707031601609    -3.519691721671    -1.616383230803
H                     1.718840770756    -0.908555767352     3.549745441750
H                     5.396162148909    -0.931825895974     0.522813981714
H                    -1.538264069507     2.156654128393     5.637390342698
H                     4.627903156010    -4.169204734941    -3.054157749236
H                    -3.049342622918     0.474232523923     5.445584061821
H                    -2.656265017654    -0.952124874478     4.373941587963
H                    -4.332764308911    -0.120190278866     2.652564142746
H                    -4.716072308013     1.308537489474     3.738519680088
H                     8.186026076267    -2.321860724097    -0.318548181078
H                     8.130239383910    -1.483396489172    -1.876817599238
H                     7.654828445839    -0.637426055433    -0.377559795776
H                    -0.298058079640     0.097871721996     3.531186572543
