41
1 1 C14H16N5O4S2
C                     8.117134638377     2.745715545814     2.267127200224
C                     4.598051634543     3.021192104553    -0.878226097233
C                     4.417469906110     1.632202337920    -0.800228567319
C                     4.072850814895     3.867100973814     0.109521346618
C                     3.714902628178     1.056194457552     0.269013669839
C                     5.620429636293     2.073355623980     4.766155650104
C                     7.014706370103     2.343395056216     3.061969791309
C                     3.387084204305     3.306573897573     1.186216811950
C                     3.231330237613     1.916587044656     1.255067069269
C                     5.060526174227     1.472973354446     3.662877422686
C                     2.769273329876     3.961031161691     2.403656640403
C                     1.976689997391     2.801252397734     3.049265077289
C                     9.045918728492     5.475397165022     4.241233410507
C                     7.052800239384     5.803893105062     5.767988410151
N                     9.002301677910     3.105688195202     1.602582828909
N                     6.826055652310     2.610716359126     4.373318592925
N                     5.945596400790     1.650366938354     2.619299153099
N                     2.570327501200     1.544296017653     2.481687407938
N                     8.161252205932     4.943382310353     5.303773554791
O                     3.829846802931    -0.631624077119     2.777292730040
O                     2.903834373709     0.608041998531     4.831898552383
O                     7.393993230958     3.096398076511     6.837364862525
O                     9.327797315460     2.712584056993     5.175316998716
S                     3.486914194195     0.578197250533     3.502944718191
S                     8.126216187163     3.370282632070     5.624085795726
H                     5.131208734097     3.445897980811    -1.723665385221
H                     4.804283180347     0.992964850685    -1.588412563896
H                     4.198830938043     4.943952715760     0.031842841769
H                     3.558554596567    -0.015020568122     0.335513501908
H                     5.269601968162     2.121636905998     5.787627298294
H                     3.545384762237     4.352056242016     3.074246983061
H                     2.113209049821     4.795442285482     2.144710170114
H                     2.002340391565     2.774987443606     4.137879052768
H                     0.932127907992     2.811965151147     2.732787524303
H                     9.848844369176     4.771873690329     4.032382474552
H                     9.477890991035     6.404923341507     4.617052006881
H                     8.473864812617     5.674954325671     3.330999897393
H                     6.604975759107     5.386499907511     6.667958404262
H                     6.299543155819     5.918802502289     4.981612257554
H                     7.478387396785     6.779554204923     6.008898653105
H                     5.792956731943     1.334612543068     1.657261064347
