28   
torsion grid (-165,)
C       -0.6060791555   -0.5903741728    1.2100203495
C        1.2150017105    0.9856082093    1.9765585910
C        1.7483259017   -1.4549134829    1.5986152441
C       -1.9407515085   -1.0814396532    4.9947957536
C       -1.1663654969   -3.4869067845    5.0359062457
C        0.2948304218   -1.6838130789    6.0344961430
C        0.6776991797   -0.4486259321    2.0362242102
C       -0.7297646877   -2.0204893793    4.9449034689
O        0.3881389749   -0.6015946387    3.4432737322
O       -0.1113090706   -1.9726322504    3.6401982500
H       -1.0193504165   -1.5963614576    1.3094048573
H       -1.3578390871    0.1283904253    1.5508797052
H       -0.4001979177   -0.4024529796    0.1509856602
H        2.1091546437    1.0900445518    2.5981411526
H        0.4612156034    1.6969413574    2.3272206563
H        1.4772484713    1.2390237029    0.9450584802
H        2.6387146456   -1.3581251059    2.2273449034
H        1.3771648965   -2.4786860686    1.6817693083
H        2.0345719020   -1.2731227603    0.5573940141
H       -1.6289706358   -0.0430170496    4.8638295434
H       -2.6492513194   -1.3335205552    4.1995385464
H       -2.4531007330   -1.1714166212    5.9584650751
H       -0.3020102801   -4.1533448015    4.9615298868
H       -1.8671691084   -3.7333681734    4.2326108836
H       -1.6616800669   -3.6658351981    5.9948815102
H        1.1644577421   -2.3430852412    5.9534426573
H        0.6358022982   -0.6503923935    5.9419471158
H       -0.1513133957   -1.8145013688    7.0259610568
28   
torsion grid (-150,)
C       -0.6680049479   -0.5370967292    1.3968407405
C        1.2794082135    0.9564790678    1.9997288735
C        1.6844682486   -1.4803679175    1.4679595641
C       -1.9135533058   -1.1236181695    4.7971708698
C       -1.0957767598   -3.5009193931    5.0547381643
C        0.1979161797   -1.6069788126    6.1151264812
C        0.7073843106   -0.4637006770    2.0692708625
C       -0.6847412840   -2.0292888475    4.9351052573
O        0.5884570281   -0.6685935693    3.4963854633
O        0.0858116293   -2.0326457056    3.7107617388
H       -1.0978160095   -1.5350240705    1.5080863338
H       -1.3528498959    0.1888736576    1.8454599791
H       -0.5800747957   -0.3155577150    0.3280286172
H        2.2435138194    1.0104329411    2.5137130524
H        0.5958978651    1.6733835077    2.4646960947
H        1.4258212601    1.2452630764    0.9546574986
H        2.6469406916   -1.4333251913    1.9862712592
H        1.2927946939   -2.4959090728    1.5594335440
H        1.8481687139   -1.2662543841    0.4065535546
H       -1.6109639950   -0.0850319066    4.6463394378
H       -2.5252520958   -1.4352250109    3.9450966542
H       -2.5277039556   -1.1769849909    5.7022350933
H       -0.2136241819   -4.1449176545    5.1152644047
H       -1.6932648087   -3.8084277850    4.1911529030
H       -1.6943805905   -3.6451919319    5.9590976523
H        1.0849077733   -2.2450912165    6.1723242351
H        0.5251136251   -0.5708316357    6.0035916880
H       -0.3578096923   -1.6958072649    7.0545429028
28   
torsion grid (-135,)
C       -0.7112830855   -0.5231450111    1.5533880957
C        1.2937856927    0.9389687381    2.0170652077
C        1.6184886945   -1.4834074804    1.3709059710
C       -1.8686453400   -1.1380898715    4.6411280934
C       -1.0678409218   -3.4969328363    5.0505752095
C        0.1050788555   -1.5531807942    6.1627566537
C        0.7177736342   -0.4790461276    2.1005438110
C       -0.6533874046   -2.0272856118    4.9168214554
O        0.7678880312   -0.7322557516    3.5279413210
O        0.2560063272   -2.0807259344    3.7879998595
H       -1.1440642232   -1.5174997917    1.6817177673
H       -1.3493986772    0.2071437436    2.0577455288
H       -0.7031219333   -0.2897853051    0.4835809652
H        2.3044767413    0.9705928170    2.4340096134
H        0.6669568895    1.6455455026    2.5695731898
H        1.3387853080    1.2591490706    0.9718241136
H        2.6307113965   -1.4543846260    1.7850563625
H        1.2301709253   -2.4987700007    1.4812618935
H        1.6701490422   -1.2462387314    0.3030114856
H       -1.5610750690   -0.1037190838    4.4738345836
H       -2.4224953121   -1.4874394331    3.7658597068
H       -2.5429070634   -1.1585695556    5.5036606934
H       -0.1930320296   -4.1311439907    5.2203542601
H       -1.5765158644   -3.8406148882    4.1447260201
H       -1.7510240137   -3.6131543788    5.8972291395
H        0.9808471498   -2.1855872829    6.3361050014
H        0.4442249473   -0.5221036107    6.0370983130
H       -0.5411593994   -1.6003273415    7.0456325387
28   
torsion grid (-120,)
C       -0.7145545137   -0.5684587191    1.6559783448
C        1.2785729684    0.9254387433    2.0399612636
C        1.6006085603   -1.4738087386    1.3028334197
C       -1.7934209222   -1.1157723621    4.5609306197
C       -1.0589037766   -3.4813970316    5.0257247988
C        0.0526839792   -1.5403207951    6.2089612628
C        0.7378870634   -0.5063494079    2.1268126179
C       -0.6117565368   -2.0197149200    4.9097662088
O        0.9479212756   -0.8028915682    3.5379309718
O        0.4191296419   -2.1197580992    3.8847922573
H       -1.1286899482   -1.5687473697    1.7952826223
H       -1.3454174722    0.1582940008    2.1705563829
H       -0.7432109691   -0.3403284335    0.5855032082
H        2.3126144973    0.9699736893    2.3932682239
H        0.6738847086    1.6057055588    2.6474324085
H        1.2516570397    1.2690321469    1.0014546280
H        2.6431584299   -1.4219296967    1.6298820641
H        1.2497230197   -2.5006630494    1.4365764884
H        1.5545415914   -1.2280646553    0.2365647313
H       -1.4645342996   -0.0882390702    4.3950986340
H       -2.3352359616   -1.4677494705    3.6814439383
H       -2.4898386397   -1.1121760773    5.4057804188
H       -0.2084093293   -4.1282104751    5.2588398048
H       -1.5102309553   -3.8241721971    4.0896473587
H       -1.7991191457   -3.5798229430    5.8255188277
H        0.8913177438   -2.1934067814    6.4672916335
H        0.4351036286   -0.5235444661    6.0850306531
H       -0.6625726144   -1.5427534600    7.0383244821
28   
torsion grid (-105,)
C        0.1579191800   -2.4417198957    1.5378752687
C       -0.4307436515    0.0218940453    1.6983649062
C        1.9184680209   -0.6787000170    1.1611637722
C       -0.2693352192   -0.0086943206    5.4228956247
C       -1.8953538705   -1.7631982712    4.5746961377
C       -0.2297533098   -2.3480977372    6.3584778312
C        0.6435537449   -1.0480602255    1.9338955310
C       -0.4840821039   -1.4890762378    5.1109417490
O        1.1170112687   -1.0037367808    3.3189949340
O        0.5260329329   -2.0083680575    4.1864809819
H        0.9136535399   -3.1958656115    1.7718069015
H       -0.7635871346   -2.7106270225    2.0566703468
H       -0.0347264124   -2.4599293072    0.4601556399
H       -0.0786490531    0.9974562572    2.0471793271
H       -1.3638788968   -0.2128651579    2.2122077917
H       -0.6541520099    0.1029687738    0.6289344811
H        2.3223382648    0.2728193249    1.5210161748
H        2.6820434374   -1.4491017161    1.2973812063
H        1.7012811634   -0.5775092597    0.0931079897
H        0.7595776260    0.1740419322    5.7431155851
H       -0.4726991616    0.6203929324    4.5548367781
H       -0.9465599489    0.2880027767    6.2305225574
H       -2.0004937099   -2.8178377294    4.3025837395
H       -2.1272828745   -1.1554175489    3.6990828300
H       -2.6418592214   -1.5337030500    5.3429590443
H       -0.2817317940   -3.4122804119    6.1078632165
H        0.7624754684   -2.1398775097    6.7674373221
H       -0.9821271342   -2.1388713191    7.1254922793
28   
torsion grid (-90,)
C        0.0858596083   -2.4099073919    1.5691780978
C       -0.3671824331    0.0856014769    1.8183330677
C        1.8969656927   -0.7220391150    1.1299543257
C       -0.3182401421   -0.0017777559    5.3539399981
C       -1.8248195438   -1.8698682582    4.4964284673
C       -0.2371418619   -2.2954721855    6.3807457452
C        0.6531448703   -1.0494748774    1.9739611533
C       -0.4561872713   -1.4996886760    5.0825163654
O        1.2394925727   -1.0806279953    3.3148786659
O        0.6467520321   -2.0094400397    4.2661152881
H        0.8262976087   -3.1961393931    1.7375990175
H       -0.8126606365   -2.6638342333    2.1315259531
H       -0.1705337925   -2.3918912075    0.5048109667
H        0.0640567137    1.0319799217    2.1579515505
H       -1.2887050735   -0.0921343096    2.3723035473
H       -0.6363932780    0.1959386654    0.7622364800
H        2.3712394788    0.1969975873    1.4879267382
H        2.6260938773   -1.5335613556    1.1967646628
H        1.6177513378   -0.5792423007    0.0813588721
H        0.6836744738    0.2265883401    5.7264869654
H       -0.4917065931    0.5953499143    4.4587285955
H       -1.0504578945    0.2967769332    6.1113446342
H       -1.8662750606   -2.9410652834    4.2778917700
H       -2.0586872929   -1.3222328757    3.5836974801
H       -2.6106241458   -1.6423552094    5.2249463344
H       -0.2257234307   -3.3700292856    6.1736104574
H        0.7180977790   -2.0232487025    6.8368943228
H       -1.0430837510   -2.0907889549    7.0924103250
28   
torsion grid (-75,)
C        0.0619345684   -2.4233299132    1.5799896651
C       -0.3090656761    0.0867980629    1.8891536262
C        1.8936345169   -0.7758551418    1.1020983224
C       -0.3217330452    0.0204249454    5.3357157822
C       -1.7494276546   -1.9135016575    4.4662922258
C       -0.2249945860   -2.2449208175    6.4110085128
C        0.6756481254   -1.0845703774    1.9947258383
C       -0.4114545867   -1.4858428000    5.0826177456
O        1.3460488029   -1.1749262957    3.2885905224
O        0.7551225145   -1.9830133775    4.3590154787
H        0.7990994182   -3.2230827918    1.6905292083
H       -0.8107835473   -2.6823301440    2.1777141758
H       -0.2474803419   -2.3756145197    0.5306764693
H        0.1625716016    1.0104019601    2.2367516250
H       -1.2290630602   -0.0660016467    2.4513440893
H       -0.5904872878    0.2259951130    0.8397555419
H        2.4018912595    0.1296289540    1.4469968673
H        2.6064132246   -1.6036232034    1.1311680866
H        1.5718416431   -0.6189499317    0.0679954543
H        0.6550653598    0.2713532846    5.7577759812
H       -0.4568819190    0.6026779153    4.4254069289
H       -1.0976901701    0.3194983628    6.0481196143
H       -1.7471523480   -2.9885901667    4.2650541369
H       -1.9912466546   -1.3882202073    3.5435692537
H       -2.5556159881   -1.7052441124    5.1779766417
H       -0.1900478293   -3.3241171948    6.2341021333
H        0.7082398832   -1.9442397138    6.8934628511
H       -1.0596506286   -2.0322145068    7.0860238098
28   
torsion grid (-60,)
C        0.0048285847   -2.3975002555    1.5357187962
C       -0.2890756947    0.1129588471    1.9343768367
C        1.8691900645   -0.7863439791    1.0771253774
C       -0.3969103132    0.0369165564    5.3400397448
C       -1.7260531534   -1.9532023979    4.4337812470
C       -0.2485968580   -2.2194722941    6.4208054292
C        0.6608758604   -1.0895240177    1.9888919634
C       -0.4215152220   -1.4726517317    5.0807966829
O        1.3773929789   -1.2498334693    3.2457020980
O        0.7942250129   -1.9297641962    4.4238021558
H        0.7310106556   -3.2133533160    1.5871582197
H       -0.8522455107   -2.6683727360    2.1497665145
H       -0.3391749133   -2.3014185963    0.5004765967
H        0.2094554533    1.0075881559    2.3175601424
H       -1.2154142372   -0.0352391357    2.4869480075
H       -0.5640854508    0.3010323822    0.8909768192
H        2.3964607147    0.1075454444    1.4225585888
H        2.5696205673   -1.6248451331    1.0810531478
H        1.5263553326   -0.6141635876    0.0523922269
H        0.5503357917    0.3167854013    5.8090829369
H       -0.5067819934    0.6185364208    4.4265003031
H       -1.2147292767    0.3113780287    6.0146814762
H       -1.6715466496   -3.0244264234    4.2210775612
H       -1.9792879049   -1.4265371205    3.5151248584
H       -2.5512660187   -1.7903178574    5.1353304648
H       -0.1941681487   -3.2992009474    6.2546667887
H        0.6688950364   -1.8991722471    6.9201233531
H       -1.1008138081   -2.0103026536    7.0744389459
28   
torsion grid (-45,)
C        0.0916604838   -0.7784267913    0.4207470615
C        1.1430119723    0.4071185592    2.3612452836
C        1.2584798959   -2.1396782748    2.1494232248
C       -1.7835718654   -1.1659989478    6.0498122246
C       -0.7061967028   -3.0322164408    4.7719975700
C        0.6189087594   -0.9456717577    5.4314247810
C        0.4224152798   -0.8746505153    1.9267651937
C       -0.7297349434   -1.5125571229    4.9746021209
O       -0.9413902185   -0.9279754637    2.4252623545
O       -1.3538410115   -0.8240976884    3.8575417464
H       -0.4545186459   -1.6656970728    0.0892513856
H       -0.5218076813    0.1029289714    0.2195449292
H        1.0198481615   -0.7023224356   -0.1537603882
H        1.3742321869    0.4150940862    3.4247018527
H        0.5147894582    1.2752504954    2.1433722733
H        2.0850630159    0.5127235406    1.8124797312
H        1.6249651619   -2.2458458131    3.1694209435
H        0.6786985517   -3.0288465258    1.8874821917
H        2.1363624379   -2.1039235079    1.4955068626
H       -1.8474955919   -0.0837047589    6.1912421748
H       -2.7677789065   -1.5368150140    5.7541005097
H       -1.5020882766   -1.6284718664    7.0007428011
H       -0.0040358254   -3.3387132209    3.9990256390
H       -1.7018550048   -3.3813898008    4.4847207268
H       -0.4179151783   -3.5308401767    5.7036763376
H        1.4497036149   -1.2223611250    4.7839655530
H        0.5696794902    0.1445629166    5.4973680257
H        0.8470571059   -1.3346500025    6.4295257405
28   
torsion grid (-30,)
C        0.1118204820   -0.7537015730    0.4207699711
C        1.2359453846    0.3805530271    2.3500885563
C        1.2312902765   -2.1662451263    2.1435636379
C       -1.7831642928   -1.1969779971    6.0560902137
C       -0.6357537062   -3.0580018625    4.8343330901
C        0.6119329552   -0.9082468059    5.4263200384
C        0.4503007259   -0.8670769137    1.9246910805
C       -0.7162117984   -1.5334377108    4.9895334623
O       -0.9114916110   -0.8552862795    2.4267303575
O       -1.3720399246   -0.9012087755    3.8595129992
H       -0.4461442860   -1.6314600379    0.0845449143
H       -0.4919020617    0.1368375545    0.2305203931
H        1.0388786887   -0.6812985625   -0.1561574804
H        1.4796429189    0.3797029648    3.4107975107
H        0.6475755687    1.2772201685    2.1360622363
H        2.1764262836    0.4412967803    1.7915846787
H        1.6227062398   -2.2675449310    3.1553351570
H        0.6025304022   -3.0311989406    1.9166444005
H        2.0905191577   -2.1833968432    1.4647059828
H       -1.8624844861   -0.1154586933    6.1934142646
H       -2.7601030404   -1.5825300080    5.7549606098
H       -1.5016614757   -1.6550608752    7.0092122041
H        0.0779875590   -3.3634803183    4.0716052909
H       -1.6180165638   -3.4527147383    4.5598221065
H       -0.3296520826   -3.5168509723    5.7808436087
H        1.4524628688   -1.2010777523    4.7979063104
H        0.5353671390    0.1821963543    5.4334167046
H        0.8428576749   -1.2391440024    6.4444553131
28   
torsion grid (-15,)
C        0.1071555681   -0.7076498775    0.4185552933
C        1.2989403871    0.3645027628    2.3428560380
C        1.1840184160   -2.1758344788    2.1260256403
C       -1.8119738804   -1.2326497028    6.0478519025
C       -0.5887295928   -3.0768670194    4.8751371459
C        0.5764099352   -0.8720923045    5.4183079604
C        0.4555869924   -0.8460167272    1.9181341232
C       -0.7271973168   -1.5525127734    4.9941741265
O       -0.9000314774   -0.7781817741    2.4330518780
O       -1.4019111414   -0.9715619872    3.8475703531
H       -0.4687155299   -1.5712348004    0.0765309201
H       -0.4826210584    0.1956267577    0.2444013547
H        1.0309748267   -0.6416622547   -0.1645379808
H        1.5610122596    0.3430113712    3.3990214147
H        0.7444358339    1.2866193089    2.1470989088
H        2.2318962403    0.3930457314    1.7691179067
H        1.5983006155   -2.2805713114    3.1287621007
H        0.5120057380   -3.0146101119    1.9269391755
H        2.0227895591   -2.2369856694    1.4245950227
H       -1.9138506170   -0.1524405754    6.1788345637
H       -2.7779944649   -1.6387742206    5.7381073699
H       -1.5324575775   -1.6830216191    7.0053638256
H        0.1460248478   -3.3740898507    4.1292049950
H       -1.5524272233   -3.5137443921    4.5985146658
H       -0.2784867437   -3.5026692582    5.8357821552
H        1.4294197351   -1.1724902038    4.8098504648
H        0.4712931370    0.2150587136    5.3754659629
H        0.8054482752   -1.1520604893    6.4519616708
28   
torsion grid (0,)
C        0.1077737288   -0.6831949444    0.4215179221
C        1.3692847999    0.3335211192    2.3311134978
C        1.1453002204   -2.1971299943    2.1170585315
C       -1.8230942984   -1.2543241835    6.0420334563
C       -0.5308086070   -3.0863206605    4.9259240241
C        0.5571955546   -0.8320764947    5.4102827838
C        0.4697575097   -0.8397286583    1.9158164109
C       -0.7221378866   -1.5646075018    5.0027581426
O       -0.8745576878   -0.7154784398    2.4531954117
O       -1.4077061029   -1.0397304590    3.8340366850
H       -0.4928925796   -1.5306736224    0.0821273314
H       -0.4631495920    0.2347233524    0.2603603659
H        1.0254003664   -0.6334627551   -0.1730563901
H        1.6523507061    0.2954204684    3.3813780045
H        0.8494159413    1.2787037880    2.1507120287
H        2.2909111250    0.3276742245    1.7385030589
H        1.5863453200   -2.3031189175    3.1086071184
H        0.4315309269   -3.0084274658    1.9530411618
H        1.9580318789   -2.3041471979    1.3910644801
H       -1.9489283608   -0.1747931670    6.1559800995
H       -2.7774752111   -1.6847288920    5.7283327609
H       -1.5450779831   -1.6866155666    7.0083995229
H        0.2238370502   -3.3792565144    4.1983501732
H       -1.4755768207   -3.5633900827    4.6502511189
H       -0.2194830753   -3.4750245351    5.9019363921
H        1.4230942755   -1.1433585469    4.8252714746
H        0.4275786532    0.2487577682    5.3124973787
H        0.7803837221   -1.0566883502    6.4585151218
28   
torsion grid (15,)
C        0.1177219881   -0.4151549499    0.4638997584
C        1.5520581405   -0.4372282155    2.5067379464
C        0.5057748329   -2.5952712962    1.6340285140
C       -1.9368026269   -1.4883036616    5.9660483763
C        0.0943469571   -2.5723535453    5.0015602986
C        0.0910659604   -0.0792906406    5.5475277613
C        0.3352128852   -1.0835647873    1.8405855394
C       -0.7207564534   -1.2774857699    5.0353907508
O       -0.9548076518   -0.7503987550    2.4170179516
O       -1.4613020854   -0.9626162818    3.8271364403
H       -0.7899149926   -0.7985623547   -0.0086120161
H        0.0227663956    0.6680760261    0.5733597143
H        0.9710875899   -0.6343500425   -0.1853319285
H        1.8644637199   -0.9552099425    3.4134858998
H        1.3459234660    0.6093660417    2.7453180228
H        2.3980839478   -0.4684437179    1.8120792691
H        0.6427631024   -3.1335825511    2.5700299792
H       -0.3778145733   -3.0005134893    1.1328858374
H        1.3812866419   -2.7926761548    1.0056168061
H       -2.5846981674   -0.6084334042    5.9544988309
H       -2.5202978845   -2.3550228847    5.6455506616
H       -1.5866450893   -1.6531529520    6.9897649189
H        1.0497883436   -2.4590437063    4.4893244347
H       -0.4769229976   -3.3708440926    4.5211079369
H        0.3158720897   -2.8818279657    6.0284181631
H        0.9552049404    0.1394650553    4.9229816252
H       -0.5439872271    0.8106442908    5.5761373032
H        0.4552780863   -0.2774995067    6.5616546922
28   
torsion grid (30,)
C        0.1303640670   -0.3900787863    0.4781929467
C        1.5788009798   -0.4756946322    2.5056989670
C        0.4285635406   -2.5876841620    1.6422658434
C       -1.9343134566   -1.5183447414    5.9563785194
C        0.1322135097   -2.5543914517    5.0224683388
C        0.0396155164   -0.0458209884    5.4995675346
C        0.3283097524   -1.0708485728    1.8516700146
C       -0.7263811859   -1.2861226161    5.0204074472
O       -0.9400178971   -0.6816259693    2.4404102525
O       -1.4758441230   -1.0312234992    3.8038172134
H       -0.7828608833   -0.7518998266   -0.0002024957
H        0.0575373017    0.6945002533    0.5930624763
H        0.9824923002   -0.6212268890   -0.1683163102
H        1.8688743937   -0.9865514906    3.4233178424
H        1.4273704254    0.5852609414    2.7212033967
H        2.4201405110   -0.5641266199    1.8101777718
H        0.5383580338   -3.1323400279    2.5780949281
H       -0.4727196794   -2.9505709551    1.1402927162
H        1.2946564535   -2.8246055343    1.0146807650
H       -2.6005168769   -0.6524569226    5.9434157284
H       -2.5008871298   -2.3988200433    5.6424223231
H       -1.5772461499   -1.6732454426    6.9791371667
H        1.0745697834   -2.4367847655    4.4883555149
H       -0.4220908235   -3.3900453446    4.5872310436
H        0.3806377726   -2.8139143196    6.0570481025
H        0.8888986854    0.1928700644    4.8622160678
H       -0.6302886353    0.8184875693    5.5127948963
H        0.4189362415   -0.2065333507    6.5146534095
28   
torsion grid (45,)
C        0.1364099698   -0.3522919795    0.4975161729
C        1.6009704998   -0.5085918276    2.5059092196
C        0.3477073021   -2.5673925399    1.6486256467
C       -1.9402804900   -1.5557480268    5.9373609035
C        0.1645395600   -2.5392335205    5.0399378117
C       -0.0217289636   -0.0207301598    5.4480129851
C        0.3187148341   -1.0495930239    1.8640286450
C       -0.7377143109   -1.3009584189    5.0015531174
O       -0.9233251202   -0.6103049128    2.4768506459
O       -1.4838996316   -1.1061061968    3.7701150696
H       -0.7800782978   -0.6959383838    0.0121566631
H        0.0778776427    0.7321975223    0.6236296095
H        0.9880586341   -0.5853001748   -0.1488393325
H        1.8700668795   -1.0123525282    3.4331647790
H        1.5051889400    0.5630415705    2.7003551578
H        2.4339528671   -0.6525736935    1.8095096399
H        0.4430331077   -3.1190063395    2.5819556297
H       -0.5750516639   -2.8877207907    1.1570039716
H        1.1949441111   -2.8398959293    1.0101272591
H       -2.6218892680   -0.7020050471    5.9251243557
H       -2.4915264949   -2.4457588616    5.6219942944
H       -1.5823463406   -1.7083137388    6.9600926198
H        1.0940807385   -2.4183421774    4.4855688114
H       -0.3692833780   -3.4100891975    4.6500437154
H        0.4365394527   -2.7474519941    6.0802385445
H        0.8202008283    0.2313486342    4.8060561795
H       -0.7231757377    0.8180550038    5.4339697742
H        0.3584533783   -0.1394798990    6.4683600730
28   
torsion grid (60,)
C        0.2054407761   -0.3094401453    0.5463926001
C        1.6921949093   -0.5502905053    2.5294989361
C        0.3466198232   -2.5475256539    1.6663929880
C       -1.8915366790   -1.6359886234    5.9254619740
C        0.2595554037   -2.5574495005    5.0744824718
C       -0.0238081819   -0.0395799445    5.4287654281
C        0.3807701870   -1.0337748645    1.8983651056
C       -0.6868667385   -1.3529096893    5.0023537107
O       -0.8287863164   -0.5582099880    2.5530797199
O       -1.4090247490   -1.2125951975    3.7468059399
H       -0.7159129749   -0.6336281432    0.0567510027
H        0.1571476715    0.7732084684    0.6942270792
H        1.0534707918   -0.5343161648   -0.1074693725
H        1.9464547855   -1.0607813759    3.4569208652
H        1.6470059410    0.5253315371    2.7214654384
H        2.5123850058   -0.7327441587    1.8268878227
H        0.4531676732   -3.1124042892    2.5908131997
H       -0.6020389054   -2.8305685547    1.2022554963
H        1.1633894994   -2.8394305866    0.9977953439
H       -2.5890177737   -0.7951323477    5.9108676342
H       -2.4236331802   -2.5337098029    5.5979353596
H       -1.5440096939   -1.7917287815    6.9512430734
H        1.1827666302   -2.4234345133    4.5131603021
H       -0.2442121644   -3.4579493575    4.7123567408
H        0.5406565113   -2.7257468948    6.1196230607
H        0.8275686953    0.2192819798    4.8017610371
H       -0.7484849045    0.7772230747    5.3719421826
H        0.3309353995   -0.1204570565    6.4616786379
28   
torsion grid (75,)
C        0.1248283754   -0.3010180806    0.5289420193
C        1.6636845464   -0.5878582077    2.4694279101
C        0.2132986445   -2.5346301641    1.6693285627
C       -1.9590102437   -1.5974115007    5.8964480830
C        0.2297898447   -2.5007159748    5.1160837239
C       -0.1182642995    0.0201947507    5.3556190143
C        0.3169861395   -1.0223777360    1.8773957595
C       -0.7463863858   -1.3247973207    4.9849485756
O       -0.8391776971   -0.4947631947    2.5961497148
O       -1.4271980876   -1.2664399326    3.6946799345
H       -0.8150254058   -0.6080014080    0.0636191474
H        0.1000318431    0.7831571305    0.6743294998
H        0.9517296092   -0.5402349593   -0.1467520448
H        1.9095712408   -1.0883427478    3.4047760734
H        1.6715463410    0.4925512982    2.6395838979
H        2.4618702616   -0.8230353192    1.7571131012
H        0.3516633765   -3.0911411486    2.5951336999
H       -0.7689431644   -2.7899874453    1.2628341757
H        0.9808350052   -2.8605573458    0.9595855387
H       -2.6653470589   -0.7649716430    5.8493142234
H       -2.4775419569   -2.5082680430    5.5823571505
H       -1.6295688207   -1.7269244526    6.9319413815
H        1.1462640711   -2.3714699538    4.5423388476
H       -0.2520243732   -3.4299683162    4.7988431864
H        0.5188499475   -2.6121670447    6.1667151160
H        0.7511926886    0.2547246335    4.7432213393
H       -0.8498855348    0.8225918637    5.2285997274
H        0.2000338192   -0.0000521196    6.4031642859
28   
torsion grid (90,)
C        0.1380550874   -0.2493292642    0.5580227929
C        1.7386228069   -0.6331096737    2.4404182018
C        0.2099342511   -2.5129071695    1.6502513547
C       -1.9626476809   -1.6523545826    5.8702286018
C        0.2889426248   -2.4981273980    5.1864743131
C       -0.1421137814    0.0071817850    5.3667048861
C        0.3620698267   -1.0089389064    1.8769104508
C       -0.7236755951   -1.3597469659    5.0065263978
O       -0.7296610083   -0.4667709133    2.6874719135
O       -1.3214256402   -1.3627387987    3.6702948488
H       -0.8232851185   -0.5267678942    0.1181220721
H        0.1370475144    0.8308375738    0.7339408850
H        0.9360780446   -0.4811967742   -0.1542277671
H        1.9761024879   -1.1560212440    3.3666176010
H        1.7904127507    0.4435835058    2.6274734468
H        2.5162430538   -0.8879566920    1.7121675099
H        0.3864431981   -3.0852592156    2.5609155517
H       -0.7969512891   -2.7437893114    1.2929696223
H        0.9331648756   -2.8392260204    0.8956700836
H       -2.6859250839   -0.8372343084    5.7859163722
H       -2.4472279989   -2.5775547828    5.5432805744
H       -1.6754540513   -1.7667936226    6.9201462571
H        1.2070055962   -2.3440670826    4.6198145650
H       -0.1527084732   -3.4504048467    4.8781706723
H        0.5664205732   -2.5799795685    6.2430233433
H        0.7534467762    0.2373120120    4.7895847972
H       -0.8777387671    0.7942198316    5.1817653380
H        0.1234142830    0.0179868128    6.4289276100
28   
torsion grid (105,)
C        0.1313013746   -0.1960573501    0.5787846622
C        1.8076821634   -0.7425958350    2.3646311828
C        0.1604377711   -2.5075785303    1.5816295299
C       -1.9847668360   -1.6964645115    5.8404364295
C        0.3540732792   -2.4314374123    5.3039261639
C       -0.2136997371    0.0405042777    5.3977928573
C        0.3896562353   -1.0205807886    1.8485729656
C       -0.7137505580   -1.3600414532    5.0465312011
O       -0.6082031383   -0.4664287770    2.7660777153
O       -1.1995860415   -1.4406047338    3.6673656701
H       -0.8661615904   -0.4077544207    0.1846109085
H        0.1941366401    0.8744853929    0.7978376313
H        0.8751417858   -0.4337783986   -0.1882507611
H        2.0424404661   -1.3266823171    3.2554839419
H        1.9235321810    0.3185767515    2.6051605206
H        2.5456085111   -1.0002871223    1.5970201581
H        0.3663770855   -3.1128682307    2.4658509882
H       -0.8726536243   -2.6910889326    1.2756212353
H        0.8281996140   -2.8331163027    0.7772401173
H       -2.7434724292   -0.9242553028    5.6881879137
H       -2.3991289068   -2.6548032676    5.5119774788
H       -1.7591370602   -1.7681937762    6.9091267852
H        1.2845512723   -2.2192335055    4.7756579445
H       -0.0087093965   -3.4137844102    4.9865207741
H        0.5860780365   -2.4833597745    6.3733392971
H        0.7053563188    0.2867503753    4.8636282339
H       -0.9654589955    0.7936883254    5.1484606111
H       -0.0115538281    0.0883606404    6.4728602580
28   
torsion grid (120,)
C       -0.1810147818   -0.9150971467    0.7483121290
C        0.9341360579    1.0289981908    1.9232101889
C        1.6665248173   -1.3357553461    2.3957325583
C       -1.7233101868   -0.9620619638    5.6564395805
C       -1.4048239898   -3.3643303064    4.9276556557
C        0.5904234660   -1.8712950742    5.3039038028
C        0.4854760911   -0.4317466561    2.0449886221
C       -0.8626330254   -1.9334768491    4.8349799134
O       -0.5441048389   -0.3268200594    3.0707861322
O       -1.0739739040   -1.6418211015    3.4230381444
H       -0.5644335118   -1.9309850918    0.8763727875
H       -1.0192134497   -0.2620054020    0.4885879179
H        0.5332783035   -0.9164787695   -0.0818835026
H        1.3869329556    1.3746560642    2.8575161505
H        0.0841020644    1.6759237742    1.6887308557
H        1.6735353360    1.1236843032    1.1222107025
H        2.2097601951   -0.9812027821    3.2733065415
H        1.3366717353   -2.3623066991    2.5656753452
H        2.3619539495   -1.3432064686    1.5500940960
H       -1.3714258523    0.0639040019    5.5185655590
H       -2.7662963737   -1.0139509191    5.3307863656
H       -1.6762827398   -1.2039883296    6.7235392230
H       -0.8016083673   -4.0474773199    4.3219549978
H       -2.4393263742   -3.4089819647    4.5757148250
H       -1.3770823308   -3.7041836796    5.9673706842
H        1.2198715874   -2.6006232604    4.7912402219
H        1.0055199108   -0.8719864671    5.1604860226
H        0.6200667684   -2.0955675412    6.3751671010
28   
torsion grid (135,)
C       -0.2333375389   -0.9020272003    0.7945355950
C        0.9430415813    1.0444409652    1.8982803735
C        1.7416893358   -1.3137935826    2.3153762046
C       -1.7412414441   -0.9526816752    5.5883587223
C       -1.4200448331   -3.3777538023    4.9506157982
C        0.5872237318   -1.9162553454    5.4066545609
C        0.5271046383   -0.4242454188    2.0378588997
C       -0.8425193308   -1.9607088286    4.8613232493
O       -0.3809142992   -0.3656824504    3.1675320281
O       -0.8940090130   -1.7126221045    3.4330752283
H       -0.5734500364   -1.9322753331    0.9243154727
H       -1.1086249106   -0.2693010759    0.6199293920
H        0.4119132988   -0.8587708705   -0.0892613005
H        1.4531098954    1.3908565525    2.8023030530
H        0.0687499744    1.6790053467    1.7271619647
H        1.6254085269    1.1568102363    1.0504489763
H        2.2969595267   -0.9618727638    3.1887128540
H        1.4331561369   -2.3471994267    2.4868091054
H        2.4149589203   -1.2972248783    1.4519849893
H       -1.3518772347    0.0618263886    5.4739076878
H       -2.7539670678   -0.9820224459    5.1754622239
H       -1.7919614278   -1.1859454172    6.6571580708
H       -0.7946886363   -4.0870349649    4.3999068251
H       -2.4312749166   -3.4097286860    4.5350070844
H       -1.4641427423   -3.6941083098    5.9970595949
H        1.2239161677   -2.6491108328    4.9042247284
H        1.0209907992   -0.9228724624    5.2741940958
H        0.5800427915   -2.1457004287    6.4773151173
28   
torsion grid (150,)
C       -0.3260707162   -0.8480076461    0.8420848488
C        0.9709461446    1.0483687776    1.8940298293
C        1.7864018612   -1.3288723933    2.1593420242
C       -1.8073127074   -0.9559482483    5.4913913002
C       -1.4057035244   -3.3951845462    4.9680158884
C        0.5441414014   -1.9016979631    5.5631944544
C        0.5584208533   -0.4223586987    2.0195301050
C       -0.8321176218   -1.9759299414    4.8926324673
O       -0.2106941283   -0.4136679337    3.2447417851
O       -0.7146277138   -1.7763706642    3.4646532330
H       -0.6541251305   -1.8834378815    0.9576864151
H       -1.2125159246   -0.2092457550    0.7836948369
H        0.2286023121   -0.7630447676   -0.0983119752
H        1.5695205929    1.3584471369    2.7559427125
H        0.0894476512    1.6931055878    1.8318639550
H        1.5689229100    1.1886029196    0.9886218444
H        2.3993343453   -1.0149384151    3.0096734278
H        1.4828606376   -2.3665981474    2.3141349718
H        2.3996490893   -1.2793337040    1.2534491697
H       -1.4144888442    0.0587823634    5.3959436695
H       -2.7703870262   -1.0036270845    4.9742591294
H       -1.9701592276   -1.1661334482    6.5537141126
H       -0.7237037441   -4.1145188153    4.5045849798
H       -2.3706181082   -3.4498318510    4.4556262473
H       -1.5509223828   -3.6801130164    6.0143104208
H        1.2276672667   -2.6299651303    5.1162900610
H        0.9749105408   -0.9046329966    5.4479889976
H        0.4572210071   -2.1194416291    6.6328674031
28   
torsion grid (165,)
C       -0.4228014999   -0.7707804713    0.9225402030
C        1.0415178735    1.0343557784    1.9128342638
C        1.8133325403   -1.3717898586    1.9618307103
C       -1.8713478120   -0.9817979024    5.3609106210
C       -1.3413223754   -3.4243007647    4.9912040288
C        0.4824908238   -1.8476854606    5.7499028588
C        0.6034293277   -0.4312419281    2.0097020887
C       -0.8024127140   -1.9909240730    4.9257101150
O       -0.0135597420   -0.4736567995    3.3152912486
O       -0.5143195224   -1.8433971457    3.5177770080
H       -0.7646919295   -1.8035233176    1.0191787596
H       -1.2916733209   -0.1103540851    1.0022803175
H        0.0222862430   -0.6440735271   -0.0699161273
H        1.7433644390    1.2830333408    2.7145352056
H        0.1779573842    1.7020029592    1.9855732542
H        1.5361008993    1.2091889768    0.9527272081
H        2.5229971520   -1.1176402185    2.7553885276
H        1.5005661564   -2.4093964306    2.0968581594
H        2.3247025821   -1.2858245847    0.9972755708
H       -1.4990439732    0.0412252438    5.2737370355
H       -2.7625306530   -1.0797328807    4.7334860691
H       -2.1566867887   -1.1595596020    6.4030765014
H       -0.5888464327   -4.1377609381    4.6420505058
H       -2.2364405436   -3.5298964140    4.3712092622
H       -1.6024576623   -3.6737415866    6.0239538983
H        1.2330456409   -2.5685034386    5.4107290534
H        0.8967730770   -0.8425221694    5.6464642983
H        0.2776367691   -2.0316091587    6.8098381739
28   
torsion grid (180,)
C       -0.5215118266   -0.6813186588    1.0447008687
C        1.1275963558    1.0104601855    1.9406791904
C        1.7971476219   -1.4197858314    1.7668169243
C       -1.9215816834   -1.0236469513    5.1923943060
C       -1.2566342639   -3.4549749207    5.0164980759
C        0.3960299377   -1.7668850325    5.9129778600
C        0.6424372264   -0.4418152183    2.0136809842
C       -0.7686559739   -2.0036005498    4.9443721828
O        0.1867543424   -0.5367112487    3.3806053563
O       -0.3129734257   -1.9087056622    3.5774477160
H       -0.8952619493   -1.7037064249    1.1322262245
H       -1.3436329852    0.0072011735    1.2632598778
H       -0.1949578670   -0.5180912159    0.0122786055
H        1.9318778152    1.1868200567    2.6611047152
H        0.3087713126    1.7036644215    2.1550266121
H        1.5080189275    1.2224251686    0.9370432154
H        2.5992834053   -1.2492240515    2.4915536307
H        1.4580029555   -2.4533412022    1.8641646587
H        2.2025530186   -1.2806002988    0.7591286068
H       -1.5808083257    0.0092800943    5.0946096368
H       -2.7244469299   -1.1928353538    4.4681751070
H       -2.3263343887   -1.1618850228    6.2004825539
H       -0.4393588214   -4.1495683932    4.8006622425
H       -2.0619833602   -3.6291099679    4.2967473315
H       -1.6364336691   -3.6671382893    6.0203281219
H        1.2172010562   -2.4562396722    5.6933768632
H        0.7709748190   -0.7447711223    5.8267693758
H        0.0696160618   -1.9313144404    6.9452466514
