13   
torsion grid (-165,)
C        2.2128878422    0.7257631523   -0.2638791859
C        2.6934600722    1.9060254259    0.2101205593
C        0.8004225252    0.8500380104   -0.0829783028
C       -0.2385117035   -0.1662467482   -0.4327488700
C       -1.6828102324    0.1373738083   -0.1017489777
N        0.4746384228    2.0133368663    0.4536480676
O        0.1126789157   -1.2182736993   -0.9483846944
O        1.6729612911    2.6884379849    0.6425727141
H        2.7479537494   -0.1151251030   -0.6795615263
H        3.6832220410    2.3317892254    0.3077978920
H       -1.9516021581   -0.4342115600    0.7941759593
H       -2.3186466965   -0.2108199499   -0.9189136643
H       -1.8518188083    1.1948042992    0.1041715814
13   
torsion grid (-150,)
C        2.2033889241    0.7828023334    0.1617090026
C        2.6721547139    1.8536815919   -0.5329468371
C        0.7965659315    0.8203863473   -0.0878367086
C       -0.2325028224   -0.1299950449    0.4360472236
C       -1.6830063187    0.1484164353    0.1179304677
N        0.4629760763    1.8321567689   -0.8697055769
O        0.1285686174   -1.0727032427    1.1263396379
O        1.6505868708    2.4925864465   -1.1560376636
H        2.7429206677    0.0656609535    0.7623893253
H        3.6540476676    2.2816145758   -0.6852242957
H       -2.0727289595    0.8380869957    0.8765944893
H       -2.2516833526   -0.7813178432    0.1718983242
H       -1.8039576228    0.6350281938   -0.8516998200
13   
torsion grid (-135,)
C        2.2095271221    0.7714795611    0.1376214612
C        2.6658730840    1.8724827533   -0.5173457953
C        0.7982807278    0.8208968502   -0.0825103012
C       -0.2239208754   -0.1516864055    0.4147178901
C       -1.6743121838    0.1394520349    0.1124827495
N        0.4502136300    1.8678465112   -0.8091906763
O        0.1454086816   -1.1238636443    1.0578860304
O        1.6329941461    2.5398019599   -1.0896453027
H        2.7601050843    0.0276784468    0.6942564840
H        3.6451519269    2.3063466964   -0.6696002548
H       -2.0008330882    0.9934726121    0.7170265971
H       -2.2793101658   -0.7334937802    0.3604212081
H       -1.8095686457    0.4263360267   -0.9337099925
13   
torsion grid (-120,)
C        2.2026712590    0.7364545006    0.1166472337
C        2.6609000487    1.8654588187   -0.4874671078
C        0.7864212879    0.8266822480   -0.0522383681
C       -0.2406452909   -0.1534172504    0.4199886383
C       -1.6869062966    0.1428228641    0.1037781186
N        0.4372244028    1.9222598396   -0.7024271964
O        0.1240397987   -1.1460303119    1.0338422267
O        1.6243951938    2.5870085665   -0.9820043530
H        2.7550730213   -0.0499004186    0.6093188937
H        3.6438082685    2.2883625645   -0.6469797740
H       -1.9718916356    1.1177736351    0.5115057863
H       -2.3172029259   -0.6425034557    0.5225982674
H       -1.8290053232    0.2035287210   -0.9801200992
13   
torsion grid (-105,)
C        2.2075715481    0.7320332702    0.0935962019
C        2.6618129930    1.8834251540   -0.4697471618
C        0.7888742762    0.8384114776   -0.0426848073
C       -0.2341531667   -0.1573461582    0.4041079063
C       -1.6840575884    0.1413988811    0.1053395872
N        0.4348703873    1.9635593934   -0.6378411576
O        0.1372986423   -1.1768673188    0.9678771087
O        1.6209412892    2.6322164751   -0.9120409650
H        2.7638801128   -0.0786028199    0.5403780157
H        3.6443157570    2.3071698001   -0.6295451282
H       -1.9293384573    1.1837862452    0.3232602719
H       -2.3176198934   -0.5373286734    0.6779771563
H       -1.8662724124   -0.0134346432   -0.9644449041
13   
torsion grid (-90,)
C        2.2007241997    0.7036423863    0.0694884745
C        2.6640190977    1.8757785792   -0.4408478281
C        0.7818549615    0.8355031037   -0.0416098188
C       -0.2467203199   -0.1679262820    0.3721209426
C       -1.6969991179    0.1419267718    0.0818629595
N        0.4363188668    1.9934276748   -0.5766185464
O        0.1188680331   -1.2107511368    0.8960452626
O        1.6279559232    2.6586200772   -0.8331949325
H        2.7510451932   -0.1356643687    0.4681228430
H        3.6501846088    2.2942597939   -0.5917956729
H       -1.9010850352    1.2139541570    0.0988249270
H       -2.3278148893   -0.3913183694    0.7954805459
H       -1.9321013209   -0.2267612159   -0.9237344184
13   
torsion grid (-75,)
C        2.1982073904    0.6934971186    0.0569925879
C        2.6662990590    1.8821557603   -0.4084297208
C        0.7799135687    0.8334965499   -0.0529008003
C       -0.2504044595   -0.1829029424    0.3208654713
C       -1.7063241302    0.1408736066    0.0687304007
N        0.4394714195    2.0124483476   -0.5443976338
O        0.1151413130   -1.2502283281    0.7932638578
O        1.6335197472    2.6827894006   -0.7731021335
H        2.7448233463   -0.1619477861    0.4252440783
H        3.6540720257    2.3028348992   -0.5417739589
H       -1.8771346136    1.2044765344   -0.0998932666
H       -2.3004466938   -0.2194314963    0.9120442627
H       -2.0297895136   -0.4129767709   -0.8199371786
13   
torsion grid (-60,)
C        2.1934432476    0.6845124749    0.0515595723
C        2.6639206932    1.8890396541   -0.3682167098
C        0.7760860357    0.8250547572   -0.0699776348
C       -0.2548333995   -0.2060281989    0.2579940719
C       -1.7148890826    0.1390480766    0.0582788748
N        0.4385660092    2.0190496660   -0.5263729071
O        0.1107954908   -1.2965507343    0.6741567793
O        1.6333658108    2.6991944193   -0.7181690502
H        2.7378336221   -0.1817565388    0.3970903070
H        3.6520999664    2.3160228922   -0.4761239496
H       -1.8626505301    1.1613760108   -0.2897606891
H       -2.2410820138   -0.0130820218    1.0054419981
H       -2.1409318401   -0.5628370449   -0.6654631385
13   
torsion grid (-45,)
C        2.1864514915    0.6749480734    0.0480273153
C        2.6563395497    1.8952472248   -0.3243055359
C        0.7700108163    0.8139456006   -0.0850394478
C       -0.2606386968   -0.2316191814    0.1956481654
C       -1.7209432776    0.1368416558    0.0511868727
N        0.4324237931    2.0213175375   -0.5043854494
O        0.1057441294   -1.3424087147    0.5532918590
O        1.6263821094    2.7127410524   -0.6583217550
H        2.7307357746   -0.2005848930    0.3695493551
H        3.6438306471    2.3295414829   -0.4061695208
H       -1.8637272548    1.0831827161   -0.4713145684
H       -2.1549328784    0.2180082360    1.0538639430
H       -2.2403642089   -0.6708175784   -0.4706055327
13   
torsion grid (-30,)
C        2.1793361311    0.6622350390    0.0374527563
C        2.6458454010    1.8985316990   -0.2832862759
C        0.7625850878    0.8034871420   -0.0884892022
C       -0.2676870663   -0.2536973991    0.1502137248
C       -1.7247004171    0.1346188071    0.0459347846
N        0.4214498199    2.0262406192   -0.4560902406
O        0.0991879345   -1.3805284430    0.4523927548
O        1.6137861594    2.7268609021   -0.5814719880
H        2.7262151673   -0.2246761628    0.3211985392
H        3.6322800554    2.3380837658   -0.3478867422
H       -1.8797267409    0.9644194512   -0.6458635771
H       -2.0666968023    0.4585874809    1.0359823998
H       -2.3090657594   -0.7372793937   -0.2537979103
13   
torsion grid (-15,)
C        2.1844166155    0.6602949446    0.0088203894
C        2.6408521588    1.9131237477   -0.2585122228
C        0.7654666867    0.8012916576   -0.0876537860
C       -0.2597270099   -0.2691162045    0.1150306759
C       -1.7151437813    0.1257991910    0.0340390915
N        0.4135210811    2.0384194148   -0.3896328504
O        0.1126783594   -1.4076927388    0.3603681675
O        1.6011435273    2.7501125755   -0.4997048827
H        2.7394092316   -0.2366790411    0.2404337352
H        3.6244459446    2.3598123055   -0.3169920728
H       -1.8978805167    0.7951282251   -0.8104412549
H       -1.9862157817    0.6775830769    0.9414715824
H       -2.3300852893   -0.7719250997   -0.0422078830
13   
torsion grid (0,)
C        2.1726493152    0.6321698777   -0.0209363129
C        2.6353748675    1.8944037564   -0.2264744551
C        0.7531772004    0.7945934023   -0.0545901792
C       -0.2793710581   -0.2743185982    0.1179354388
C       -1.7304748481    0.1331157052    0.0292239472
N        0.4065821759    2.0519749855   -0.2640599346
O        0.0849475928   -1.4236159311    0.3215255569
O        1.5986772604    2.7563059748   -0.3745085007
H        2.7240166101   -0.2835379909    0.1330302247
H        3.6219615777    2.3331687002   -0.2937657814
H       -1.9342991886    0.5923875644   -0.9433426624
H       -1.9559019111    0.8913239346    0.7859859916
H       -2.3622960690   -0.7440421006    0.1732240993
13   
torsion grid (15,)
C        2.1763893598    0.6368810962   -0.0499293644
C        2.6376191276    1.9071237875   -0.2019969344
C        0.7569301267    0.8030397136   -0.0384201514
C       -0.2727382007   -0.2731048146    0.1012272763
C       -1.7263614537    0.1296904741    0.0267164212
N        0.4090182824    2.0704494029   -0.1731032463
O        0.0950563858   -1.4304423961    0.2445968692
O        1.5999803258    2.7773610252   -0.2777022907
H        2.7286245171   -0.2865949952    0.0419858258
H        3.6234835970    2.3471967117   -0.2713951265
H       -1.9807262551    0.3566456903   -1.0150183022
H       -1.9166650582    1.0376718557    0.6045011359
H       -2.3485174147   -0.6934837679    0.3805119427
13   
torsion grid (30,)
C        2.1766765804    0.6290384898   -0.0766998861
C        2.6475566458    1.9011948115   -0.1706277087
C        0.7590252098    0.8064164393   -0.0342838058
C       -0.2754874878   -0.2685871727    0.0666679099
C       -1.7309764606    0.1353187628    0.0115255945
N        0.4214018645    2.0826116560   -0.0973416285
O        0.0874531171   -1.4330231835    0.1562619393
O        1.6170506489    2.7832837414   -0.1848311493
H        2.7212640048   -0.3028223306   -0.0412031479
H        3.6363233075    2.3357975115   -0.2330086840
H       -2.0539240468    0.1186278798   -1.0360936163
H       -1.8910455649    1.1458986019    0.3913797005
H       -2.3269471738   -0.5895729165    0.5690952766
13   
torsion grid (45,)
C        2.1847536635    0.6376646096   -0.0902026932
C        2.6579083006    1.9116091418   -0.1319896019
C        0.7670434860    0.8152268682   -0.0466463082
C       -0.2670531047   -0.2625945423    0.0088508235
C       -1.7266316562    0.1359647352    0.0027646449
N        0.4316896933    2.0938448207   -0.0618141259
O        0.0963079131   -1.4301761110    0.0358280881
O        1.6284845193    2.7952148902   -0.1166700924
H        2.7276927136   -0.2958209598   -0.0890134398
H        3.6474938863    2.3468981029   -0.1731628510
H       -2.1456293914   -0.1104020653   -0.9790354408
H       -1.8701577678    1.2007098221    0.1889961683
H       -2.2592083161   -0.4583604926    0.7494671906
13   
torsion grid (60,)
C        2.1795176649    0.6312319527   -0.1027306374
C        2.6583908504    1.9036373055   -0.0920513709
C        0.7622282196    0.8133226892   -0.0633018347
C       -0.2762597097   -0.2613715774   -0.0557127796
C       -1.7348948887    0.1399366339   -0.0104534069
N        0.4325069189    2.0932006810   -0.0312017990
O        0.0821947745   -1.4305017500   -0.0832267433
O        1.6325979926    2.7906248239   -0.0488777014
H        2.7184313824   -0.3040776178   -0.1334216410
H        3.6500529114    2.3357753734   -0.1099584573
H       -2.2466734262   -0.3114017361   -0.8657532267
H       -1.8752526582    1.2208178342   -0.0204541024
H       -2.1824761114   -0.2824474386    0.8946546203
13   
torsion grid (75,)
C        2.1844673271    0.6378535607   -0.1107432468
C        2.6599545942    1.9102819357   -0.0517958921
C        0.7664402660    0.8156490313   -0.0820559004
C       -0.2704779464   -0.2602148872   -0.1225555941
C       -1.7261729948    0.1381518916   -0.0207612205
N        0.4330078001    2.0928716822   -0.0118979648
O        0.0891712721   -1.4259129544   -0.2107012762
O        1.6315905412    2.7931543714    0.0085179922
H        2.7261267458   -0.2947153244   -0.1664622103
H        3.6506931040    2.3448143891   -0.0436819053
H       -2.3102856259   -0.4752327174   -0.7110884522
H       -1.8859428003    1.1992314031   -0.2142653066
H       -2.0721777013   -0.0908343819    0.9936139287
13   
torsion grid (90,)
C        2.1873354841    0.6433246439   -0.1257759085
C        2.6570745300    1.9149249867   -0.0191569054
C        0.7686093020    0.8138704595   -0.0933708601
C       -0.2657233256   -0.2628737096   -0.1758225524
C       -1.7166464479    0.1347283591   -0.0333013544
N        0.4290924983    2.0855747342    0.0245943159
O        0.0952185511   -1.4223393100   -0.3207164875
O        1.6247385219    2.7901242418    0.0731076502
H        2.7334109696   -0.2840253382   -0.2153435385
H        3.6458859077    2.3531482745    0.0062801361
H       -2.3419267711   -0.5991426931   -0.5451418466
H       -1.9064390273    1.1430261423   -0.4054516166
H       -1.9738695792    0.1183823204    1.0325336402
13   
torsion grid (105,)
C        2.1899574236    0.6504822473   -0.1510782141
C        2.6546066060    1.9187690554    0.0068647087
C        0.7711094157    0.8120295635   -0.0931472462
C       -0.2614469496   -0.2641476071   -0.2092164813
C       -1.7099870194    0.1302862418   -0.0453890522
N        0.4266968397    2.0751121411    0.0843473323
O        0.1012557400   -1.4150794311   -0.4067669512
O        1.6195236418    2.7836576796    0.1493125059
H        2.7395950163   -0.2688888947   -0.2884829589
H        3.6415639919    2.3605941750    0.0402349930
H       -2.3472535556   -0.6907353882   -0.3767812464
H       -1.9374903930    1.0482971075   -0.5928649166
H       -1.9060675782    0.3322372669    1.0140402487
13   
torsion grid (120,)
C        2.1963029953    0.6732047284   -0.1871156392
C        2.6527525015    1.9359624922    0.0289478335
C        0.7786666419    0.8138587433   -0.0733282652
C       -0.2473102228   -0.2655293747   -0.2174592839
C       -1.6981370835    0.1221152611   -0.0612650049
N        0.4272088175    2.0601115544    0.1881094032
O        0.1219402429   -1.4074755024   -0.4512864857
O        1.6141156001    2.7785860864    0.2542587939
H        2.7506673790   -0.2299600218   -0.3949768742
H        3.6356824556    2.3870789119    0.0561225078
H       -2.3258580503   -0.7571434836   -0.2103485046
H       -1.9608282262    0.9039877913   -0.7807839807
H       -1.8685682496    0.5438759879    0.9346095367
13   
torsion grid (135,)
C        2.1984575967    0.6862669378   -0.2133733520
C        2.6572638302    1.9381413917    0.0544681838
C        0.7842596372    0.8132747117   -0.0508228959
C       -0.2410447337   -0.2625115694   -0.2221933881
C       -1.6923140118    0.1221585522   -0.0617707750
N        0.4364515647    2.0428664842    0.2844073956
O        0.1267504100   -1.3944438106   -0.5028016226
O        1.6223925814    2.7626847190    0.3526135786
H        2.7494515406   -0.2022962667   -0.4836834135
H        3.6391106598    2.3918909560    0.0770369493
H       -2.3045584541   -0.7795582050   -0.0215580956
H       -1.9973900670    0.7324037199   -0.9196525722
H       -1.8413281361    0.7378346547    0.8291886956
13   
torsion grid (150,)
C        2.2062719269    0.7017384551   -0.2294439450
C        2.6700635350    1.9406322992    0.0853793497
C        0.7951219827    0.8211753744   -0.0364918618
C       -0.2312652804   -0.2471063852   -0.2413023491
C       -1.6853290936    0.1220201654   -0.0619416210
N        0.4545914077    2.0340362548    0.3626572717
O        0.1354144040   -1.3643814068   -0.5772123202
O        1.6416882413    2.7502737161    0.4417447238
H        2.7515983295   -0.1735615877   -0.5498696951
H        3.6522934482    2.3934424117    0.1100764381
H       -2.2602399565   -0.7733898160    0.1797470307
H       -2.0549281398    0.5256936401   -1.0124806346
H       -1.8209199628    0.8995583569    0.6921593823
13   
torsion grid (165,)
C        2.2150779539    0.7171183734   -0.2411719360
C        2.6846745775    1.9396605819    0.1242295859
C        0.8044876465    0.8341494582   -0.0417789322
C       -0.2241286424   -0.2217643693   -0.2899100569
C       -1.6798049100    0.1258885297   -0.0711205306
N        0.4699112833    2.0312355824    0.4081060527
O        0.1391029298   -1.3202827526   -0.6865265722
O        1.6599339395    2.7382334629    0.5151140025
H        2.7560544531   -0.1464771008   -0.5985594818
H        3.6688065303    2.3870463942    0.1663798553
H       -2.1850161657   -0.7231877435    0.3948074206
H       -2.1399005822    0.2875401891   -1.0528711867
H       -1.8094025286    1.0329108289    0.5201898456
13   
torsion grid (180,)
C        2.2083192067    0.7153094593   -0.2575392559
C        2.6891567630    1.9152055758    0.1637607334
C        0.7977551181    0.8396203204   -0.0618778031
C       -0.2395069973   -0.1945670056   -0.3586604454
C       -1.6913488015    0.1350858271   -0.0861145935
N        0.4734592320    2.0210250173    0.4350728977
O        0.1143906131   -1.2740422349   -0.8120929405
O        1.6705374483    2.7085817460    0.5806798279
H        2.7419869674   -0.1384949771   -0.6479083545
H        3.6778996693    2.3491108631    0.2313764118
H       -2.0891524418   -0.6033256007    0.6167767220
H       -2.2525969115    0.0299470612   -1.0196115268
H       -1.8270547956    1.1389905932    0.3162763234
